MODEL 1
REMARK VINA RESULT:      -8.3      0.000      0.000
REMARK  6 active torsions:
REMARK  status: ('A' for Active; 'I' for Inactive)
REMARK    1  A    between atoms: C2_2  and  C3_3 
REMARK       I    between atoms: C3_3  and  N1_5 
REMARK    2  A    between atoms: C5_7  and  O2_8 
REMARK    3  A    between atoms: C6_9  and  O3_10 
REMARK    4  A    between atoms: O3_10  and  C7_11 
REMARK    5  A    between atoms: C11_18  and  N4_19 
REMARK    6  A    between atoms: N4_19  and  C12_20 
ROOT
HETATM    1  C7  UNL     1      23.067   1.037  52.607  1.00  0.00     0.139 A 
HETATM    2  C8  UNL     1      22.192  -0.014  52.377  1.00  0.00     0.087 A 
HETATM    3 CL1  UNL     1      22.003  -1.352  53.489  1.00  0.00    -0.080 Cl
HETATM    4  C9  UNL     1      21.567   0.239  51.159  1.00  0.00     0.126 A 
HETATM    5  N2  UNL     1      22.022   1.401  50.632  1.00  0.00    -0.296 N 
HETATM    6  C10 UNL     1      21.686   2.010  49.489  1.00  0.00     0.235 A 
HETATM    7  N3  UNL     1      22.305   3.191  49.203  1.00  0.00    -0.057 NA
HETATM    8  C11 UNL     1      23.225   3.699  50.072  1.00  0.00     0.730 A 
HETATM    9  N7  UNL     1      23.529   3.050  51.207  1.00  0.00    -0.041 NA
HETATM   10  C16 UNL     1      22.933   1.877  51.523  1.00  0.00     0.189 A 
ENDROOT
BRANCH   1  11
HETATM   11  O3  UNL     1      23.940   1.315  53.647  1.00  0.00    -0.336 OA
BRANCH  11  12
HETATM   12  C6  UNL     1      25.183   0.701  53.799  1.00  0.00     0.177 C 
HETATM   13  C5  UNL     1      26.249   1.786  53.869  1.00  0.00     0.167 C 
HETATM   14  C4  UNL     1      27.393   1.250  53.002  1.00  0.00     0.160 C 
HETATM   15  N1  UNL     1      27.068  -0.177  52.854  1.00  0.00    -0.344 N 
HETATM   16  C3  UNL     1      27.709  -1.469  52.924  1.00  0.00     0.242 C 
HETATM   17  C17 UNL     1      25.634  -0.063  52.546  1.00  0.00     0.161 C 
HETATM   18  O1  UNL     1      27.416  -2.682  52.796  1.00  0.00    -0.268 OA
BRANCH  13  19
HETATM   19  O2  UNL     1      25.773   2.952  53.231  1.00  0.00    -0.391 OA
HETATM   20  H7  UNL     1      24.877   2.733  52.853  1.00  0.00     0.210 HD
ENDBRANCH  13  19
BRANCH  16  21
HETATM   21  C2  UNL     1      29.121  -1.368  53.232  1.00  0.00     0.064 C 
HETATM   22  C1  UNL     1      30.162  -0.728  53.716  1.00  0.00     0.017 C 
ENDBRANCH  16  21
ENDBRANCH  11  12
ENDBRANCH   1  11
BRANCH   8  23
HETATM   23  N4  UNL     1      23.913   4.935  49.850  1.00  0.00    -0.185 N 
HETATM   24  H11 UNL     1      23.525   5.903  49.925  1.00  0.00     0.184 HD
BRANCH  23  25
HETATM   25  C12 UNL     1      25.278   4.785  49.493  1.00  0.00     0.085 A 
HETATM   26  C13 UNL     1      26.041   3.626  49.618  1.00  0.00     0.170 A 
HETATM   27  N5  UNL     1      27.303   3.870  49.168  1.00  0.00    -0.183 NA
HETATM   28  N6  UNL     1      27.373   5.134  48.764  1.00  0.00    -0.283 N 
HETATM   29  C14 UNL     1      28.603   5.691  48.228  1.00  0.00     0.179 C 
HETATM   30  C15 UNL     1      26.171   5.704  48.947  1.00  0.00     0.143 A 
ENDBRANCH  23  25
ENDBRANCH   8  23
TORSDOF 6
ENDMDL
MODEL 2
REMARK VINA RESULT:      -8.2      1.707      2.384
REMARK  6 active torsions:
REMARK  status: ('A' for Active; 'I' for Inactive)
REMARK    1  A    between atoms: C2_2  and  C3_3 
REMARK       I    between atoms: C3_3  and  N1_5 
REMARK    2  A    between atoms: C5_7  and  O2_8 
REMARK    3  A    between atoms: C6_9  and  O3_10 
REMARK    4  A    between atoms: O3_10  and  C7_11 
REMARK    5  A    between atoms: C11_18  and  N4_19 
REMARK    6  A    between atoms: N4_19  and  C12_20 
ROOT
HETATM    1  C7  UNL     1      23.181   2.131  51.273  1.00  0.00     0.139 A 
HETATM    2  C8  UNL     1      22.182   1.435  50.610  1.00  0.00     0.087 A 
HETATM    3 CL1  UNL     1      21.437  -0.008  51.262  1.00  0.00    -0.080 Cl
HETATM    4  C9  UNL     1      21.947   2.107  49.413  1.00  0.00     0.126 A 
HETATM    5  N2  UNL     1      22.760   3.185  49.314  1.00  0.00    -0.296 N 
HETATM    6  C10 UNL     1      22.856   4.095  48.337  1.00  0.00     0.235 A 
HETATM    7  N3  UNL     1      23.770   5.094  48.501  1.00  0.00    -0.057 NA
HETATM    8  C11 UNL     1      24.536   5.131  49.629  1.00  0.00     0.730 A 
HETATM    9  N7  UNL     1      24.402   4.195  50.581  1.00  0.00    -0.041 NA
HETATM   10  C16 UNL     1      23.506   3.190  50.452  1.00  0.00     0.189 A 
ENDROOT
BRANCH   1  11
HETATM   11  O3  UNL     1      23.811   1.928  52.490  1.00  0.00    -0.336 OA
BRANCH  11  12
HETATM   12  C6  UNL     1      25.127   1.484  52.617  1.00  0.00     0.177 C 
HETATM   13  C5  UNL     1      25.104   0.073  53.188  1.00  0.00     0.167 C 
HETATM   14  C4  UNL     1      26.233   0.066  54.225  1.00  0.00     0.160 C 
HETATM   15  N1  UNL     1      27.013   1.267  53.888  1.00  0.00    -0.344 N 
HETATM   16  C3  UNL     1      28.385   1.680  53.713  1.00  0.00     0.242 C 
HETATM   17  C17 UNL     1      25.909   2.224  53.711  1.00  0.00     0.161 C 
HETATM   18  O1  UNL     1      29.036   2.712  53.423  1.00  0.00    -0.268 OA
BRANCH  13  19
HETATM   19  O2  UNL     1      23.902  -0.124  53.902  1.00  0.00    -0.391 OA
HETATM   20  H7  UNL     1      23.189   0.376  53.417  1.00  0.00     0.210 HD
ENDBRANCH  13  19
BRANCH  16  21
HETATM   21  C2  UNL     1      29.320   0.596  53.937  1.00  0.00     0.064 C 
HETATM   22  C1  UNL     1      29.880  -0.544  53.599  1.00  0.00     0.017 C 
ENDBRANCH  16  21
ENDBRANCH  11  12
ENDBRANCH   1  11
BRANCH   8  23
HETATM   23  N4  UNL     1      25.511   6.149  49.880  1.00  0.00    -0.185 N 
HETATM   24  H11 UNL     1      25.415   6.984  50.503  1.00  0.00     0.184 HD
BRANCH  23  25
HETATM   25  C12 UNL     1      26.735   5.966  49.188  1.00  0.00     0.085 A 
HETATM   26  C13 UNL     1      27.402   4.758  48.995  1.00  0.00     0.170 A 
HETATM   27  N5  UNL     1      28.540   4.982  48.281  1.00  0.00    -0.183 NA
HETATM   28  N6  UNL     1      28.624   6.282  48.014  1.00  0.00    -0.283 N 
HETATM   29  C14 UNL     1      29.738   6.829  47.261  1.00  0.00     0.179 C 
HETATM   30  C15 UNL     1      27.554   6.893  48.546  1.00  0.00     0.143 A 
ENDBRANCH  23  25
ENDBRANCH   8  23
TORSDOF 6
ENDMDL
MODEL 3
REMARK VINA RESULT:      -8.0      1.665      2.098
REMARK  6 active torsions:
REMARK  status: ('A' for Active; 'I' for Inactive)
REMARK    1  A    between atoms: C2_2  and  C3_3 
REMARK       I    between atoms: C3_3  and  N1_5 
REMARK    2  A    between atoms: C5_7  and  O2_8 
REMARK    3  A    between atoms: C6_9  and  O3_10 
REMARK    4  A    between atoms: O3_10  and  C7_11 
REMARK    5  A    between atoms: C11_18  and  N4_19 
REMARK    6  A    between atoms: N4_19  and  C12_20 
ROOT
HETATM    1  C7  UNL     1      23.515   1.523  52.258  1.00  0.00     0.139 A 
HETATM    2  C8  UNL     1      22.437   0.806  51.764  1.00  0.00     0.087 A 
HETATM    3 CL1  UNL     1      21.649  -0.468  52.668  1.00  0.00    -0.080 Cl
HETATM    4  C9  UNL     1      22.167   1.305  50.492  1.00  0.00     0.126 A 
HETATM    5  N2  UNL     1      23.035   2.299  50.186  1.00  0.00    -0.296 N 
HETATM    6  C10 UNL     1      23.124   3.043  49.078  1.00  0.00     0.235 A 
HETATM    7  N3  UNL     1      24.105   3.991  49.038  1.00  0.00    -0.057 NA
HETATM    8  C11 UNL     1      24.941   4.143  50.104  1.00  0.00     0.730 A 
HETATM    9  N7  UNL     1      24.812   3.371  51.195  1.00  0.00    -0.041 NA
HETATM   10  C16 UNL     1      23.850   2.422  51.269  1.00  0.00     0.189 A 
ENDROOT
BRANCH   1  11
HETATM   11  O3  UNL     1      24.207   1.462  53.457  1.00  0.00    -0.336 OA
BRANCH  11  12
HETATM   12  C6  UNL     1      25.329   0.661  53.664  1.00  0.00     0.177 C 
HETATM   13  C5  UNL     1      26.475   1.550  54.127  1.00  0.00     0.167 C 
HETATM   14  C4  UNL     1      27.692   1.035  53.352  1.00  0.00     0.160 C 
HETATM   15  N1  UNL     1      27.249  -0.277  52.853  1.00  0.00    -0.344 N 
HETATM   16  C3  UNL     1      27.725  -1.635  52.742  1.00  0.00     0.242 C 
HETATM   17  C17 UNL     1      25.914   0.097  52.361  1.00  0.00     0.161 C 
HETATM   18  O1  UNL     1      27.332  -2.747  52.315  1.00  0.00    -0.268 OA
BRANCH  13  19
HETATM   19  O2  UNL     1      26.249   2.872  53.687  1.00  0.00    -0.391 OA
HETATM   20  H7  UNL     1      25.845   3.369  54.451  1.00  0.00     0.210 HD
ENDBRANCH  13  19
BRANCH  16  21
HETATM   21  C2  UNL     1      29.061  -1.797  53.279  1.00  0.00     0.064 C 
HETATM   22  C1  UNL     1      30.158  -1.325  53.827  1.00  0.00     0.017 C 
ENDBRANCH  16  21
ENDBRANCH  11  12
ENDBRANCH   1  11
BRANCH   8  23
HETATM   23  N4  UNL     1      25.989   5.118  50.144  1.00  0.00    -0.185 N 
HETATM   24  H11 UNL     1      27.011   4.950  50.283  1.00  0.00     0.184 HD
BRANCH  23  25
HETATM   25  C12 UNL     1      25.547   6.455  49.968  1.00  0.00     0.085 A 
HETATM   26  C13 UNL     1      24.685   7.157  50.808  1.00  0.00     0.170 A 
HETATM   27  N5  UNL     1      24.499   8.412  50.312  1.00  0.00    -0.183 NA
HETATM   28  N6  UNL     1      25.206   8.535  49.193  1.00  0.00    -0.283 N 
HETATM   29  C14 UNL     1      25.208   9.771  48.431  1.00  0.00     0.179 C 
HETATM   30  C15 UNL     1      25.844   7.376  48.966  1.00  0.00     0.143 A 
ENDBRANCH  23  25
ENDBRANCH   8  23
TORSDOF 6
ENDMDL
MODEL 4
REMARK VINA RESULT:      -8.0      1.337      1.834
REMARK  6 active torsions:
REMARK  status: ('A' for Active; 'I' for Inactive)
REMARK    1  A    between atoms: C2_2  and  C3_3 
REMARK       I    between atoms: C3_3  and  N1_5 
REMARK    2  A    between atoms: C5_7  and  O2_8 
REMARK    3  A    between atoms: C6_9  and  O3_10 
REMARK    4  A    between atoms: O3_10  and  C7_11 
REMARK    5  A    between atoms: C11_18  and  N4_19 
REMARK    6  A    between atoms: N4_19  and  C12_20 
ROOT
HETATM    1  C7  UNL     1      23.036   0.860  52.878  1.00  0.00     0.139 A 
HETATM    2  C8  UNL     1      22.075  -0.040  53.311  1.00  0.00     0.087 A 
HETATM    3 CL1  UNL     1      22.106  -0.771  54.900  1.00  0.00    -0.080 Cl
HETATM    4  C9  UNL     1      21.170  -0.200  52.264  1.00  0.00     0.126 A 
HETATM    5  N2  UNL     1      21.536   0.564  51.208  1.00  0.00    -0.296 N 
HETATM    6  C10 UNL     1      20.949   0.708  50.014  1.00  0.00     0.235 A 
HETATM    7  N3  UNL     1      21.538   1.560  49.126  1.00  0.00    -0.057 NA
HETATM    8  C11 UNL     1      22.679   2.219  49.478  1.00  0.00     0.730 A 
HETATM    9  N7  UNL     1      23.231   2.041  50.688  1.00  0.00    -0.041 NA
HETATM   10  C16 UNL     1      22.673   1.204  51.594  1.00  0.00     0.189 A 
ENDROOT
BRANCH   1  11
HETATM   11  O3  UNL     1      24.163   1.388  53.487  1.00  0.00    -0.336 OA
BRANCH  11  12
HETATM   12  C6  UNL     1      25.338   0.667  53.700  1.00  0.00     0.177 C 
HETATM   13  C5  UNL     1      26.461   1.654  53.986  1.00  0.00     0.167 C 
HETATM   14  C4  UNL     1      27.652   1.114  53.187  1.00  0.00     0.160 C 
HETATM   15  N1  UNL     1      27.249  -0.264  52.863  1.00  0.00    -0.344 N 
HETATM   16  C3  UNL     1      27.789  -1.602  52.864  1.00  0.00     0.242 C 
HETATM   17  C17 UNL     1      25.867  -0.008  52.426  1.00  0.00     0.161 C 
HETATM   18  O1  UNL     1      27.430  -2.771  52.585  1.00  0.00    -0.268 OA
BRANCH  13  19
HETATM   19  O2  UNL     1      26.137   2.908  53.425  1.00  0.00    -0.391 OA
HETATM   20  H7  UNL     1      26.974   3.276  53.029  1.00  0.00     0.210 HD
ENDBRANCH  13  19
BRANCH  16  21
HETATM   21  C2  UNL     1      29.164  -1.642  53.320  1.00  0.00     0.064 C 
HETATM   22  C1  UNL     1      30.234  -1.079  53.835  1.00  0.00     0.017 C 
ENDBRANCH  16  21
ENDBRANCH  11  12
ENDBRANCH   1  11
BRANCH   8  23
HETATM   23  N4  UNL     1      23.354   3.135  48.608  1.00  0.00    -0.185 N 
HETATM   24  H11 UNL     1      23.516   3.035  47.579  1.00  0.00     0.184 HD
BRANCH  23  25
HETATM   25  C12 UNL     1      23.840   4.300  49.253  1.00  0.00     0.085 A 
HETATM   26  C13 UNL     1      25.170   4.576  49.566  1.00  0.00     0.170 A 
HETATM   27  N5  UNL     1      25.244   5.791  50.178  1.00  0.00    -0.183 NA
HETATM   28  N6  UNL     1      24.018   6.297  50.266  1.00  0.00    -0.283 N 
HETATM   29  C14 UNL     1      23.776   7.593  50.875  1.00  0.00     0.179 C 
HETATM   30  C15 UNL     1      23.159   5.422  49.718  1.00  0.00     0.143 A 
ENDBRANCH  23  25
ENDBRANCH   8  23
TORSDOF 6
ENDMDL
MODEL 5
REMARK VINA RESULT:      -7.9      2.789      6.205
REMARK  6 active torsions:
REMARK  status: ('A' for Active; 'I' for Inactive)
REMARK    1  A    between atoms: C2_2  and  C3_3 
REMARK       I    between atoms: C3_3  and  N1_5 
REMARK    2  A    between atoms: C5_7  and  O2_8 
REMARK    3  A    between atoms: C6_9  and  O3_10 
REMARK    4  A    between atoms: O3_10  and  C7_11 
REMARK    5  A    between atoms: C11_18  and  N4_19 
REMARK    6  A    between atoms: N4_19  and  C12_20 
ROOT
HETATM    1  C7  UNL     1      21.890   0.619  51.765  1.00  0.00     0.139 A 
HETATM    2  C8  UNL     1      20.505   0.623  51.808  1.00  0.00     0.087 A 
HETATM    3 CL1  UNL     1      19.517   1.322  50.545  1.00  0.00    -0.080 Cl
HETATM    4  C9  UNL     1      20.136  -0.007  52.995  1.00  0.00     0.126 A 
HETATM    5  N2  UNL     1      21.238  -0.396  53.680  1.00  0.00    -0.296 N 
HETATM    6  C10 UNL     1      21.332  -1.031  54.853  1.00  0.00     0.235 A 
HETATM    7  N3  UNL     1      22.586  -1.308  55.316  1.00  0.00    -0.057 NA
HETATM    8  C11 UNL     1      23.674  -0.936  54.583  1.00  0.00     0.730 A 
HETATM    9  N7  UNL     1      23.527  -0.299  53.410  1.00  0.00    -0.041 NA
HETATM   10  C16 UNL     1      22.298  -0.009  52.921  1.00  0.00     0.189 A 
ENDROOT
BRANCH   1  11
HETATM   11  O3  UNL     1      22.796   1.102  50.834  1.00  0.00    -0.336 OA
BRANCH  11  12
HETATM   12  C6  UNL     1      23.014   2.458  50.595  1.00  0.00     0.177 C 
HETATM   13  C5  UNL     1      24.513   2.720  50.641  1.00  0.00     0.167 C 
HETATM   14  C4  UNL     1      24.645   4.030  51.425  1.00  0.00     0.160 C 
HETATM   15  N1  UNL     1      23.279   4.577  51.407  1.00  0.00    -0.344 N 
HETATM   16  C3  UNL     1      22.592   5.826  51.177  1.00  0.00     0.242 C 
HETATM   17  C17 UNL     1      22.531   3.356  51.743  1.00  0.00     0.161 C 
HETATM   18  O1  UNL     1      21.422   6.277  51.164  1.00  0.00    -0.268 OA
BRANCH  13  19
HETATM   19  O2  UNL     1      25.139   1.722  51.419  1.00  0.00    -0.391 OA
HETATM   20  H7  UNL     1      26.061   1.608  51.060  1.00  0.00     0.210 HD
ENDBRANCH  13  19
BRANCH  16  21
HETATM   21  C2  UNL     1      23.504   6.908  50.865  1.00  0.00     0.064 C 
HETATM   22  C1  UNL     1      23.760   8.148  50.513  1.00  0.00     0.017 C 
ENDBRANCH  16  21
ENDBRANCH  11  12
ENDBRANCH   1  11
BRANCH   8  23
HETATM   23  N4  UNL     1      25.021  -1.195  54.993  1.00  0.00    -0.185 N 
HETATM   24  H11 UNL     1      25.345  -1.860  55.732  1.00  0.00     0.184 HD
BRANCH  23  25
HETATM   25  C12 UNL     1      25.998  -0.447  54.289  1.00  0.00     0.085 A 
HETATM   26  C13 UNL     1      26.665  -0.843  53.131  1.00  0.00     0.170 A 
HETATM   27  N5  UNL     1      27.525   0.142  52.749  1.00  0.00    -0.183 NA
HETATM   28  N6  UNL     1      27.431   1.145  53.616  1.00  0.00    -0.283 N 
HETATM   29  C14 UNL     1      28.233   2.348  53.470  1.00  0.00     0.179 C 
HETATM   30  C15 UNL     1      26.522   0.817  54.548  1.00  0.00     0.143 A 
ENDBRANCH  23  25
ENDBRANCH   8  23
TORSDOF 6
ENDMDL
MODEL 6
REMARK VINA RESULT:      -7.9      2.493      5.552
REMARK  6 active torsions:
REMARK  status: ('A' for Active; 'I' for Inactive)
REMARK    1  A    between atoms: C2_2  and  C3_3 
REMARK       I    between atoms: C3_3  and  N1_5 
REMARK    2  A    between atoms: C5_7  and  O2_8 
REMARK    3  A    between atoms: C6_9  and  O3_10 
REMARK    4  A    between atoms: O3_10  and  C7_11 
REMARK    5  A    between atoms: C11_18  and  N4_19 
REMARK    6  A    between atoms: N4_19  and  C12_20 
ROOT
HETATM    1  C7  UNL     1      22.011   2.747  52.199  1.00  0.00     0.139 A 
HETATM    2  C8  UNL     1      20.884   2.625  51.401  1.00  0.00     0.087 A 
HETATM    3 CL1  UNL     1      20.131   3.989  50.606  1.00  0.00    -0.080 Cl
HETATM    4  C9  UNL     1      20.538   1.276  51.394  1.00  0.00     0.126 A 
HETATM    5  N2  UNL     1      21.405   0.566  52.155  1.00  0.00    -0.296 N 
HETATM    6  C10 UNL     1      21.438  -0.746  52.413  1.00  0.00     0.235 A 
HETATM    7  N3  UNL     1      22.440  -1.200  53.220  1.00  0.00    -0.057 NA
HETATM    8  C11 UNL     1      23.352  -0.321  53.724  1.00  0.00     0.730 A 
HETATM    9  N7  UNL     1      23.276   0.988  53.436  1.00  0.00    -0.041 NA
HETATM   10  C16 UNL     1      22.297   1.473  52.639  1.00  0.00     0.189 A 
ENDROOT
BRANCH   1  11
HETATM   11  O3  UNL     1      22.783   3.838  52.563  1.00  0.00    -0.336 OA
BRANCH  11  12
HETATM   12  C6  UNL     1      23.964   4.201  51.916  1.00  0.00     0.177 C 
HETATM   13  C5  UNL     1      23.901   5.690  51.601  1.00  0.00     0.167 C 
HETATM   14  C4  UNL     1      24.459   5.800  50.178  1.00  0.00     0.160 C 
HETATM   15  N1  UNL     1      25.125   4.504  49.971  1.00  0.00    -0.344 N 
HETATM   16  C3  UNL     1      26.362   3.968  49.455  1.00  0.00     0.242 C 
HETATM   17  C17 UNL     1      24.080   3.615  50.502  1.00  0.00     0.161 C 
HETATM   18  O1  UNL     1      26.917   2.856  49.287  1.00  0.00    -0.268 OA
BRANCH  13  19
HETATM   19  O2  UNL     1      22.551   6.098  51.536  1.00  0.00    -0.391 OA
HETATM   20  H7  UNL     1      21.998   5.270  51.504  1.00  0.00     0.210 HD
ENDBRANCH  13  19
BRANCH  16  21
HETATM   21  C2  UNL     1      27.255   5.004  48.976  1.00  0.00     0.064 C 
HETATM   22  C1  UNL     1      28.356   5.406  48.383  1.00  0.00     0.017 C 
ENDBRANCH  16  21
ENDBRANCH  11  12
ENDBRANCH   1  11
BRANCH   8  23
HETATM   23  N4  UNL     1      24.436  -0.717  54.571  1.00  0.00    -0.185 N 
HETATM   24  H11 UNL     1      24.378  -1.166  55.514  1.00  0.00     0.184 HD
BRANCH  23  25
HETATM   25  C12 UNL     1      25.721  -0.458  54.031  1.00  0.00     0.085 A 
HETATM   26  C13 UNL     1      26.244  -0.989  52.853  1.00  0.00     0.170 A 
HETATM   27  N5  UNL     1      27.503  -0.505  52.663  1.00  0.00    -0.183 NA
HETATM   28  N6  UNL     1      27.801   0.309  53.670  1.00  0.00    -0.283 N 
HETATM   29  C14 UNL     1      29.086   0.982  53.745  1.00  0.00     0.179 C 
HETATM   30  C15 UNL     1      26.749   0.355  54.503  1.00  0.00     0.143 A 
ENDBRANCH  23  25
ENDBRANCH   8  23
TORSDOF 6
ENDMDL
MODEL 7
REMARK VINA RESULT:      -7.8      3.556      7.322
REMARK  6 active torsions:
REMARK  status: ('A' for Active; 'I' for Inactive)
REMARK    1  A    between atoms: C2_2  and  C3_3 
REMARK       I    between atoms: C3_3  and  N1_5 
REMARK    2  A    between atoms: C5_7  and  O2_8 
REMARK    3  A    between atoms: C6_9  and  O3_10 
REMARK    4  A    between atoms: O3_10  and  C7_11 
REMARK    5  A    between atoms: C11_18  and  N4_19 
REMARK    6  A    between atoms: N4_19  and  C12_20 
ROOT
HETATM    1  C7  UNL     1      21.976   3.967  51.909  1.00  0.00     0.139 A 
HETATM    2  C8  UNL     1      20.924   3.187  51.457  1.00  0.00     0.087 A 
HETATM    3 CL1  UNL     1      19.455   3.867  50.793  1.00  0.00    -0.080 Cl
HETATM    4  C9  UNL     1      21.294   1.858  51.648  1.00  0.00     0.126 A 
HETATM    5  N2  UNL     1      22.530   1.791  52.198  1.00  0.00    -0.296 N 
HETATM    6  C10 UNL     1      23.256   0.720  52.538  1.00  0.00     0.235 A 
HETATM    7  N3  UNL     1      24.489   0.945  53.076  1.00  0.00    -0.057 NA
HETATM    8  C11 UNL     1      24.929   2.224  53.246  1.00  0.00     0.730 A 
HETATM    9  N7  UNL     1      24.162   3.267  52.890  1.00  0.00    -0.041 NA
HETATM   10  C16 UNL     1      22.934   3.081  52.352  1.00  0.00     0.189 A 
ENDROOT
BRANCH   1  11
HETATM   11  O3  UNL     1      22.166   5.339  51.966  1.00  0.00    -0.336 OA
BRANCH  11  12
HETATM   12  C6  UNL     1      22.567   6.111  50.877  1.00  0.00     0.177 C 
HETATM   13  C5  UNL     1      24.013   6.536  51.096  1.00  0.00     0.167 C 
HETATM   14  C4  UNL     1      24.045   8.006  50.664  1.00  0.00     0.160 C 
HETATM   15  N1  UNL     1      22.795   8.165  49.903  1.00  0.00    -0.344 N 
HETATM   16  C3  UNL     1      22.320   8.741  48.667  1.00  0.00     0.242 C 
HETATM   17  C17 UNL     1      21.872   7.479  50.819  1.00  0.00     0.161 C 
HETATM   18  O1  UNL     1      21.248   8.867  48.030  1.00  0.00    -0.268 OA
BRANCH  13  19
HETATM   19  O2  UNL     1      24.301   6.518  52.478  1.00  0.00    -0.391 OA
HETATM   20  H7  UNL     1      24.432   5.564  52.736  1.00  0.00     0.210 HD
ENDBRANCH  13  19
BRANCH  16  21
HETATM   21  C2  UNL     1      23.380   9.375  47.911  1.00  0.00     0.064 C 
HETATM   22  C1  UNL     1      24.479   9.335  47.190  1.00  0.00     0.017 C 
ENDBRANCH  16  21
ENDBRANCH  11  12
ENDBRANCH   1  11
BRANCH   8  23
HETATM   23  N4  UNL     1      26.211   2.545  53.796  1.00  0.00    -0.185 N 
HETATM   24  H11 UNL     1      26.573   3.490  54.062  1.00  0.00     0.184 HD
BRANCH  23  25
HETATM   25  C12 UNL     1      27.057   1.424  53.991  1.00  0.00     0.085 A 
HETATM   26  C13 UNL     1      26.892   0.421  54.945  1.00  0.00     0.170 A 
HETATM   27  N5  UNL     1      27.902  -0.485  54.822  1.00  0.00    -0.183 NA
HETATM   28  N6  UNL     1      28.700  -0.099  53.832  1.00  0.00    -0.283 N 
HETATM   29  C14 UNL     1      29.873  -0.871  53.461  1.00  0.00     0.179 C 
HETATM   30  C15 UNL     1      28.215   1.042  53.317  1.00  0.00     0.143 A 
ENDBRANCH  23  25
ENDBRANCH   8  23
TORSDOF 6
ENDMDL
MODEL 8
REMARK VINA RESULT:      -7.6      2.754      6.672
REMARK  6 active torsions:
REMARK  status: ('A' for Active; 'I' for Inactive)
REMARK    1  A    between atoms: C2_2  and  C3_3 
REMARK       I    between atoms: C3_3  and  N1_5 
REMARK    2  A    between atoms: C5_7  and  O2_8 
REMARK    3  A    between atoms: C6_9  and  O3_10 
REMARK    4  A    between atoms: O3_10  and  C7_11 
REMARK    5  A    between atoms: C11_18  and  N4_19 
REMARK    6  A    between atoms: N4_19  and  C12_20 
ROOT
HETATM    1  C7  UNL     1      26.284   0.656  52.765  1.00  0.00     0.139 A 
HETATM    2  C8  UNL     1      27.329   0.700  53.675  1.00  0.00     0.087 A 
HETATM    3 CL1  UNL     1      28.895   1.379  53.290  1.00  0.00    -0.080 Cl
HETATM    4  C9  UNL     1      26.862   0.123  54.854  1.00  0.00     0.126 A 
HETATM    5  N2  UNL     1      25.576  -0.272  54.704  1.00  0.00    -0.296 N 
HETATM    6  C10 UNL     1      24.757  -0.862  55.583  1.00  0.00     0.235 A 
HETATM    7  N3  UNL     1      23.491  -1.150  55.162  1.00  0.00    -0.057 NA
HETATM    8  C11 UNL     1      23.114  -0.835  53.890  1.00  0.00     0.730 A 
HETATM    9  N7  UNL     1      23.973  -0.243  53.045  1.00  0.00    -0.041 NA
HETATM   10  C16 UNL     1      25.235   0.058  53.429  1.00  0.00     0.189 A 
ENDROOT
BRANCH   1  11
HETATM   11  O3  UNL     1      26.172   1.079  51.450  1.00  0.00    -0.336 OA
BRANCH  11  12
HETATM   12  C6  UNL     1      26.328   2.405  51.047  1.00  0.00     0.177 C 
HETATM   13  C5  UNL     1      24.963   3.078  51.073  1.00  0.00     0.167 C 
HETATM   14  C4  UNL     1      24.928   3.914  49.788  1.00  0.00     0.160 C 
HETATM   15  N1  UNL     1      26.340   3.961  49.375  1.00  0.00    -0.344 N 
HETATM   16  C3  UNL     1      27.321   4.909  48.901  1.00  0.00     0.242 C 
HETATM   17  C17 UNL     1      26.688   2.544  49.561  1.00  0.00     0.161 C 
HETATM   18  O1  UNL     1      28.525   4.933  48.553  1.00  0.00    -0.268 OA
BRANCH  13  19
HETATM   19  O2  UNL     1      23.955   2.098  50.942  1.00  0.00    -0.391 OA
HETATM   20  H7  UNL     1      23.129   2.567  50.643  1.00  0.00     0.210 HD
ENDBRANCH  13  19
BRANCH  16  21
HETATM   21  C2  UNL     1      26.780   6.247  48.779  1.00  0.00     0.064 C 
HETATM   22  C1  UNL     1      26.297   7.246  48.074  1.00  0.00     0.017 C 
ENDBRANCH  16  21
ENDBRANCH  11  12
ENDBRANCH   1  11
BRANCH   8  23
HETATM   23  N4  UNL     1      21.804  -1.096  53.375  1.00  0.00    -0.185 N 
HETATM   24  H11 UNL     1      21.319  -2.020  53.304  1.00  0.00     0.184 HD
BRANCH  23  25
HETATM   25  C12 UNL     1      21.116   0.058  52.921  1.00  0.00     0.085 A 
HETATM   26  C13 UNL     1      20.753   1.160  53.693  1.00  0.00     0.170 A 
HETATM   27  N5  UNL     1      20.112   2.067  52.906  1.00  0.00    -0.183 NA
HETATM   28  N6  UNL     1      20.051   1.588  51.669  1.00  0.00    -0.283 N 
HETATM   29  C14 UNL     1      19.419   2.337  50.596  1.00  0.00     0.179 C 
HETATM   30  C15 UNL     1      20.647   0.385  51.651  1.00  0.00     0.143 A 
ENDBRANCH  23  25
ENDBRANCH   8  23
TORSDOF 6
ENDMDL
MODEL 9
REMARK VINA RESULT:      -7.6      2.903      6.297
REMARK  6 active torsions:
REMARK  status: ('A' for Active; 'I' for Inactive)
REMARK    1  A    between atoms: C2_2  and  C3_3 
REMARK       I    between atoms: C3_3  and  N1_5 
REMARK    2  A    between atoms: C5_7  and  O2_8 
REMARK    3  A    between atoms: C6_9  and  O3_10 
REMARK    4  A    between atoms: O3_10  and  C7_11 
REMARK    5  A    between atoms: C11_18  and  N4_19 
REMARK    6  A    between atoms: N4_19  and  C12_20 
ROOT
HETATM    1  C7  UNL     1      23.075   4.313  50.821  1.00  0.00     0.139 A 
HETATM    2  C8  UNL     1      22.091   3.685  50.073  1.00  0.00     0.087 A 
HETATM    3 CL1  UNL     1      21.138   4.521  48.867  1.00  0.00    -0.080 Cl
HETATM    4  C9  UNL     1      22.058   2.355  50.483  1.00  0.00     0.126 A 
HETATM    5  N2  UNL     1      22.979   2.141  51.452  1.00  0.00    -0.296 N 
HETATM    6  C10 UNL     1      23.277   1.016  52.113  1.00  0.00     0.235 A 
HETATM    7  N3  UNL     1      24.268   1.084  53.049  1.00  0.00    -0.057 NA
HETATM    8  C11 UNL     1      24.905   2.269  53.273  1.00  0.00     0.730 A 
HETATM    9  N7  UNL     1      24.569   3.371  52.584  1.00  0.00    -0.041 NA
HETATM   10  C16 UNL     1      23.592   3.339  51.649  1.00  0.00     0.189 A 
ENDROOT
BRANCH   1  11
HETATM   11  O3  UNL     1      23.544   5.616  50.842  1.00  0.00    -0.336 OA
BRANCH  11  12
HETATM   12  C6  UNL     1      24.798   5.996  50.365  1.00  0.00     0.177 C 
HETATM   13  C5  UNL     1      24.696   7.415  49.822  1.00  0.00     0.167 C 
HETATM   14  C4  UNL     1      25.501   7.381  48.518  1.00  0.00     0.160 C 
HETATM   15  N1  UNL     1      26.280   6.137  48.631  1.00  0.00    -0.344 N 
HETATM   16  C3  UNL     1      27.624   5.653  48.427  1.00  0.00     0.242 C 
HETATM   17  C17 UNL     1      25.216   5.235  49.098  1.00  0.00     0.161 C 
HETATM   18  O1  UNL     1      28.274   4.586  48.530  1.00  0.00    -0.268 OA
BRANCH  13  19
HETATM   19  O2  UNL     1      23.358   7.683  49.460  1.00  0.00    -0.391 OA
HETATM   20  H7  UNL     1      22.854   6.828  49.552  1.00  0.00     0.210 HD
ENDBRANCH  13  19
BRANCH  16  21
HETATM   21  C2  UNL     1      28.520   6.693  47.961  1.00  0.00     0.064 C 
HETATM   22  C1  UNL     1      28.980   7.499  47.031  1.00  0.00     0.017 C 
ENDBRANCH  16  21
ENDBRANCH  11  12
ENDBRANCH   1  11
BRANCH   8  23
HETATM   23  N4  UNL     1      25.959   2.422  54.230  1.00  0.00    -0.185 N 
HETATM   24  H11 UNL     1      25.937   2.971  55.120  1.00  0.00     0.184 HD
BRANCH  23  25
HETATM   25  C12 UNL     1      27.152   1.731  53.899  1.00  0.00     0.085 A 
HETATM   26  C13 UNL     1      28.258   2.263  53.239  1.00  0.00     0.170 A 
HETATM   27  N5  UNL     1      29.208   1.296  53.104  1.00  0.00    -0.183 NA
HETATM   28  N6  UNL     1      28.751   0.174  53.649  1.00  0.00    -0.283 N 
HETATM   29  C14 UNL     1      29.547  -1.042  53.659  1.00  0.00     0.179 C 
HETATM   30  C15 UNL     1      27.521   0.408  54.133  1.00  0.00     0.143 A 
ENDBRANCH  23  25
ENDBRANCH   8  23
TORSDOF 6
ENDMDL
