MODEL 1
REMARK VINA RESULT:      -7.1      0.000      0.000
REMARK  6 active torsions:
REMARK  status: ('A' for Active; 'I' for Inactive)
REMARK    1  A    between atoms: C2_2  and  O1_3 
REMARK    2  A    between atoms: O1_3  and  C3_4 
REMARK    3  A    between atoms: C13_16  and  N3_17 
REMARK       I    between atoms: N3_17  and  C14_18 
REMARK    4  A    between atoms: C14_18  and  C15_20 
REMARK    5  A    between atoms: C16_21  and  C17_22 
REMARK    6  A    between atoms: C17_22  and  N4_23 
ROOT
HETATM    1  C3  UNL     1      23.472   3.251  50.867  1.00  0.00     0.097 C 
HETATM    2  C4  UNL     1      23.069   4.522  50.697  1.00  0.00     0.071 C 
HETATM    3  C5  UNL     1      23.964   5.674  50.449  1.00  0.00     0.066 A 
HETATM    4  N1  UNL     1      23.391   6.818  50.805  1.00  0.00    -0.259 NA
HETATM    5  C6  UNL     1      24.053   7.977  50.655  1.00  0.00     0.140 A 
HETATM    6  C7  UNL     1      25.335   7.960  50.127  1.00  0.00     0.062 A 
HETATM    7  C8  UNL     1      26.084   9.175  49.947  1.00  0.00     0.101 C 
HETATM    8  N2  UNL     1      26.695  10.139  49.791  1.00  0.00    -0.191 NA
HETATM    9  C9  UNL     1      25.961   6.769  49.743  1.00  0.00     0.034 A 
HETATM   10  C10 UNL     1      25.231   5.614  49.922  1.00  0.00    -0.024 A 
HETATM   11  C11 UNL     1      26.023   4.465  49.476  1.00  0.00     0.070 C 
HETATM   12  C12 UNL     1      25.850   3.236  50.256  1.00  0.00     0.010 C 
HETATM   13  C13 UNL     1      24.814   2.679  50.860  1.00  0.00     0.065 C 
ENDROOT
BRANCH   1  14
HETATM   14  O1  UNL     1      22.368   2.440  51.077  1.00  0.00    -0.349 OA
BRANCH  14  15
HETATM   15  C2  UNL     1      21.535   2.444  52.191  1.00  0.00     0.171 C 
HETATM   16  C1  UNL     1      21.428   1.123  52.882  1.00  0.00     0.034 C 
ENDBRANCH  14  15
ENDBRANCH   1  14
BRANCH  13  17
HETATM   17  N3  UNL     1      24.886   1.462  51.569  1.00  0.00    -0.321 N 
HETATM   18  C14 UNL     1      25.143   1.444  52.988  1.00  0.00     0.245 C 
HETATM   19  O2  UNL     1      25.279   2.608  53.435  1.00  0.00    -0.268 OA
HETATM   20  H12 UNL     1      24.750   0.539  51.059  1.00  0.00     0.169 HD
BRANCH  18  21
HETATM   21  C15 UNL     1      25.223   0.216  53.739  1.00  0.00     0.072 C 
HETATM   22  C16 UNL     1      26.246  -0.596  53.754  1.00  0.00     0.008 C 
BRANCH  22  23
HETATM   23  C17 UNL     1      27.560  -0.613  53.112  1.00  0.00     0.299 C 
BRANCH  23  24
HETATM   24  N4  UNL     1      28.643  -0.315  54.029  1.00  0.00     0.083 N 
HETATM   25  C18 UNL     1      28.876   1.132  54.100  1.00  0.00     0.309 C 
HETATM   26  C19 UNL     1      29.869  -0.960  53.670  1.00  0.00     0.309 C 
ENDBRANCH  23  24
ENDBRANCH  22  23
ENDBRANCH  18  21
ENDBRANCH  13  17
TORSDOF 6
ENDMDL
MODEL 2
REMARK VINA RESULT:      -7.0      3.143      6.911
REMARK  6 active torsions:
REMARK  status: ('A' for Active; 'I' for Inactive)
REMARK    1  A    between atoms: C2_2  and  O1_3 
REMARK    2  A    between atoms: O1_3  and  C3_4 
REMARK    3  A    between atoms: C13_16  and  N3_17 
REMARK       I    between atoms: N3_17  and  C14_18 
REMARK    4  A    between atoms: C14_18  and  C15_20 
REMARK    5  A    between atoms: C16_21  and  C17_22 
REMARK    6  A    between atoms: C17_22  and  N4_23 
ROOT
HETATM    1  C3  UNL     1      22.753   1.875  52.234  1.00  0.00     0.097 C 
HETATM    2  C4  UNL     1      21.418   1.822  52.096  1.00  0.00     0.071 C 
HETATM    3  C5  UNL     1      20.561   0.697  52.532  1.00  0.00     0.066 A 
HETATM    4  N1  UNL     1      19.415   0.673  51.861  1.00  0.00    -0.259 NA
HETATM    5  C6  UNL     1      18.505  -0.281  52.118  1.00  0.00     0.140 A 
HETATM    6  C7  UNL     1      18.778  -1.232  53.089  1.00  0.00     0.062 A 
HETATM    7  C8  UNL     1      17.835  -2.273  53.400  1.00  0.00     0.101 C 
HETATM    8  N2  UNL     1      17.089  -3.110  53.666  1.00  0.00    -0.191 NA
HETATM    9  C9  UNL     1      19.977  -1.229  53.811  1.00  0.00     0.034 A 
HETATM   10  C10 UNL     1      20.869  -0.226  53.501  1.00  0.00    -0.024 A 
HETATM   11  C11 UNL     1      22.063  -0.363  54.338  1.00  0.00     0.070 C 
HETATM   12  C12 UNL     1      23.333  -0.012  53.693  1.00  0.00     0.010 C 
HETATM   13  C13 UNL     1      23.681   0.908  52.811  1.00  0.00     0.065 C 
ENDROOT
BRANCH   1  14
HETATM   14  O1  UNL     1      23.224   3.071  51.716  1.00  0.00    -0.349 OA
BRANCH  14  15
HETATM   15  C2  UNL     1      23.173   3.478  50.386  1.00  0.00     0.171 C 
HETATM   16  C1  UNL     1      24.512   3.617  49.737  1.00  0.00     0.034 C 
ENDBRANCH  14  15
ENDBRANCH   1  14
BRANCH  13  17
HETATM   17  N3  UNL     1      24.995   1.063  52.322  1.00  0.00    -0.321 N 
HETATM   18  C14 UNL     1      25.947   1.903  53.005  1.00  0.00     0.245 C 
HETATM   19  O2  UNL     1      25.436   2.426  54.023  1.00  0.00    -0.268 OA
HETATM   20  H12 UNL     1      25.298   0.556  51.437  1.00  0.00     0.169 HD
BRANCH  18  21
HETATM   21  C15 UNL     1      27.296   2.080  52.529  1.00  0.00     0.072 C 
HETATM   22  C16 UNL     1      28.372   1.641  53.127  1.00  0.00     0.008 C 
BRANCH  22  23
HETATM   23  C17 UNL     1      28.639   0.892  54.354  1.00  0.00     0.299 C 
BRANCH  23  24
HETATM   24  N4  UNL     1      28.971  -0.498  54.109  1.00  0.00     0.083 N 
HETATM   25  C18 UNL     1      30.302  -0.611  53.503  1.00  0.00     0.309 C 
HETATM   26  C19 UNL     1      28.023  -1.155  53.262  1.00  0.00     0.309 C 
ENDBRANCH  23  24
ENDBRANCH  22  23
ENDBRANCH  18  21
ENDBRANCH  13  17
TORSDOF 6
ENDMDL
MODEL 3
REMARK VINA RESULT:      -7.0      2.180      7.741
REMARK  6 active torsions:
REMARK  status: ('A' for Active; 'I' for Inactive)
REMARK    1  A    between atoms: C2_2  and  O1_3 
REMARK    2  A    between atoms: O1_3  and  C3_4 
REMARK    3  A    between atoms: C13_16  and  N3_17 
REMARK       I    between atoms: N3_17  and  C14_18 
REMARK    4  A    between atoms: C14_18  and  C15_20 
REMARK    5  A    between atoms: C16_21  and  C17_22 
REMARK    6  A    between atoms: C17_22  and  N4_23 
ROOT
HETATM    1  C3  UNL     1      25.801   4.233  49.659  1.00  0.00     0.097 C 
HETATM    2  C4  UNL     1      26.677   3.425  50.280  1.00  0.00     0.071 C 
HETATM    3  C5  UNL     1      26.341   2.479  51.366  1.00  0.00     0.066 A 
HETATM    4  N1  UNL     1      27.405   2.193  52.106  1.00  0.00    -0.259 NA
HETATM    5  C6  UNL     1      27.295   1.348  53.145  1.00  0.00     0.140 A 
HETATM    6  C7  UNL     1      26.061   0.785  53.431  1.00  0.00     0.062 A 
HETATM    7  C8  UNL     1      25.894  -0.125  54.532  1.00  0.00     0.101 C 
HETATM    8  N2  UNL     1      25.743  -0.859  55.407  1.00  0.00    -0.191 NA
HETATM    9  C9  UNL     1      24.924   1.069  52.667  1.00  0.00     0.034 A 
HETATM   10  C10 UNL     1      25.101   1.942  51.616  1.00  0.00    -0.024 A 
HETATM   11  C11 UNL     1      23.824   2.134  50.924  1.00  0.00     0.070 C 
HETATM   12  C12 UNL     1      23.584   3.482  50.400  1.00  0.00     0.010 C 
HETATM   13  C13 UNL     1      24.366   4.402  49.862  1.00  0.00     0.065 C 
ENDROOT
BRANCH   1  14
HETATM   14  O1  UNL     1      26.462   4.979  48.696  1.00  0.00    -0.349 OA
BRANCH  14  15
HETATM   15  C2  UNL     1      27.840   5.106  48.546  1.00  0.00     0.171 C 
HETATM   16  C1  UNL     1      28.282   6.446  48.051  1.00  0.00     0.034 C 
ENDBRANCH  14  15
ENDBRANCH   1  14
BRANCH  13  17
HETATM   17  N3  UNL     1      23.902   5.658  49.420  1.00  0.00    -0.321 N 
HETATM   18  C14 UNL     1      23.835   6.784  50.319  1.00  0.00     0.245 C 
HETATM   19  O2  UNL     1      24.231   6.466  51.466  1.00  0.00    -0.268 OA
HETATM   20  H12 UNL     1      23.596   5.788  48.410  1.00  0.00     0.169 HD
BRANCH  18  21
HETATM   21  C15 UNL     1      23.366   8.079  49.897  1.00  0.00     0.072 C 
HETATM   22  C16 UNL     1      24.037   8.922  49.158  1.00  0.00     0.008 C 
BRANCH  22  23
HETATM   23  C17 UNL     1      25.359   8.922  48.531  1.00  0.00     0.299 C 
BRANCH  23  24
HETATM   24  N4  UNL     1      26.308   9.783  49.209  1.00  0.00     0.083 N 
HETATM   25  C18 UNL     1      27.258  10.358  48.251  1.00  0.00     0.309 C 
HETATM   26  C19 UNL     1      27.042   9.104  50.234  1.00  0.00     0.309 C 
ENDBRANCH  23  24
ENDBRANCH  22  23
ENDBRANCH  18  21
ENDBRANCH  13  17
TORSDOF 6
ENDMDL
MODEL 4
REMARK VINA RESULT:      -7.0      2.340      7.875
REMARK  6 active torsions:
REMARK  status: ('A' for Active; 'I' for Inactive)
REMARK    1  A    between atoms: C2_2  and  O1_3 
REMARK    2  A    between atoms: O1_3  and  C3_4 
REMARK    3  A    between atoms: C13_16  and  N3_17 
REMARK       I    between atoms: N3_17  and  C14_18 
REMARK    4  A    between atoms: C14_18  and  C15_20 
REMARK    5  A    between atoms: C16_21  and  C17_22 
REMARK    6  A    between atoms: C17_22  and  N4_23 
ROOT
HETATM    1  C3  UNL     1      24.962   3.732  51.226  1.00  0.00     0.097 C 
HETATM    2  C4  UNL     1      25.220   2.441  51.496  1.00  0.00     0.071 C 
HETATM    3  C5  UNL     1      24.329   1.534  52.252  1.00  0.00     0.066 A 
HETATM    4  N1  UNL     1      25.005   0.523  52.785  1.00  0.00    -0.259 NA
HETATM    5  C6  UNL     1      24.363  -0.407  53.511  1.00  0.00     0.140 A 
HETATM    6  C7  UNL     1      22.993  -0.296  53.693  1.00  0.00     0.062 A 
HETATM    7  C8  UNL     1      22.261  -1.267  54.462  1.00  0.00     0.101 C 
HETATM    8  N2  UNL     1      21.660  -2.039  55.070  1.00  0.00    -0.191 NA
HETATM    9  C9  UNL     1      22.257   0.758  53.142  1.00  0.00     0.034 A 
HETATM   10  C10 UNL     1      22.972   1.680  52.409  1.00  0.00    -0.024 A 
HETATM   11  C11 UNL     1      22.061   2.711  51.905  1.00  0.00     0.070 C 
HETATM   12  C12 UNL     1      22.612   4.069  51.850  1.00  0.00     0.010 C 
HETATM   13  C13 UNL     1      23.809   4.555  51.574  1.00  0.00     0.065 C 
ENDROOT
BRANCH   1  14
HETATM   14  O1  UNL     1      26.013   4.272  50.502  1.00  0.00    -0.349 OA
BRANCH  14  15
HETATM   15  C2  UNL     1      26.600   3.732  49.362  1.00  0.00     0.171 C 
HETATM   16  C1  UNL     1      27.553   4.651  48.669  1.00  0.00     0.034 C 
ENDBRANCH  14  15
ENDBRANCH   1  14
BRANCH  13  17
HETATM   17  N3  UNL     1      24.114   5.933  51.584  1.00  0.00    -0.321 N 
HETATM   18  C14 UNL     1      23.846   6.761  50.434  1.00  0.00     0.245 C 
HETATM   19  O2  UNL     1      23.339   6.089  49.505  1.00  0.00    -0.268 OA
HETATM   20  H12 UNL     1      24.546   6.377  52.449  1.00  0.00     0.169 HD
BRANCH  18  21
HETATM   21  C15 UNL     1      24.146   8.170  50.415  1.00  0.00     0.072 C 
HETATM   22  C16 UNL     1      25.317   8.691  50.161  1.00  0.00     0.008 C 
BRANCH  22  23
HETATM   23  C17 UNL     1      26.637   8.153  49.834  1.00  0.00     0.299 C 
BRANCH  23  24
HETATM   24  N4  UNL     1      27.319   8.911  48.802  1.00  0.00     0.083 N 
HETATM   25  C18 UNL     1      28.770   8.719  48.895  1.00  0.00     0.309 C 
HETATM   26  C19 UNL     1      27.036  10.313  48.864  1.00  0.00     0.309 C 
ENDBRANCH  23  24
ENDBRANCH  22  23
ENDBRANCH  18  21
ENDBRANCH  13  17
TORSDOF 6
ENDMDL
MODEL 5
REMARK VINA RESULT:      -7.0      2.139      2.876
REMARK  6 active torsions:
REMARK  status: ('A' for Active; 'I' for Inactive)
REMARK    1  A    between atoms: C2_2  and  O1_3 
REMARK    2  A    between atoms: O1_3  and  C3_4 
REMARK    3  A    between atoms: C13_16  and  N3_17 
REMARK       I    between atoms: N3_17  and  C14_18 
REMARK    4  A    between atoms: C14_18  and  C15_20 
REMARK    5  A    between atoms: C16_21  and  C17_22 
REMARK    6  A    between atoms: C17_22  and  N4_23 
ROOT
HETATM    1  C3  UNL     1      24.553   4.968  50.857  1.00  0.00     0.097 C 
HETATM    2  C4  UNL     1      24.904   6.105  50.232  1.00  0.00     0.071 C 
HETATM    3  C5  UNL     1      26.175   6.322  49.508  1.00  0.00     0.066 A 
HETATM    4  N1  UNL     1      26.473   7.614  49.427  1.00  0.00    -0.259 NA
HETATM    5  C6  UNL     1      27.596   8.007  48.802  1.00  0.00     0.140 A 
HETATM    6  C7  UNL     1      28.432   7.051  48.249  1.00  0.00     0.062 A 
HETATM    7  C8  UNL     1      29.645   7.423  47.570  1.00  0.00     0.101 C 
HETATM    8  N2  UNL     1      30.617   7.705  47.019  1.00  0.00    -0.191 NA
HETATM    9  C9  UNL     1      28.142   5.684  48.319  1.00  0.00     0.034 A 
HETATM   10  C10 UNL     1      26.977   5.344  48.972  1.00  0.00    -0.024 A 
HETATM   11  C11 UNL     1      26.821   3.887  48.959  1.00  0.00     0.070 C 
HETATM   12  C12 UNL     1      26.219   3.304  50.162  1.00  0.00     0.010 C 
HETATM   13  C13 UNL     1      25.273   3.707  50.993  1.00  0.00     0.065 C 
ENDROOT
BRANCH   1  14
HETATM   14  O1  UNL     1      23.299   5.122  51.427  1.00  0.00    -0.349 OA
BRANCH  14  15
HETATM   15  C2  UNL     1      22.073   4.944  50.795  1.00  0.00     0.171 C 
HETATM   16  C1  UNL     1      21.056   4.222  51.620  1.00  0.00     0.034 C 
ENDBRANCH  14  15
ENDBRANCH   1  14
BRANCH  13  17
HETATM   17  N3  UNL     1      24.848   2.961  52.112  1.00  0.00    -0.321 N 
HETATM   18  C14 UNL     1      23.930   1.858  51.964  1.00  0.00     0.245 C 
HETATM   19  O2  UNL     1      23.608   1.700  50.763  1.00  0.00    -0.268 OA
HETATM   20  H12 UNL     1      25.204   3.207  53.084  1.00  0.00     0.169 HD
BRANCH  18  21
HETATM   21  C15 UNL     1      23.478   1.078  53.089  1.00  0.00     0.072 C 
HETATM   22  C16 UNL     1      24.074   0.015  53.559  1.00  0.00     0.008 C 
BRANCH  22  23
HETATM   23  C17 UNL     1      25.279  -0.736  53.205  1.00  0.00     0.299 C 
BRANCH  23  24
HETATM   24  N4  UNL     1      26.503  -0.033  53.535  1.00  0.00     0.083 N 
HETATM   25  C18 UNL     1      27.674  -0.823  53.139  1.00  0.00     0.309 C 
HETATM   26  C19 UNL     1      26.608   0.278  54.928  1.00  0.00     0.309 C 
ENDBRANCH  23  24
ENDBRANCH  22  23
ENDBRANCH  18  21
ENDBRANCH  13  17
TORSDOF 6
ENDMDL
MODEL 6
REMARK VINA RESULT:      -6.8      2.550      7.954
REMARK  6 active torsions:
REMARK  status: ('A' for Active; 'I' for Inactive)
REMARK    1  A    between atoms: C2_2  and  O1_3 
REMARK    2  A    between atoms: O1_3  and  C3_4 
REMARK    3  A    between atoms: C13_16  and  N3_17 
REMARK       I    between atoms: N3_17  and  C14_18 
REMARK    4  A    between atoms: C14_18  and  C15_20 
REMARK    5  A    between atoms: C16_21  and  C17_22 
REMARK    6  A    between atoms: C17_22  and  N4_23 
ROOT
HETATM    1  C3  UNL     1      25.820   4.221  49.663  1.00  0.00     0.097 C 
HETATM    2  C4  UNL     1      26.693   3.420  50.296  1.00  0.00     0.071 C 
HETATM    3  C5  UNL     1      26.350   2.478  51.384  1.00  0.00     0.066 A 
HETATM    4  N1  UNL     1      27.408   2.199  52.136  1.00  0.00    -0.259 NA
HETATM    5  C6  UNL     1      27.291   1.359  53.178  1.00  0.00     0.140 A 
HETATM    6  C7  UNL     1      26.057   0.793  53.454  1.00  0.00     0.062 A 
HETATM    7  C8  UNL     1      25.882  -0.112  54.559  1.00  0.00     0.101 C 
HETATM    8  N2  UNL     1      25.726  -0.843  55.436  1.00  0.00    -0.191 NA
HETATM    9  C9  UNL     1      24.926   1.069  52.678  1.00  0.00     0.034 A 
HETATM   10  C10 UNL     1      25.110   1.937  51.625  1.00  0.00    -0.024 A 
HETATM   11  C11 UNL     1      23.839   2.120  50.919  1.00  0.00     0.070 C 
HETATM   12  C12 UNL     1      23.599   3.465  50.386  1.00  0.00     0.010 C 
HETATM   13  C13 UNL     1      24.383   4.385  49.851  1.00  0.00     0.065 C 
ENDROOT
BRANCH   1  14
HETATM   14  O1  UNL     1      26.488   4.966  48.703  1.00  0.00    -0.349 OA
BRANCH  14  15
HETATM   15  C2  UNL     1      27.866   5.065  48.541  1.00  0.00     0.171 C 
HETATM   16  C1  UNL     1      28.335   6.412  48.095  1.00  0.00     0.034 C 
ENDBRANCH  14  15
ENDBRANCH   1  14
BRANCH  13  17
HETATM   17  N3  UNL     1      23.918   5.638  49.398  1.00  0.00    -0.321 N 
HETATM   18  C14 UNL     1      23.843   6.769  50.291  1.00  0.00     0.245 C 
HETATM   19  O2  UNL     1      24.233   6.459  51.441  1.00  0.00    -0.268 OA
HETATM   20  H12 UNL     1      23.616   5.761  48.386  1.00  0.00     0.169 HD
BRANCH  18  21
HETATM   21  C15 UNL     1      23.373   8.060  49.857  1.00  0.00     0.072 C 
HETATM   22  C16 UNL     1      22.121   8.432  49.809  1.00  0.00     0.008 C 
BRANCH  22  23
HETATM   23  C17 UNL     1      20.842   7.797  50.126  1.00  0.00     0.299 C 
BRANCH  23  24
HETATM   24  N4  UNL     1      20.455   6.787  49.160  1.00  0.00     0.083 N 
HETATM   25  C18 UNL     1      19.205   7.165  48.493  1.00  0.00     0.309 C 
HETATM   26  C19 UNL     1      20.291   5.491  49.745  1.00  0.00     0.309 C 
ENDBRANCH  23  24
ENDBRANCH  22  23
ENDBRANCH  18  21
ENDBRANCH  13  17
TORSDOF 6
ENDMDL
MODEL 7
REMARK VINA RESULT:      -6.8      2.202      7.208
REMARK  6 active torsions:
REMARK  status: ('A' for Active; 'I' for Inactive)
REMARK    1  A    between atoms: C2_2  and  O1_3 
REMARK    2  A    between atoms: O1_3  and  C3_4 
REMARK    3  A    between atoms: C13_16  and  N3_17 
REMARK       I    between atoms: N3_17  and  C14_18 
REMARK    4  A    between atoms: C14_18  and  C15_20 
REMARK    5  A    between atoms: C16_21  and  C17_22 
REMARK    6  A    between atoms: C17_22  and  N4_23 
ROOT
HETATM    1  C3  UNL     1      22.836   1.107  52.805  1.00  0.00     0.097 C 
HETATM    2  C4  UNL     1      23.583   0.018  53.050  1.00  0.00     0.071 C 
HETATM    3  C5  UNL     1      25.056   0.008  53.186  1.00  0.00     0.066 A 
HETATM    4  N1  UNL     1      25.558  -1.195  52.933  1.00  0.00    -0.259 NA
HETATM    5  C6  UNL     1      26.884  -1.399  53.006  1.00  0.00     0.140 A 
HETATM    6  C7  UNL     1      27.713  -0.341  53.347  1.00  0.00     0.062 A 
HETATM    7  C8  UNL     1      29.139  -0.511  53.438  1.00  0.00     0.101 C 
HETATM    8  N2  UNL     1      30.282  -0.630  53.520  1.00  0.00    -0.191 NA
HETATM    9  C9  UNL     1      27.210   0.935  53.619  1.00  0.00     0.034 A 
HETATM   10  C10 UNL     1      25.843   1.081  53.528  1.00  0.00    -0.024 A 
HETATM   11  C11 UNL     1      25.481   2.466  53.839  1.00  0.00     0.070 C 
HETATM   12  C12 UNL     1      24.358   3.014  53.073  1.00  0.00     0.010 C 
HETATM   13  C13 UNL     1      23.231   2.498  52.613  1.00  0.00     0.065 C 
ENDROOT
BRANCH   1  14
HETATM   14  O1  UNL     1      21.499   0.746  52.741  1.00  0.00    -0.349 OA
BRANCH  14  15
HETATM   15  C2  UNL     1      20.695   0.350  53.805  1.00  0.00     0.171 C 
HETATM   16  C1  UNL     1      19.604  -0.600  53.428  1.00  0.00     0.034 C 
ENDBRANCH  14  15
ENDBRANCH   1  14
BRANCH  13  17
HETATM   17  N3  UNL     1      22.276   3.235  51.882  1.00  0.00    -0.321 N 
HETATM   18  C14 UNL     1      22.406   3.409  50.456  1.00  0.00     0.245 C 
HETATM   19  O2  UNL     1      23.434   2.835  50.025  1.00  0.00    -0.268 OA
HETATM   20  H12 UNL     1      21.444   3.673  52.380  1.00  0.00     0.169 HD
BRANCH  18  21
HETATM   21  C15 UNL     1      21.447   4.157  49.683  1.00  0.00     0.072 C 
HETATM   22  C16 UNL     1      21.238   5.443  49.777  1.00  0.00     0.008 C 
BRANCH  22  23
HETATM   23  C17 UNL     1      21.800   6.524  50.585  1.00  0.00     0.299 C 
BRANCH  23  24
HETATM   24  N4  UNL     1      23.128   6.921  50.159  1.00  0.00     0.083 N 
HETATM   25  C18 UNL     1      24.115   6.623  51.202  1.00  0.00     0.309 C 
HETATM   26  C19 UNL     1      23.214   8.311  49.827  1.00  0.00     0.309 C 
ENDBRANCH  23  24
ENDBRANCH  22  23
ENDBRANCH  18  21
ENDBRANCH  13  17
TORSDOF 6
ENDMDL
MODEL 8
REMARK VINA RESULT:      -6.7      2.594      7.590
REMARK  6 active torsions:
REMARK  status: ('A' for Active; 'I' for Inactive)
REMARK    1  A    between atoms: C2_2  and  O1_3 
REMARK    2  A    between atoms: O1_3  and  C3_4 
REMARK    3  A    between atoms: C13_16  and  N3_17 
REMARK       I    between atoms: N3_17  and  C14_18 
REMARK    4  A    between atoms: C14_18  and  C15_20 
REMARK    5  A    between atoms: C16_21  and  C17_22 
REMARK    6  A    between atoms: C17_22  and  N4_23 
ROOT
HETATM    1  C3  UNL     1      23.809   3.660  51.680  1.00  0.00     0.097 C 
HETATM    2  C4  UNL     1      23.880   2.676  52.593  1.00  0.00     0.071 C 
HETATM    3  C5  UNL     1      24.825   1.539  52.548  1.00  0.00     0.066 A 
HETATM    4  N1  UNL     1      24.372   0.505  53.247  1.00  0.00    -0.259 NA
HETATM    5  C6  UNL     1      25.095  -0.625  53.323  1.00  0.00     0.140 A 
HETATM    6  C7  UNL     1      26.313  -0.693  52.663  1.00  0.00     0.062 A 
HETATM    7  C8  UNL     1      27.123  -1.881  52.715  1.00  0.00     0.101 C 
HETATM    8  N2  UNL     1      27.787  -2.822  52.750  1.00  0.00    -0.191 NA
HETATM    9  C9  UNL     1      26.813   0.382  51.920  1.00  0.00     0.034 A 
HETATM   10  C10 UNL     1      26.025   1.511  51.881  1.00  0.00    -0.024 A 
HETATM   11  C11 UNL     1      26.685   2.535  51.068  1.00  0.00     0.070 C 
HETATM   12  C12 UNL     1      25.794   3.377  50.264  1.00  0.00     0.010 C 
HETATM   13  C13 UNL     1      24.587   3.877  50.466  1.00  0.00     0.065 C 
ENDROOT
BRANCH   1  14
HETATM   14  O1  UNL     1      22.812   4.554  52.040  1.00  0.00    -0.349 OA
BRANCH  14  15
HETATM   15  C2  UNL     1      21.476   4.252  52.283  1.00  0.00     0.171 C 
HETATM   16  C1  UNL     1      20.847   3.376  51.248  1.00  0.00     0.034 C 
ENDBRANCH  14  15
ENDBRANCH   1  14
BRANCH  13  17
HETATM   17  N3  UNL     1      23.908   4.680  49.526  1.00  0.00    -0.321 N 
HETATM   18  C14 UNL     1      23.111   4.087  48.479  1.00  0.00     0.245 C 
HETATM   19  O2  UNL     1      23.133   2.836  48.554  1.00  0.00    -0.268 OA
HETATM   20  H12 UNL     1      23.978   5.740  49.581  1.00  0.00     0.169 HD
BRANCH  18  21
HETATM   21  C15 UNL     1      22.407   4.882  47.505  1.00  0.00     0.072 C 
HETATM   22  C16 UNL     1      21.443   5.723  47.771  1.00  0.00     0.008 C 
BRANCH  22  23
HETATM   23  C17 UNL     1      20.758   6.159  48.987  1.00  0.00     0.299 C 
BRANCH  23  24
HETATM   24  N4  UNL     1      21.061   7.530  49.348  1.00  0.00     0.083 N 
HETATM   25  C18 UNL     1      21.971   7.573  50.497  1.00  0.00     0.309 C 
HETATM   26  C19 UNL     1      19.891   8.294  49.660  1.00  0.00     0.309 C 
ENDBRANCH  23  24
ENDBRANCH  22  23
ENDBRANCH  18  21
ENDBRANCH  13  17
TORSDOF 6
ENDMDL
MODEL 9
REMARK VINA RESULT:      -6.6      2.712      4.795
REMARK  6 active torsions:
REMARK  status: ('A' for Active; 'I' for Inactive)
REMARK    1  A    between atoms: C2_2  and  O1_3 
REMARK    2  A    between atoms: O1_3  and  C3_4 
REMARK    3  A    between atoms: C13_16  and  N3_17 
REMARK       I    between atoms: N3_17  and  C14_18 
REMARK    4  A    between atoms: C14_18  and  C15_20 
REMARK    5  A    between atoms: C16_21  and  C17_22 
REMARK    6  A    between atoms: C17_22  and  N4_23 
ROOT
HETATM    1  C3  UNL     1      25.343   3.060  50.162  1.00  0.00     0.097 C 
HETATM    2  C4  UNL     1      26.577   3.567  50.003  1.00  0.00     0.071 C 
HETATM    3  C5  UNL     1      26.909   4.767  49.204  1.00  0.00     0.066 A 
HETATM    4  N1  UNL     1      28.179   4.756  48.817  1.00  0.00    -0.259 NA
HETATM    5  C6  UNL     1      28.666   5.767  48.079  1.00  0.00     0.140 A 
HETATM    6  C7  UNL     1      27.828   6.814  47.729  1.00  0.00     0.062 A 
HETATM    7  C8  UNL     1      28.303   7.919  46.940  1.00  0.00     0.101 C 
HETATM    8  N2  UNL     1      28.669   8.814  46.313  1.00  0.00    -0.191 NA
HETATM    9  C9  UNL     1      26.486   6.851  48.124  1.00  0.00     0.034 A 
HETATM   10  C10 UNL     1      26.046   5.785  48.879  1.00  0.00    -0.024 A 
HETATM   11  C11 UNL     1      24.631   5.974  49.207  1.00  0.00     0.070 C 
HETATM   12  C12 UNL     1      23.821   4.753  49.244  1.00  0.00     0.010 C 
HETATM   13  C13 UNL     1      24.063   3.512  49.630  1.00  0.00     0.065 C 
ENDROOT
BRANCH   1  14
HETATM   14  O1  UNL     1      25.406   1.936  50.971  1.00  0.00    -0.349 OA
BRANCH  14  15
HETATM   15  C2  UNL     1      26.441   1.592  51.835  1.00  0.00     0.171 C 
HETATM   16  C1  UNL     1      26.677   0.120  51.952  1.00  0.00     0.034 C 
ENDBRANCH  14  15
ENDBRANCH   1  14
BRANCH  13  17
HETATM   17  N3  UNL     1      23.106   2.477  49.571  1.00  0.00    -0.321 N 
HETATM   18  C14 UNL     1      22.055   2.380  50.554  1.00  0.00     0.245 C 
HETATM   19  O2  UNL     1      22.142   3.306  51.396  1.00  0.00    -0.268 OA
HETATM   20  H12 UNL     1      23.152   1.751  48.795  1.00  0.00     0.169 HD
BRANCH  18  21
HETATM   21  C15 UNL     1      21.065   1.334  50.520  1.00  0.00     0.072 C 
HETATM   22  C16 UNL     1      21.024   0.305  51.324  1.00  0.00     0.008 C 
BRANCH  22  23
HETATM   23  C17 UNL     1      21.843  -0.167  52.440  1.00  0.00     0.299 C 
BRANCH  23  24
HETATM   24  N4  UNL     1      21.068  -0.827  53.473  1.00  0.00     0.083 N 
HETATM   25  C18 UNL     1      19.650  -0.470  53.361  1.00  0.00     0.309 C 
HETATM   26  C19 UNL     1      21.519  -0.512  54.794  1.00  0.00     0.309 C 
ENDBRANCH  23  24
ENDBRANCH  22  23
ENDBRANCH  18  21
ENDBRANCH  13  17
TORSDOF 6
ENDMDL
