MODEL 1
REMARK VINA RESULT:      -7.9      0.000      0.000
REMARK  0 active torsions:
REMARK  status: ('A' for Active; 'I' for Inactive)
ROOT
HETATM    1  C1  UNL     1      21.139   0.721  51.791  1.00  0.00     0.310 C 
HETATM    2  N1  UNL     1      22.481   1.481  51.727  1.00  0.00     0.094 N 
HETATM    3  C2  UNL     1      23.162   0.945  52.795  1.00  0.00     0.308 C 
HETATM    4  C3  UNL     1      24.621   0.966  53.017  1.00  0.00     0.259 C 
HETATM    5  N2  UNL     1      24.851  -0.300  53.811  1.00  0.00     0.090 N 
HETATM    6  C4  UNL     1      26.224  -0.513  54.087  1.00  0.00     0.270 C 
HETATM    7  C5  UNL     1      26.796  -0.987  52.738  1.00  0.00     0.031 C 
HETATM    8  C6  UNL     1      26.787   0.242  51.890  1.00  0.00     0.016 C 
HETATM    9  C7  UNL     1      25.518   1.013  51.848  1.00  0.00     0.091 C 
HETATM   10  C8  UNL     1      25.972   2.419  51.520  1.00  0.00     0.145 C 
HETATM   11  O1  UNL     1      27.130   2.851  51.484  1.00  0.00    -0.297 OA
HETATM   12  C9  UNL     1      24.854   3.253  51.236  1.00  0.00     0.060 A 
HETATM   13  C10 UNL     1      24.684   2.879  49.940  1.00  0.00     0.030 C 
HETATM   14  C11 UNL     1      23.331   2.527  49.356  1.00  0.00     0.070 A 
HETATM   15  C12 UNL     1      22.033   2.367  48.990  1.00  0.00     0.118 A 
HETATM   16  F1  UNL     1      20.843   1.998  48.410  1.00  0.00    -0.212 F 
HETATM   17  C13 UNL     1      22.084   3.210  49.992  1.00  0.00     0.146 A 
HETATM   18  N3  UNL     1      22.859   4.525  50.093  1.00  0.00    -0.296 NA
HETATM   19  C14 UNL     1      23.719   4.157  51.067  1.00  0.00     0.076 A 
HETATM   20  C15 UNL     1      23.860   3.773  52.465  1.00  0.00     0.045 A 
HETATM   21  C16 UNL     1      22.514   3.954  52.324  1.00  0.00     0.061 A 
HETATM   22  C17 UNL     1      22.043   2.770  51.492  1.00  0.00     0.267 C 
HETATM   23  H7  UNL     1      24.447  -1.110  53.286  1.00  0.00     0.316 HD
ENDROOT
TORSDOF 0
ENDMDL
MODEL 2
REMARK VINA RESULT:      -7.6      2.482      3.750
REMARK  0 active torsions:
REMARK  status: ('A' for Active; 'I' for Inactive)
ROOT
HETATM    1  C1  UNL     1      24.840   6.395  50.098  1.00  0.00     0.310 C 
HETATM    2  N1  UNL     1      24.248   5.005  50.414  1.00  0.00     0.094 N 
HETATM    3  C2  UNL     1      25.379   4.228  50.501  1.00  0.00     0.308 C 
HETATM    4  C3  UNL     1      25.504   2.915  51.166  1.00  0.00     0.259 C 
HETATM    5  N2  UNL     1      26.953   2.906  51.602  1.00  0.00     0.090 N 
HETATM    6  C4  UNL     1      27.280   1.735  52.330  1.00  0.00     0.270 C 
HETATM    7  C5  UNL     1      26.633   1.970  53.707  1.00  0.00     0.031 C 
HETATM    8  C6  UNL     1      25.169   1.832  53.446  1.00  0.00     0.016 C 
HETATM    9  C7  UNL     1      24.620   2.606  52.303  1.00  0.00     0.091 C 
HETATM   10  C8  UNL     1      23.400   1.809  51.891  1.00  0.00     0.145 C 
HETATM   11  O1  UNL     1      23.060   0.689  52.289  1.00  0.00    -0.297 OA
HETATM   12  C9  UNL     1      22.632   2.528  50.933  1.00  0.00     0.060 A 
HETATM   13  C10 UNL     1      21.963   3.323  51.810  1.00  0.00     0.030 C 
HETATM   14  C11 UNL     1      21.805   4.817  51.612  1.00  0.00     0.070 A 
HETATM   15  C12 UNL     1      21.670   6.105  51.204  1.00  0.00     0.118 A 
HETATM   16  F1  UNL     1      21.526   7.468  51.104  1.00  0.00    -0.212 F 
HETATM   17  C13 UNL     1      21.804   5.342  50.147  1.00  0.00     0.146 A 
HETATM   18  N3  UNL     1      20.953   4.145  49.720  1.00  0.00    -0.296 NA
HETATM   19  C14 UNL     1      21.898   3.190  49.857  1.00  0.00     0.076 A 
HETATM   20  C15 UNL     1      23.168   2.675  49.364  1.00  0.00     0.045 A 
HETATM   21  C16 UNL     1      22.959   3.782  48.594  1.00  0.00     0.061 A 
HETATM   22  C17 UNL     1      23.190   4.961  49.528  1.00  0.00     0.267 C 
HETATM   23  H7  UNL     1      27.143   3.763  52.171  1.00  0.00     0.316 HD
ENDROOT
TORSDOF 0
ENDMDL
MODEL 3
REMARK VINA RESULT:      -7.5      2.764      4.199
REMARK  0 active torsions:
REMARK  status: ('A' for Active; 'I' for Inactive)
ROOT
HETATM    1  C1  UNL     1      25.366   2.796  51.852  1.00  0.00     0.310 C 
HETATM    2  N1  UNL     1      23.860   2.501  51.688  1.00  0.00     0.094 N 
HETATM    3  C2  UNL     1      23.798   1.162  51.999  1.00  0.00     0.308 C 
HETATM    4  C3  UNL     1      22.600   0.403  52.410  1.00  0.00     0.259 C 
HETATM    5  N2  UNL     1      23.185  -0.677  53.294  1.00  0.00     0.090 N 
HETATM    6  C4  UNL     1      22.181  -1.504  53.856  1.00  0.00     0.270 C 
HETATM    7  C5  UNL     1      21.561  -0.624  54.957  1.00  0.00     0.031 C 
HETATM    8  C6  UNL     1      20.792   0.411  54.204  1.00  0.00     0.016 C 
HETATM    9  C7  UNL     1      21.513   1.110  53.109  1.00  0.00     0.091 C 
HETATM   10  C8  UNL     1      20.402   1.539  52.174  1.00  0.00     0.145 C 
HETATM   11  O1  UNL     1      19.210   1.217  52.219  1.00  0.00    -0.297 OA
HETATM   12  C9  UNL     1      20.904   2.411  51.167  1.00  0.00     0.060 A 
HETATM   13  C10 UNL     1      20.885   3.554  51.904  1.00  0.00     0.030 C 
HETATM   14  C11 UNL     1      22.049   4.524  51.947  1.00  0.00     0.070 A 
HETATM   15  C12 UNL     1      23.134   5.319  51.765  1.00  0.00     0.118 A 
HETATM   16  F1  UNL     1      24.167   6.218  51.880  1.00  0.00    -0.212 F 
HETATM   17  C13 UNL     1      22.965   4.590  50.690  1.00  0.00     0.146 A 
HETATM   18  N3  UNL     1      21.733   4.489  49.789  1.00  0.00    -0.296 NA
HETATM   19  C14 UNL     1      21.418   3.202  50.052  1.00  0.00     0.076 A 
HETATM   20  C15 UNL     1      21.833   1.812  49.923  1.00  0.00     0.045 A 
HETATM   21  C16 UNL     1      22.862   2.500  49.348  1.00  0.00     0.061 A 
HETATM   22  C17 UNL     1      23.587   3.165  50.508  1.00  0.00     0.267 C 
HETATM   23  H7  UNL     1      23.762  -0.230  54.043  1.00  0.00     0.316 HD
ENDROOT
TORSDOF 0
ENDMDL
MODEL 4
REMARK VINA RESULT:      -7.5      2.019      2.611
REMARK  0 active torsions:
REMARK  status: ('A' for Active; 'I' for Inactive)
ROOT
HETATM    1  C1  UNL     1      20.075   3.095  50.182  1.00  0.00     0.310 C 
HETATM    2  N1  UNL     1      21.384   2.957  50.988  1.00  0.00     0.094 N 
HETATM    3  C2  UNL     1      20.944   2.360  52.146  1.00  0.00     0.308 C 
HETATM    4  C3  UNL     1      21.760   1.616  53.126  1.00  0.00     0.259 C 
HETATM    5  N2  UNL     1      20.769   0.623  53.690  1.00  0.00     0.090 N 
HETATM    6  C4  UNL     1      21.370  -0.253  54.629  1.00  0.00     0.270 C 
HETATM    7  C5  UNL     1      22.184  -1.221  53.752  1.00  0.00     0.031 C 
HETATM    8  C6  UNL     1      23.322  -0.391  53.256  1.00  0.00     0.016 C 
HETATM    9  C7  UNL     1      22.976   0.926  52.661  1.00  0.00     0.091 C 
HETATM   10  C8  UNL     1      24.229   1.748  52.875  1.00  0.00     0.145 C 
HETATM   11  O1  UNL     1      25.222   1.451  53.548  1.00  0.00    -0.297 OA
HETATM   12  C9  UNL     1      24.143   2.983  52.174  1.00  0.00     0.060 A 
HETATM   13  C10 UNL     1      24.516   2.516  50.953  1.00  0.00     0.030 C 
HETATM   14  C11 UNL     1      23.775   2.861  49.677  1.00  0.00     0.070 A 
HETATM   15  C12 UNL     1      23.060   3.375  48.643  1.00  0.00     0.118 A 
HETATM   16  F1  UNL     1      22.410   3.617  47.457  1.00  0.00    -0.212 F 
HETATM   17  C13 UNL     1      23.032   4.229  49.637  1.00  0.00     0.146 A 
HETATM   18  N3  UNL     1      24.207   4.886  50.363  1.00  0.00    -0.296 NA
HETATM   19  C14 UNL     1      24.024   4.308  51.569  1.00  0.00     0.076 A 
HETATM   20  C15 UNL     1      23.151   4.199  52.730  1.00  0.00     0.045 A 
HETATM   21  C16 UNL     1      22.478   5.060  51.912  1.00  0.00     0.061 A 
HETATM   22  C17 UNL     1      21.958   4.195  50.773  1.00  0.00     0.267 C 
HETATM   23  H7  UNL     1      20.338   0.085  52.903  1.00  0.00     0.316 HD
ENDROOT
TORSDOF 0
ENDMDL
MODEL 5
REMARK VINA RESULT:      -7.0      9.215     11.291
REMARK  0 active torsions:
REMARK  status: ('A' for Active; 'I' for Inactive)
ROOT
HETATM    1  C1  UNL     1      34.211   8.074  45.700  1.00  0.00     0.310 C 
HETATM    2  N1  UNL     1      33.237   7.249  46.569  1.00  0.00     0.094 N 
HETATM    3  C2  UNL     1      32.442   8.231  47.113  1.00  0.00     0.308 C 
HETATM    4  C3  UNL     1      31.098   8.059  47.700  1.00  0.00     0.259 C 
HETATM    5  N2  UNL     1      30.449   9.399  47.431  1.00  0.00     0.090 N 
HETATM    6  C4  UNL     1      29.102   9.434  47.869  1.00  0.00     0.270 C 
HETATM    7  C5  UNL     1      28.354   8.605  46.809  1.00  0.00     0.031 C 
HETATM    8  C6  UNL     1      28.782   7.201  47.080  1.00  0.00     0.016 C 
HETATM    9  C7  UNL     1      30.243   6.963  47.212  1.00  0.00     0.091 C 
HETATM   10  C8  UNL     1      30.321   5.730  48.086  1.00  0.00     0.145 C 
HETATM   11  O1  UNL     1      29.399   5.175  48.695  1.00  0.00    -0.297 OA
HETATM   12  C9  UNL     1      31.656   5.239  48.143  1.00  0.00     0.060 A 
HETATM   13  C10 UNL     1      31.636   4.551  46.971  1.00  0.00     0.030 C 
HETATM   14  C11 UNL     1      32.750   4.639  45.946  1.00  0.00     0.070 A 
HETATM   15  C12 UNL     1      33.887   4.755  45.215  1.00  0.00     0.118 A 
HETATM   16  F1  UNL     1      34.842   4.821  44.228  1.00  0.00    -0.212 F 
HETATM   17  C13 UNL     1      34.179   4.955  46.477  1.00  0.00     0.146 A 
HETATM   18  N3  UNL     1      33.939   4.028  47.670  1.00  0.00    -0.296 NA
HETATM   19  C14 UNL     1      33.036   4.795  48.319  1.00  0.00     0.076 A 
HETATM   20  C15 UNL     1      32.810   6.044  49.031  1.00  0.00     0.045 A 
HETATM   21  C16 UNL     1      34.124   6.123  48.670  1.00  0.00     0.061 A 
HETATM   22  C17 UNL     1      34.106   6.358  47.166  1.00  0.00     0.267 C 
HETATM   23  H7  UNL     1      30.514   9.610  46.408  1.00  0.00     0.316 HD
ENDROOT
TORSDOF 0
ENDMDL
MODEL 6
REMARK VINA RESULT:      -6.9      3.355      5.185
REMARK  0 active torsions:
REMARK  status: ('A' for Active; 'I' for Inactive)
ROOT
HETATM    1  C1  UNL     1      23.831   3.898  52.616  1.00  0.00     0.310 C 
HETATM    2  N1  UNL     1      23.509   4.612  51.286  1.00  0.00     0.094 N 
HETATM    3  C2  UNL     1      24.198   5.794  51.423  1.00  0.00     0.308 C 
HETATM    4  C3  UNL     1      24.610   6.711  50.342  1.00  0.00     0.259 C 
HETATM    5  N2  UNL     1      25.867   7.337  50.904  1.00  0.00     0.090 N 
HETATM    6  C4  UNL     1      26.474   8.227  49.984  1.00  0.00     0.270 C 
HETATM    7  C5  UNL     1      27.131   7.291  48.953  1.00  0.00     0.031 C 
HETATM    8  C6  UNL     1      25.977   6.723  48.194  1.00  0.00     0.016 C 
HETATM    9  C7  UNL     1      24.862   6.161  48.999  1.00  0.00     0.091 C 
HETATM   10  C8  UNL     1      23.665   6.293  48.082  1.00  0.00     0.145 C 
HETATM   11  O1  UNL     1      23.600   6.895  47.005  1.00  0.00    -0.297 OA
HETATM   12  C9  UNL     1      22.541   5.606  48.623  1.00  0.00     0.060 A 
HETATM   13  C10 UNL     1      22.879   4.360  48.196  1.00  0.00     0.030 C 
HETATM   14  C11 UNL     1      22.824   3.140  49.094  1.00  0.00     0.070 A 
HETATM   15  C12 UNL     1      22.597   2.160  50.006  1.00  0.00     0.118 A 
HETATM   16  F1  UNL     1      22.607   1.023  50.777  1.00  0.00    -0.212 F 
HETATM   17  C13 UNL     1      21.784   3.158  50.252  1.00  0.00     0.146 A 
HETATM   18  N3  UNL     1      20.759   3.806  49.319  1.00  0.00    -0.296 NA
HETATM   19  C14 UNL     1      21.344   5.019  49.218  1.00  0.00     0.076 A 
HETATM   20  C15 UNL     1      21.718   6.236  49.925  1.00  0.00     0.045 A 
HETATM   21  C16 UNL     1      21.146   5.471  50.900  1.00  0.00     0.061 A 
HETATM   22  C17 UNL     1      22.155   4.365  51.175  1.00  0.00     0.267 C 
HETATM   23  H7  UNL     1      26.532   6.577  51.181  1.00  0.00     0.316 HD
ENDROOT
TORSDOF 0
ENDMDL
MODEL 7
REMARK VINA RESULT:      -6.8      2.457      4.092
REMARK  0 active torsions:
REMARK  status: ('A' for Active; 'I' for Inactive)
ROOT
HETATM    1  C1  UNL     1      21.374   4.760  49.810  1.00  0.00     0.310 C 
HETATM    2  N1  UNL     1      21.549   3.337  50.383  1.00  0.00     0.094 N 
HETATM    3  C2  UNL     1      22.912   3.166  50.308  1.00  0.00     0.308 C 
HETATM    4  C3  UNL     1      23.726   2.191  51.061  1.00  0.00     0.259 C 
HETATM    5  N2  UNL     1      25.057   2.899  51.181  1.00  0.00     0.090 N 
HETATM    6  C4  UNL     1      25.991   2.149  51.938  1.00  0.00     0.270 C 
HETATM    7  C5  UNL     1      25.509   2.328  53.389  1.00  0.00     0.031 C 
HETATM    8  C6  UNL     1      24.258   1.516  53.458  1.00  0.00     0.016 C 
HETATM    9  C7  UNL     1      23.257   1.743  52.384  1.00  0.00     0.091 C 
HETATM   10  C8  UNL     1      22.505   0.431  52.321  1.00  0.00     0.145 C 
HETATM   11  O1  UNL     1      22.784  -0.629  52.893  1.00  0.00    -0.297 OA
HETATM   12  C9  UNL     1      21.363   0.548  51.479  1.00  0.00     0.060 A 
HETATM   13  C10 UNL     1      20.532   1.116  52.392  1.00  0.00     0.030 C 
HETATM   14  C11 UNL     1      19.671   2.324  52.082  1.00  0.00     0.070 A 
HETATM   15  C12 UNL     1      18.896   3.321  51.583  1.00  0.00     0.118 A 
HETATM   16  F1  UNL     1      18.121   4.437  51.378  1.00  0.00    -0.212 F 
HETATM   17  C13 UNL     1      19.219   2.512  50.604  1.00  0.00     0.146 A 
HETATM   18  N3  UNL     1      18.973   1.006  50.489  1.00  0.00    -0.296 NA
HETATM   19  C14 UNL     1      20.263   0.607  50.520  1.00  0.00     0.076 A 
HETATM   20  C15 UNL     1      21.543   0.619  49.826  1.00  0.00     0.045 A 
HETATM   21  C16 UNL     1      20.736   1.357  49.009  1.00  0.00     0.061 A 
HETATM   22  C17 UNL     1      20.520   2.669  49.749  1.00  0.00     0.267 C 
HETATM   23  H7  UNL     1      24.904   3.843  51.607  1.00  0.00     0.316 HD
ENDROOT
TORSDOF 0
ENDMDL
MODEL 8
REMARK VINA RESULT:      -6.8      9.415     11.371
REMARK  0 active torsions:
REMARK  status: ('A' for Active; 'I' for Inactive)
ROOT
HETATM    1  C1  UNL     1      33.153   5.147  44.545  1.00  0.00     0.310 C 
HETATM    2  N1  UNL     1      32.626   5.978  45.735  1.00  0.00     0.094 N 
HETATM    3  C2  UNL     1      32.049   7.052  45.098  1.00  0.00     0.308 C 
HETATM    4  C3  UNL     1      31.041   7.975  45.654  1.00  0.00     0.259 C 
HETATM    5  N2  UNL     1      30.270   8.399  44.424  1.00  0.00     0.090 N 
HETATM    6  C4  UNL     1      29.191   9.260  44.744  1.00  0.00     0.270 C 
HETATM    7  C5  UNL     1      28.139   8.315  45.352  1.00  0.00     0.031 C 
HETATM    8  C6  UNL     1      28.711   7.948  46.682  1.00  0.00     0.016 C 
HETATM    9  C7  UNL     1      30.122   7.483  46.696  1.00  0.00     0.091 C 
HETATM   10  C8  UNL     1      30.591   7.824  48.094  1.00  0.00     0.145 C 
HETATM   11  O1  UNL     1      30.001   8.496  48.947  1.00  0.00    -0.297 OA
HETATM   12  C9  UNL     1      31.870   7.253  48.346  1.00  0.00     0.060 A 
HETATM   13  C10 UNL     1      31.442   6.004  48.667  1.00  0.00     0.030 C 
HETATM   14  C11 UNL     1      32.075   4.747  48.105  1.00  0.00     0.070 A 
HETATM   15  C12 UNL     1      32.841   3.748  47.595  1.00  0.00     0.118 A 
HETATM   16  F1  UNL     1      33.344   2.572  47.091  1.00  0.00    -0.212 F 
HETATM   17  C13 UNL     1      33.580   4.824  47.714  1.00  0.00     0.146 A 
HETATM   18  N3  UNL     1      33.861   5.655  48.967  1.00  0.00    -0.296 NA
HETATM   19  C14 UNL     1      33.235   6.787  48.581  1.00  0.00     0.076 A 
HETATM   20  C15 UNL     1      33.233   7.900  47.642  1.00  0.00     0.045 A 
HETATM   21  C16 UNL     1      34.304   7.154  47.242  1.00  0.00     0.061 A 
HETATM   22  C17 UNL     1      33.702   5.914  46.598  1.00  0.00     0.267 C 
HETATM   23  H7  UNL     1      29.929   7.545  43.924  1.00  0.00     0.316 HD
ENDROOT
TORSDOF 0
ENDMDL
MODEL 9
REMARK VINA RESULT:      -6.7      9.098     10.575
REMARK  0 active torsions:
REMARK  status: ('A' for Active; 'I' for Inactive)
ROOT
HETATM    1  C1  UNL     1      31.518   9.205  44.911  1.00  0.00     0.310 C 
HETATM    2  N1  UNL     1      31.295   8.365  46.187  1.00  0.00     0.094 N 
HETATM    3  C2  UNL     1      31.706   7.117  45.781  1.00  0.00     0.308 C 
HETATM    4  C3  UNL     1      32.109   5.991  46.647  1.00  0.00     0.259 C 
HETATM    5  N2  UNL     1      33.105   5.253  45.781  1.00  0.00     0.090 N 
HETATM    6  C4  UNL     1      33.675   4.144  46.456  1.00  0.00     0.270 C 
HETATM    7  C5  UNL     1      34.668   4.789  47.440  1.00  0.00     0.031 C 
HETATM    8  C6  UNL     1      33.794   5.424  48.470  1.00  0.00     0.016 C 
HETATM    9  C7  UNL     1      32.689   6.283  47.969  1.00  0.00     0.091 C 
HETATM   10  C8  UNL     1      31.664   6.220  49.081  1.00  0.00     0.145 C 
HETATM   11  O1  UNL     1      31.667   5.483  50.073  1.00  0.00    -0.297 OA
HETATM   12  C9  UNL     1      30.620   7.161  48.854  1.00  0.00     0.060 A 
HETATM   13  C10 UNL     1      31.262   8.253  49.348  1.00  0.00     0.030 C 
HETATM   14  C11 UNL     1      31.294   9.586  48.626  1.00  0.00     0.070 A 
HETATM   15  C12 UNL     1      31.110  10.715  47.896  1.00  0.00     0.118 A 
HETATM   16  F1  UNL     1      31.210  11.938  47.275  1.00  0.00    -0.212 F 
HETATM   17  C13 UNL     1      30.088   9.919  47.700  1.00  0.00     0.146 A 
HETATM   18  N3  UNL     1      29.131   9.323  48.733  1.00  0.00    -0.296 NA
HETATM   19  C14 UNL     1      29.476   8.027  48.576  1.00  0.00     0.076 A 
HETATM   20  C15 UNL     1      29.480   6.884  47.674  1.00  0.00     0.045 A 
HETATM   21  C16 UNL     1      28.911   7.873  46.924  1.00  0.00     0.061 A 
HETATM   22  C17 UNL     1      30.053   8.819  46.588  1.00  0.00     0.267 C 
HETATM   23  H7  UNL     1      33.848   5.921  45.470  1.00  0.00     0.316 HD
ENDROOT
TORSDOF 0
ENDMDL
