MODEL 1
REMARK VINA RESULT:      -7.8      0.000      0.000
REMARK  5 active torsions:
REMARK  status: ('A' for Active; 'I' for Inactive)
REMARK    1  A    between atoms: C5_5  and  C6_6 
REMARK    2  A    between atoms: N1_7  and  N2_8 
REMARK    3  A    between atoms: N2_8  and  C7_9 
REMARK    4  A    between atoms: C8_10  and  N3_11 
REMARK    5  A    between atoms: C8_10  and  C9_12 
ROOT
HETATM    1  N2  UNL     1      23.303   2.679  51.985  1.00  0.00    -0.288 N 
HETATM    2  H7  UNL     1      23.498   3.045  52.966  1.00  0.00     0.188 HD
ENDROOT
BRANCH   1   3
HETATM    3  N1  UNL     1      22.897   2.371  50.684  1.00  0.00    -0.187 NA
HETATM    4  C6  UNL     1      23.540   2.904  49.707  1.00  0.00     0.149 C 
BRANCH   4   5
HETATM    5  C5  UNL     1      24.646   3.799  49.385  1.00  0.00    -0.017 A 
HETATM    6  C4  UNL     1      25.910   3.259  49.490  1.00  0.00     0.013 A 
HETATM    7  C3  UNL     1      26.916   4.150  49.174  1.00  0.00     0.008 A 
HETATM    8  C2  UNL     1      26.691   5.456  48.788  1.00  0.00    -0.056 A 
HETATM    9  C1  UNL     1      27.853   6.339  48.466  1.00  0.00     0.049 C 
HETATM   10  C16 UNL     1      25.399   5.930  48.703  1.00  0.00    -0.055 A 
HETATM   11  C15 UNL     1      24.356   5.090  49.006  1.00  0.00     0.020 A 
HETATM   12  C17 UNL     1      25.202   7.342  48.284  1.00  0.00     0.049 C 
ENDBRANCH   4   5
ENDBRANCH   1   3
BRANCH   1  13
HETATM   13  C7  UNL     1      24.238   1.589  52.060  1.00  0.00     0.133 C 
HETATM   14  C8  UNL     1      25.354   1.876  52.679  1.00  0.00     0.033 C 
BRANCH  14  15
HETATM   15  N3  UNL     1      25.173   3.225  53.042  1.00  0.00    -0.301 NA
HETATM   16  H9  UNL     1      25.462   4.129  52.572  1.00  0.00     0.124 HD
HETATM   17  H10 UNL     1      25.379   4.189  52.717  1.00  0.00     0.124 HD
ENDBRANCH  14  15
BRANCH  14  18
HETATM   18  C9  UNL     1      26.528   1.080  52.965  1.00  0.00    -0.014 A 
HETATM   19  C10 UNL     1      26.473  -0.273  52.703  1.00  0.00     0.015 A 
HETATM   20  C11 UNL     1      27.649  -0.967  53.007  1.00  0.00     0.024 A 
HETATM   21  C12 UNL     1      28.777  -0.361  53.526  1.00  0.00     0.034 A 
HETATM   22 CL1  UNL     1      30.229  -1.263  53.893  1.00  0.00    -0.084 Cl
HETATM   23  C13 UNL     1      28.746   1.016  53.760  1.00  0.00     0.024 A 
HETATM   24  C14 UNL     1      27.604   1.772  53.481  1.00  0.00     0.015 A 
ENDBRANCH  14  18
ENDBRANCH   1  13
TORSDOF 5
ENDMDL
MODEL 2
REMARK VINA RESULT:      -7.7      2.972      7.057
REMARK  5 active torsions:
REMARK  status: ('A' for Active; 'I' for Inactive)
REMARK    1  A    between atoms: C5_5  and  C6_6 
REMARK    2  A    between atoms: N1_7  and  N2_8 
REMARK    3  A    between atoms: N2_8  and  C7_9 
REMARK    4  A    between atoms: C8_10  and  N3_11 
REMARK    5  A    between atoms: C8_10  and  C9_12 
ROOT
HETATM    1  N2  UNL     1      24.864   2.554  50.790  1.00  0.00    -0.288 N 
HETATM    2  H7  UNL     1      24.901   2.073  49.841  1.00  0.00     0.188 HD
ENDROOT
BRANCH   1   3
HETATM    3  N1  UNL     1      24.782   2.976  52.120  1.00  0.00    -0.187 NA
HETATM    4  C6  UNL     1      25.583   2.444  52.973  1.00  0.00     0.149 C 
BRANCH   4   5
HETATM    5  C5  UNL     1      26.660   1.471  53.118  1.00  0.00    -0.017 A 
HETATM    6  C4  UNL     1      27.867   1.967  53.565  1.00  0.00     0.013 A 
HETATM    7  C3  UNL     1      28.847   1.003  53.682  1.00  0.00     0.008 A 
HETATM    8  C2  UNL     1      28.652  -0.331  53.386  1.00  0.00    -0.056 A 
HETATM    9  C1  UNL     1      29.782  -1.294  53.550  1.00  0.00     0.049 C 
HETATM   10  C16 UNL     1      27.417  -0.758  52.945  1.00  0.00    -0.055 A 
HETATM   11  C15 UNL     1      26.402   0.156  52.807  1.00  0.00     0.020 A 
HETATM   12  C17 UNL     1      27.250  -2.203  52.637  1.00  0.00     0.049 C 
ENDBRANCH   4   5
ENDBRANCH   1   3
BRANCH   1  13
HETATM   13  C7  UNL     1      25.066   3.881  50.275  1.00  0.00     0.133 C 
HETATM   14  C8  UNL     1      26.182   4.038  49.610  1.00  0.00     0.033 C 
BRANCH  14  15
HETATM   15  N3  UNL     1      26.768   2.758  49.675  1.00  0.00    -0.301 NA
HETATM   16  H9  UNL     1      27.717   2.399  49.372  1.00  0.00     0.124 HD
HETATM   17  H10 UNL     1      27.643   2.252  49.438  1.00  0.00     0.124 HD
ENDBRANCH  14  15
BRANCH  14  18
HETATM   18  C9  UNL     1      26.752   5.190  48.944  1.00  0.00    -0.014 A 
HETATM   19  C10 UNL     1      28.074   5.124  48.556  1.00  0.00     0.015 A 
HETATM   20  C11 UNL     1      28.546   6.277  47.920  1.00  0.00     0.024 A 
HETATM   21  C12 UNL     1      27.764   7.394  47.694  1.00  0.00     0.034 A 
HETATM   22 CL1  UNL     1      28.390   8.818  46.896  1.00  0.00    -0.084 Cl
HETATM   23  C13 UNL     1      26.434   7.374  48.121  1.00  0.00     0.024 A 
HETATM   24  C14 UNL     1      25.897   6.256  48.764  1.00  0.00     0.015 A 
ENDBRANCH  14  18
ENDBRANCH   1  13
TORSDOF 5
ENDMDL
MODEL 3
REMARK VINA RESULT:      -7.6      2.389      4.912
REMARK  5 active torsions:
REMARK  status: ('A' for Active; 'I' for Inactive)
REMARK    1  A    between atoms: C5_5  and  C6_6 
REMARK    2  A    between atoms: N1_7  and  N2_8 
REMARK    3  A    between atoms: N2_8  and  C7_9 
REMARK    4  A    between atoms: C8_10  and  N3_11 
REMARK    5  A    between atoms: C8_10  and  C9_12 
ROOT
HETATM    1  N2  UNL     1      25.006   4.000  51.442  1.00  0.00    -0.288 N 
HETATM    2  H7  UNL     1      25.449   4.357  52.341  1.00  0.00     0.188 HD
ENDROOT
BRANCH   1   3
HETATM    3  N1  UNL     1      24.280   3.707  50.284  1.00  0.00    -0.187 NA
HETATM    4  C6  UNL     1      23.252   2.943  50.391  1.00  0.00     0.149 C 
BRANCH   4   5
HETATM    5  C5  UNL     1      22.458   2.177  51.346  1.00  0.00    -0.017 A 
HETATM    6  C4  UNL     1      21.291   2.774  51.778  1.00  0.00     0.013 A 
HETATM    7  C3  UNL     1      20.583   2.006  52.679  1.00  0.00     0.008 A 
HETATM    8  C2  UNL     1      20.990   0.761  53.114  1.00  0.00    -0.056 A 
HETATM    9  C1  UNL     1      20.145   0.011  54.093  1.00  0.00     0.049 C 
HETATM   10  C16 UNL     1      22.168   0.224  52.641  1.00  0.00    -0.055 A 
HETATM   11  C15 UNL     1      22.917   0.942  51.742  1.00  0.00     0.020 A 
HETATM   12  C17 UNL     1      22.570  -1.119  53.135  1.00  0.00     0.049 C 
ENDBRANCH   4   5
ENDBRANCH   1   3
BRANCH   1  13
HETATM   13  C7  UNL     1      25.896   2.882  51.288  1.00  0.00     0.133 C 
HETATM   14  C8  UNL     1      26.142   2.231  52.396  1.00  0.00     0.033 C 
BRANCH  14  15
HETATM   15  N3  UNL     1      25.385   2.939  53.350  1.00  0.00    -0.301 NA
HETATM   16  H9  UNL     1      25.629   3.751  53.986  1.00  0.00     0.124 HD
HETATM   17  H10 UNL     1      25.459   3.722  54.029  1.00  0.00     0.124 HD
ENDBRANCH  14  15
BRANCH  14  18
HETATM   18  C9  UNL     1      26.966   1.073  52.671  1.00  0.00    -0.014 A 
HETATM   19  C10 UNL     1      26.444  -0.173  52.395  1.00  0.00     0.015 A 
HETATM   20  C11 UNL     1      27.304  -1.236  52.688  1.00  0.00     0.024 A 
HETATM   21  C12 UNL     1      28.572  -1.066  53.210  1.00  0.00     0.034 A 
HETATM   22 CL1  UNL     1      29.619  -2.421  53.564  1.00  0.00    -0.084 Cl
HETATM   23  C13 UNL     1      29.021   0.233  53.459  1.00  0.00     0.024 A 
HETATM   24  C14 UNL     1      28.215   1.342  53.190  1.00  0.00     0.015 A 
ENDBRANCH  14  18
ENDBRANCH   1  13
TORSDOF 5
ENDMDL
MODEL 4
REMARK VINA RESULT:      -7.5      3.008      3.884
REMARK  5 active torsions:
REMARK  status: ('A' for Active; 'I' for Inactive)
REMARK    1  A    between atoms: C5_5  and  C6_6 
REMARK    2  A    between atoms: N1_7  and  N2_8 
REMARK    3  A    between atoms: N2_8  and  C7_9 
REMARK    4  A    between atoms: C8_10  and  N3_11 
REMARK    5  A    between atoms: C8_10  and  C9_12 
ROOT
HETATM    1  N2  UNL     1      24.294   5.253  51.555  1.00  0.00    -0.288 N 
HETATM    2  H7  UNL     1      24.857   5.283  52.458  1.00  0.00     0.188 HD
ENDROOT
BRANCH   1   3
HETATM    3  N1  UNL     1      23.700   5.377  50.296  1.00  0.00    -0.187 NA
HETATM    4  C6  UNL     1      24.466   5.571  49.282  1.00  0.00     0.149 C 
BRANCH   4   5
HETATM    5  C5  UNL     1      25.860   5.730  48.882  1.00  0.00    -0.017 A 
HETATM    6  C4  UNL     1      26.666   4.622  49.045  1.00  0.00     0.013 A 
HETATM    7  C3  UNL     1      27.972   4.830  48.652  1.00  0.00     0.008 A 
HETATM    8  C2  UNL     1      28.439   6.025  48.144  1.00  0.00    -0.056 A 
HETATM    9  C1  UNL     1      29.875   6.144  47.746  1.00  0.00     0.049 C 
HETATM   10  C16 UNL     1      27.578   7.093  48.007  1.00  0.00    -0.055 A 
HETATM   11  C15 UNL     1      26.265   6.946  48.383  1.00  0.00     0.020 A 
HETATM   12  C17 UNL     1      28.122   8.361  47.456  1.00  0.00     0.049 C 
ENDBRANCH   4   5
ENDBRANCH   1   3
BRANCH   1  13
HETATM   13  C7  UNL     1      23.381   4.235  51.998  1.00  0.00     0.133 C 
HETATM   14  C8  UNL     1      23.947   3.095  52.300  1.00  0.00     0.033 C 
BRANCH  14  15
HETATM   15  N3  UNL     1      25.311   3.347  52.049  1.00  0.00    -0.301 NA
HETATM   16  H9  UNL     1      26.192   2.865  52.385  1.00  0.00     0.124 HD
HETATM   17  H10 UNL     1      26.259   2.994  52.282  1.00  0.00     0.124 HD
ENDBRANCH  14  15
BRANCH  14  18
HETATM   18  C9  UNL     1      23.399   1.843  52.775  1.00  0.00    -0.014 A 
HETATM   19  C10 UNL     1      24.279   0.865  53.186  1.00  0.00     0.015 A 
HETATM   20  C11 UNL     1      23.667  -0.311  53.630  1.00  0.00     0.024 A 
HETATM   21  C12 UNL     1      22.298  -0.491  53.660  1.00  0.00     0.034 A 
HETATM   22 CL1  UNL     1      21.569  -1.978  54.223  1.00  0.00    -0.084 Cl
HETATM   23  C13 UNL     1      21.479   0.554  53.225  1.00  0.00     0.024 A 
HETATM   24  C14 UNL     1      22.023   1.757  52.768  1.00  0.00     0.015 A 
ENDBRANCH  14  18
ENDBRANCH   1  13
TORSDOF 5
ENDMDL
MODEL 5
REMARK VINA RESULT:      -7.4      3.077      6.737
REMARK  5 active torsions:
REMARK  status: ('A' for Active; 'I' for Inactive)
REMARK    1  A    between atoms: C5_5  and  C6_6 
REMARK    2  A    between atoms: N1_7  and  N2_8 
REMARK    3  A    between atoms: N2_8  and  C7_9 
REMARK    4  A    between atoms: C8_10  and  N3_11 
REMARK    5  A    between atoms: C8_10  and  C9_12 
ROOT
HETATM    1  N2  UNL     1      22.601   3.695  50.913  1.00  0.00    -0.288 N 
HETATM    2  H7  UNL     1      22.822   4.486  51.590  1.00  0.00     0.188 HD
ENDROOT
BRANCH   1   3
HETATM    3  N1  UNL     1      22.171   2.579  50.189  1.00  0.00    -0.187 NA
HETATM    4  C6  UNL     1      22.319   1.419  50.721  1.00  0.00     0.149 C 
BRANCH   4   5
HETATM    5  C5  UNL     1      22.811   0.731  51.910  1.00  0.00    -0.017 A 
HETATM    6  C4  UNL     1      24.150   0.900  52.195  1.00  0.00     0.013 A 
HETATM    7  C3  UNL     1      24.560   0.228  53.328  1.00  0.00     0.008 A 
HETATM    8  C2  UNL     1      23.722  -0.541  54.110  1.00  0.00    -0.056 A 
HETATM    9  C1  UNL     1      24.268  -1.227  55.320  1.00  0.00     0.049 C 
HETATM   10  C16 UNL     1      22.393  -0.666  53.767  1.00  0.00    -0.055 A 
HETATM   11  C15 UNL     1      21.926  -0.020  52.648  1.00  0.00     0.020 A 
HETATM   12  C17 UNL     1      21.525  -1.503  54.635  1.00  0.00     0.049 C 
ENDBRANCH   4   5
ENDBRANCH   1   3
BRANCH   1  13
HETATM   13  C7  UNL     1      23.479   4.158  49.874  1.00  0.00     0.133 C 
HETATM   14  C8  UNL     1      24.659   4.539  50.293  1.00  0.00     0.033 C 
BRANCH  14  15
HETATM   15  N3  UNL     1      24.580   4.326  51.684  1.00  0.00    -0.301 NA
HETATM   16  H9  UNL     1      23.759   4.322  52.353  1.00  0.00     0.124 HD
HETATM   17  H10 UNL     1      23.895   4.287  52.463  1.00  0.00     0.124 HD
ENDBRANCH  14  15
BRANCH  14  18
HETATM   18  C9  UNL     1      25.810   5.059  49.587  1.00  0.00    -0.014 A 
HETATM   19  C10 UNL     1      26.822   4.180  49.264  1.00  0.00     0.015 A 
HETATM   20  C11 UNL     1      27.896   4.763  48.583  1.00  0.00     0.024 A 
HETATM   21  C12 UNL     1      27.950   6.104  48.256  1.00  0.00     0.034 A 
HETATM   22 CL1  UNL     1      29.311   6.797  47.403  1.00  0.00    -0.084 Cl
HETATM   23  C13 UNL     1      26.879   6.923  48.621  1.00  0.00     0.024 A 
HETATM   24  C14 UNL     1      25.775   6.408  49.304  1.00  0.00     0.015 A 
ENDBRANCH  14  18
ENDBRANCH   1  13
TORSDOF 5
ENDMDL
MODEL 6
REMARK VINA RESULT:      -7.4      2.877      4.254
REMARK  5 active torsions:
REMARK  status: ('A' for Active; 'I' for Inactive)
REMARK    1  A    between atoms: C5_5  and  C6_6 
REMARK    2  A    between atoms: N1_7  and  N2_8 
REMARK    3  A    between atoms: N2_8  and  C7_9 
REMARK    4  A    between atoms: C8_10  and  N3_11 
REMARK    5  A    between atoms: C8_10  and  C9_12 
ROOT
HETATM    1  N2  UNL     1      26.766   3.482  51.120  1.00  0.00    -0.288 N 
HETATM    2  H7  UNL     1      26.877   3.938  52.075  1.00  0.00     0.188 HD
ENDROOT
BRANCH   1   3
HETATM    3  N1  UNL     1      26.709   3.077  49.783  1.00  0.00    -0.187 NA
HETATM    4  C6  UNL     1      27.034   3.931  48.879  1.00  0.00     0.149 C 
BRANCH   4   5
HETATM    5  C5  UNL     1      27.487   5.303  48.674  1.00  0.00    -0.017 A 
HETATM    6  C4  UNL     1      26.537   6.286  48.855  1.00  0.00     0.013 A 
HETATM    7  C3  UNL     1      27.020   7.562  48.647  1.00  0.00     0.008 A 
HETATM    8  C2  UNL     1      28.325   7.840  48.294  1.00  0.00    -0.056 A 
HETATM    9  C1  UNL     1      28.747   9.260  48.094  1.00  0.00     0.049 C 
HETATM   10  C16 UNL     1      29.223   6.807  48.130  1.00  0.00    -0.055 A 
HETATM   11  C15 UNL     1      28.800   5.515  48.322  1.00  0.00     0.020 A 
HETATM   12  C17 UNL     1      30.618   7.150  47.748  1.00  0.00     0.049 C 
ENDBRANCH   4   5
ENDBRANCH   1   3
BRANCH   1  13
HETATM   13  C7  UNL     1      26.197   2.260  51.620  1.00  0.00     0.133 C 
HETATM   14  C8  UNL     1      25.006   2.393  52.144  1.00  0.00     0.033 C 
BRANCH  14  15
HETATM   15  N3  UNL     1      24.751   3.771  51.996  1.00  0.00    -0.301 NA
HETATM   16  H9  UNL     1      25.148   4.496  51.334  1.00  0.00     0.124 HD
HETATM   17  H10 UNL     1      25.033   4.593  51.429  1.00  0.00     0.124 HD
ENDBRANCH  14  15
BRANCH  14  18
HETATM   18  C9  UNL     1      24.106   1.433  52.746  1.00  0.00    -0.014 A 
HETATM   19  C10 UNL     1      22.750   1.649  52.621  1.00  0.00     0.015 A 
HETATM   20  C11 UNL     1      21.952   0.675  53.230  1.00  0.00     0.024 A 
HETATM   21  C12 UNL     1      22.466  -0.416  53.904  1.00  0.00     0.034 A 
HETATM   22 CL1  UNL     1      21.436  -1.613  54.653  1.00  0.00    -0.084 Cl
HETATM   23  C13 UNL     1      23.854  -0.558  53.982  1.00  0.00     0.024 A 
HETATM   24  C14 UNL     1      24.711   0.378  53.397  1.00  0.00     0.015 A 
ENDBRANCH  14  18
ENDBRANCH   1  13
TORSDOF 5
ENDMDL
MODEL 7
REMARK VINA RESULT:      -7.4      2.684      6.306
REMARK  5 active torsions:
REMARK  status: ('A' for Active; 'I' for Inactive)
REMARK    1  A    between atoms: C5_5  and  C6_6 
REMARK    2  A    between atoms: N1_7  and  N2_8 
REMARK    3  A    between atoms: N2_8  and  C7_9 
REMARK    4  A    between atoms: C8_10  and  N3_11 
REMARK    5  A    between atoms: C8_10  and  C9_12 
ROOT
HETATM    1  N2  UNL     1      22.807   4.077  50.676  1.00  0.00    -0.288 N 
HETATM    2  H7  UNL     1      22.688   3.739  49.673  1.00  0.00     0.188 HD
ENDROOT
BRANCH   1   3
HETATM    3  N1  UNL     1      22.795   4.370  52.042  1.00  0.00    -0.187 NA
HETATM    4  C6  UNL     1      23.402   3.565  52.839  1.00  0.00     0.149 C 
BRANCH   4   5
HETATM    5  C5  UNL     1      24.183   2.333  52.886  1.00  0.00    -0.017 A 
HETATM    6  C4  UNL     1      23.461   1.165  53.013  1.00  0.00     0.013 A 
HETATM    7  C3  UNL     1      24.250   0.033  53.053  1.00  0.00     0.008 A 
HETATM    8  C2  UNL     1      25.628   0.055  52.974  1.00  0.00    -0.056 A 
HETATM    9  C1  UNL     1      26.388  -1.231  53.025  1.00  0.00     0.049 C 
HETATM   10  C16 UNL     1      26.286   1.260  52.847  1.00  0.00    -0.055 A 
HETATM   11  C15 UNL     1      25.553   2.421  52.803  1.00  0.00     0.020 A 
HETATM   12  C17 UNL     1      27.769   1.239  52.765  1.00  0.00     0.049 C 
ENDBRANCH   4   5
ENDBRANCH   1   3
BRANCH   1  13
HETATM   13  C7  UNL     1      23.849   5.021  50.378  1.00  0.00     0.133 C 
HETATM   14  C8  UNL     1      24.781   4.563  49.582  1.00  0.00     0.033 C 
BRANCH  14  15
HETATM   15  N3  UNL     1      24.355   3.245  49.326  1.00  0.00    -0.301 NA
HETATM   16  H9  UNL     1      23.410   2.775  49.426  1.00  0.00     0.124 HD
HETATM   17  H10 UNL     1      23.510   2.641  49.364  1.00  0.00     0.124 HD
ENDBRANCH  14  15
BRANCH  14  18
HETATM   18  C9  UNL     1      25.978   5.176  49.048  1.00  0.00    -0.014 A 
HETATM   19  C10 UNL     1      27.133   4.424  49.019  1.00  0.00     0.015 A 
HETATM   20  C11 UNL     1      28.242   5.091  48.488  1.00  0.00     0.024 A 
HETATM   21  C12 UNL     1      28.198   6.393  48.029  1.00  0.00     0.034 A 
HETATM   22 CL1  UNL     1      29.606   7.194  47.372  1.00  0.00    -0.084 Cl
HETATM   23  C13 UNL     1      26.984   7.082  48.096  1.00  0.00     0.024 A 
HETATM   24  C14 UNL     1      25.837   6.478  48.615  1.00  0.00     0.015 A 
ENDBRANCH  14  18
ENDBRANCH   1  13
TORSDOF 5
ENDMDL
MODEL 8
REMARK VINA RESULT:      -7.3      3.437      7.368
REMARK  5 active torsions:
REMARK  status: ('A' for Active; 'I' for Inactive)
REMARK    1  A    between atoms: C5_5  and  C6_6 
REMARK    2  A    between atoms: N1_7  and  N2_8 
REMARK    3  A    between atoms: N2_8  and  C7_9 
REMARK    4  A    between atoms: C8_10  and  N3_11 
REMARK    5  A    between atoms: C8_10  and  C9_12 
ROOT
HETATM    1  N2  UNL     1      25.813   2.960  50.342  1.00  0.00    -0.288 N 
HETATM    2  H7  UNL     1      24.917   3.249  49.844  1.00  0.00     0.188 HD
ENDROOT
BRANCH   1   3
HETATM    3  N1  UNL     1      26.849   2.486  51.151  1.00  0.00    -0.187 NA
HETATM    4  C6  UNL     1      26.554   1.657  52.088  1.00  0.00     0.149 C 
BRANCH   4   5
HETATM    5  C5  UNL     1      25.446   0.938  52.707  1.00  0.00    -0.017 A 
HETATM    6  C4  UNL     1      25.792  -0.133  53.506  1.00  0.00     0.013 A 
HETATM    7  C3  UNL     1      24.706  -0.775  54.064  1.00  0.00     0.008 A 
HETATM    8  C2  UNL     1      23.397  -0.393  53.853  1.00  0.00    -0.056 A 
HETATM    9  C1  UNL     1      22.292  -1.157  54.508  1.00  0.00     0.049 C 
HETATM   10  C16 UNL     1      23.123   0.689  53.043  1.00  0.00    -0.055 A 
HETATM   11  C15 UNL     1      24.164   1.367  52.458  1.00  0.00     0.020 A 
HETATM   12  C17 UNL     1      21.700   1.066  52.842  1.00  0.00     0.049 C 
ENDBRANCH   4   5
ENDBRANCH   1   3
BRANCH   1  13
HETATM   13  C7  UNL     1      26.700   3.558  49.381  1.00  0.00     0.133 C 
HETATM   14  C8  UNL     1      26.658   4.865  49.347  1.00  0.00     0.033 C 
BRANCH  14  15
HETATM   15  N3  UNL     1      25.698   5.173  50.330  1.00  0.00    -0.301 NA
HETATM   16  H9  UNL     1      25.122   4.559  50.974  1.00  0.00     0.124 HD
HETATM   17  H10 UNL     1      25.067   4.722  51.021  1.00  0.00     0.124 HD
ENDBRANCH  14  15
BRANCH  14  18
HETATM   18  C9  UNL     1      27.375   5.830  48.542  1.00  0.00    -0.014 A 
HETATM   19  C10 UNL     1      26.678   6.920  48.065  1.00  0.00     0.015 A 
HETATM   20  C11 UNL     1      27.444   7.804  47.297  1.00  0.00     0.024 A 
HETATM   21  C12 UNL     1      28.786   7.612  47.032  1.00  0.00     0.034 A 
HETATM   22 CL1  UNL     1      29.711   8.739  46.067  1.00  0.00    -0.084 Cl
HETATM   23  C13 UNL     1      29.414   6.479  47.555  1.00  0.00     0.024 A 
HETATM   24  C14 UNL     1      28.709   5.554  48.330  1.00  0.00     0.015 A 
ENDBRANCH  14  18
ENDBRANCH   1  13
TORSDOF 5
ENDMDL
MODEL 9
REMARK VINA RESULT:      -6.9      3.545      7.427
REMARK  5 active torsions:
REMARK  status: ('A' for Active; 'I' for Inactive)
REMARK    1  A    between atoms: C5_5  and  C6_6 
REMARK    2  A    between atoms: N1_7  and  N2_8 
REMARK    3  A    between atoms: N2_8  and  C7_9 
REMARK    4  A    between atoms: C8_10  and  N3_11 
REMARK    5  A    between atoms: C8_10  and  C9_12 
ROOT
HETATM    1  N2  UNL     1      25.296   2.407  50.575  1.00  0.00    -0.288 N 
HETATM    2  H7  UNL     1      24.856   2.309  49.610  1.00  0.00     0.188 HD
ENDROOT
BRANCH   1   3
HETATM    3  N1  UNL     1      25.696   2.408  51.914  1.00  0.00    -0.187 NA
HETATM    4  C6  UNL     1      24.881   1.939  52.789  1.00  0.00     0.149 C 
BRANCH   4   5
HETATM    5  C5  UNL     1      23.561   1.340  52.957  1.00  0.00    -0.017 A 
HETATM    6  C4  UNL     1      22.505   2.045  52.417  1.00  0.00     0.013 A 
HETATM    7  C3  UNL     1      21.283   1.433  52.606  1.00  0.00     0.008 A 
HETATM    8  C2  UNL     1      21.119   0.233  53.266  1.00  0.00    -0.056 A 
HETATM    9  C1  UNL     1      19.749  -0.345  53.414  1.00  0.00     0.049 C 
HETATM   10  C16 UNL     1      22.220  -0.419  53.781  1.00  0.00    -0.055 A 
HETATM   11  C15 UNL     1      23.463   0.142  53.625  1.00  0.00     0.020 A 
HETATM   12  C17 UNL     1      21.999  -1.709  54.485  1.00  0.00     0.049 C 
ENDBRANCH   4   5
ENDBRANCH   1   3
BRANCH   1  13
HETATM   13  C7  UNL     1      26.406   3.208  50.136  1.00  0.00     0.133 C 
HETATM   14  C8  UNL     1      26.071   4.245  49.412  1.00  0.00     0.033 C 
BRANCH  14  15
HETATM   15  N3  UNL     1      24.667   4.146  49.354  1.00  0.00    -0.301 NA
HETATM   16  H9  UNL     1      23.905   4.518  49.990  1.00  0.00     0.124 HD
HETATM   17  H10 UNL     1      23.809   4.435  49.865  1.00  0.00     0.124 HD
ENDBRANCH  14  15
BRANCH  14  18
HETATM   18  C9  UNL     1      26.866   5.281  48.788  1.00  0.00    -0.014 A 
HETATM   19  C10 UNL     1      28.203   5.026  48.567  1.00  0.00     0.015 A 
HETATM   20  C11 UNL     1      28.898   6.078  47.961  1.00  0.00     0.024 A 
HETATM   21  C12 UNL     1      28.306   7.276  47.608  1.00  0.00     0.034 A 
HETATM   22 CL1  UNL     1      29.208   8.568  46.851  1.00  0.00    -0.084 Cl
HETATM   23  C13 UNL     1      26.945   7.449  47.868  1.00  0.00     0.024 A 
HETATM   24  C14 UNL     1      26.190   6.440  48.473  1.00  0.00     0.015 A 
ENDBRANCH  14  18
ENDBRANCH   1  13
TORSDOF 5
ENDMDL
