MODEL 1
REMARK VINA RESULT:      -7.2      0.000      0.000
REMARK  5 active torsions:
REMARK  status: ('A' for Active; 'I' for Inactive)
REMARK    1  A    between atoms: O1_2  and  C2_3 
REMARK    2  A    between atoms: C5_6  and  C6_7 
REMARK    3  A    between atoms: N2_9  and  C7_10 
REMARK    4  A    between atoms: C8_12  and  O2_13 
REMARK    5  A    between atoms: C14_20  and  O3_21 
ROOT
HETATM    1  C6  UNL     1      23.078   2.424  52.212  1.00  0.00     0.068 C 
HETATM    2  N1  UNL     1      21.818   2.269  52.419  1.00  0.00    -0.173 NA
HETATM    3  N2  UNL     1      21.073   3.123  51.594  1.00  0.00    -0.229 N 
HETATM    4  C11 UNL     1      21.984   4.117  51.068  1.00  0.00     0.110 A 
HETATM    5  C12 UNL     1      21.923   5.444  51.610  1.00  0.00     0.008 A 
HETATM    6  C13 UNL     1      21.621   5.984  50.472  1.00  0.00     0.006 A 
HETATM    7  C14 UNL     1      21.644   4.708  49.765  1.00  0.00     0.178 A 
HETATM    8  C16 UNL     1      23.344   3.452  51.169  1.00  0.00     0.102 C 
ENDROOT
BRANCH   1   9
HETATM    9  C5  UNL     1      24.115   1.672  52.921  1.00  0.00    -0.010 A 
HETATM   10  C4  UNL     1      25.266   2.316  53.324  1.00  0.00     0.016 A 
HETATM   11  C3  UNL     1      26.288   1.691  53.991  1.00  0.00     0.037 A 
HETATM   12  C2  UNL     1      26.132   0.338  54.265  1.00  0.00     0.068 A 
HETATM   13  C18 UNL     1      24.979  -0.322  53.865  1.00  0.00     0.037 A 
HETATM   14  C17 UNL     1      23.963   0.324  53.194  1.00  0.00     0.016 A 
BRANCH  12  15
HETATM   15  O1  UNL     1      27.161  -0.290  54.937  1.00  0.00    -0.356 OA
HETATM   16  C1  UNL     1      28.501   0.087  54.865  1.00  0.00     0.210 C 
ENDBRANCH  12  15
ENDBRANCH   1   9
BRANCH   3  17
HETATM   17  C7  UNL     1      19.654   3.081  51.280  1.00  0.00     0.192 A 
HETATM   18  N3  UNL     1      18.851   3.604  51.912  1.00  0.00    -0.198 NA
HETATM   19  C8  UNL     1      17.539   3.639  51.732  1.00  0.00     0.173 A 
HETATM   20  C10 UNL     1      17.099   2.915  50.577  1.00  0.00     0.111 A 
HETATM   21  S1  UNL     1      18.625   2.263  49.881  1.00  0.00    -0.058 SA
BRANCH  19  22
HETATM   22  O2  UNL     1      16.486   4.245  52.444  1.00  0.00    -0.339 OA
HETATM   23  C9  UNL     1      15.215   3.655  52.317  1.00  0.00     0.211 C 
ENDBRANCH  19  22
ENDBRANCH   3  17
BRANCH   7  24
HETATM   24  O3  UNL     1      22.606   4.585  48.756  1.00  0.00    -0.384 OA
HETATM   25  C15 UNL     1      21.966   3.980  47.670  1.00  0.00     0.202 C 
ENDBRANCH   7  24
TORSDOF 5
ENDMDL
MODEL 2
REMARK VINA RESULT:      -7.1      2.504      2.908
REMARK  5 active torsions:
REMARK  status: ('A' for Active; 'I' for Inactive)
REMARK    1  A    between atoms: O1_2  and  C2_3 
REMARK    2  A    between atoms: C5_6  and  C6_7 
REMARK    3  A    between atoms: N2_9  and  C7_10 
REMARK    4  A    between atoms: C8_12  and  O2_13 
REMARK    5  A    between atoms: C14_20  and  O3_21 
ROOT
HETATM    1  C6  UNL     1      23.874   1.003  52.395  1.00  0.00     0.068 C 
HETATM    2  N1  UNL     1      22.759   0.449  52.719  1.00  0.00    -0.173 NA
HETATM    3  N2  UNL     1      21.693   1.051  52.036  1.00  0.00    -0.229 N 
HETATM    4  C11 UNL     1      22.179   2.300  51.492  1.00  0.00     0.110 A 
HETATM    5  C12 UNL     1      21.772   3.519  52.129  1.00  0.00     0.008 A 
HETATM    6  C13 UNL     1      21.185   3.974  51.069  1.00  0.00     0.006 A 
HETATM    7  C14 UNL     1      21.519   2.797  50.274  1.00  0.00     0.178 A 
HETATM    8  C16 UNL     1      23.680   2.098  51.407  1.00  0.00     0.102 C 
ENDROOT
BRANCH   1   9
HETATM    9  C5  UNL     1      25.170   0.595  52.940  1.00  0.00    -0.010 A 
HETATM   10  C4  UNL     1      25.689  -0.640  52.611  1.00  0.00     0.016 A 
HETATM   11  C3  UNL     1      26.893  -1.102  53.075  1.00  0.00     0.037 A 
HETATM   12  C2  UNL     1      27.610  -0.265  53.920  1.00  0.00     0.068 A 
HETATM   13  C18 UNL     1      27.101   0.980  54.259  1.00  0.00     0.037 A 
HETATM   14  C17 UNL     1      25.886   1.427  53.782  1.00  0.00     0.016 A 
BRANCH  12  15
HETATM   15  O1  UNL     1      28.823  -0.731  54.387  1.00  0.00    -0.356 OA
HETATM   16  C1  UNL     1      29.950  -0.938  53.594  1.00  0.00     0.210 C 
ENDBRANCH  12  15
ENDBRANCH   1   9
BRANCH   3  17
HETATM   17  C7  UNL     1      20.330   0.571  51.866  1.00  0.00     0.192 A 
HETATM   18  N3  UNL     1      19.744   0.026  52.689  1.00  0.00    -0.198 NA
HETATM   19  C8  UNL     1      18.510  -0.454  52.656  1.00  0.00     0.173 A 
HETATM   20  C10 UNL     1      17.846  -0.244  51.404  1.00  0.00     0.111 A 
HETATM   21  S1  UNL     1      19.074   0.621  50.414  1.00  0.00    -0.058 SA
BRANCH  19  22
HETATM   22  O2  UNL     1      17.716  -1.130  53.602  1.00  0.00    -0.339 OA
HETATM   23  C9  UNL     1      17.867  -2.527  53.673  1.00  0.00     0.211 C 
ENDBRANCH  19  22
ENDBRANCH   3  17
BRANCH   7  24
HETATM   24  O3  UNL     1      22.345   3.021  49.167  1.00  0.00    -0.384 OA
HETATM   25  C15 UNL     1      21.740   2.373  48.085  1.00  0.00     0.202 C 
ENDBRANCH   7  24
TORSDOF 5
ENDMDL
MODEL 3
REMARK VINA RESULT:      -7.0      8.418     11.135
REMARK  5 active torsions:
REMARK  status: ('A' for Active; 'I' for Inactive)
REMARK    1  A    between atoms: O1_2  and  C2_3 
REMARK    2  A    between atoms: C5_6  and  C6_7 
REMARK    3  A    between atoms: N2_9  and  C7_10 
REMARK    4  A    between atoms: C8_12  and  O2_13 
REMARK    5  A    between atoms: C14_20  and  O3_21 
ROOT
HETATM    1  C6  UNL     1      27.980   5.744  48.473  1.00  0.00     0.068 C 
HETATM    2  N1  UNL     1      29.061   5.105  48.197  1.00  0.00    -0.173 NA
HETATM    3  N2  UNL     1      30.074   5.993  47.808  1.00  0.00    -0.229 N 
HETATM    4  C11 UNL     1      29.444   7.263  47.514  1.00  0.00     0.110 A 
HETATM    5  C12 UNL     1      29.305   7.645  46.139  1.00  0.00     0.008 A 
HETATM    6  C13 UNL     1      30.026   8.712  46.276  1.00  0.00     0.006 A 
HETATM    7  C14 UNL     1      30.266   8.469  47.694  1.00  0.00     0.178 A 
HETATM    8  C16 UNL     1      28.145   7.212  48.294  1.00  0.00     0.102 C 
ENDROOT
BRANCH   1   9
HETATM    9  C5  UNL     1      26.742   5.095  48.910  1.00  0.00    -0.010 A 
HETATM   10  C4  UNL     1      25.546   5.775  48.814  1.00  0.00     0.016 A 
HETATM   11  C3  UNL     1      24.343   5.245  49.201  1.00  0.00     0.037 A 
HETATM   12  C2  UNL     1      24.353   3.953  49.711  1.00  0.00     0.068 A 
HETATM   13  C18 UNL     1      25.549   3.257  49.812  1.00  0.00     0.037 A 
HETATM   14  C17 UNL     1      26.750   3.808  49.419  1.00  0.00     0.016 A 
BRANCH  12  15
HETATM   15  O1  UNL     1      23.140   3.420  50.099  1.00  0.00    -0.356 OA
HETATM   16  C1  UNL     1      22.762   2.092  49.911  1.00  0.00     0.210 C 
ENDBRANCH  12  15
ENDBRANCH   1   9
BRANCH   3  17
HETATM   17  C7  UNL     1      31.504   5.755  47.698  1.00  0.00     0.192 A 
HETATM   18  N3  UNL     1      31.999   5.300  46.767  1.00  0.00    -0.198 NA
HETATM   19  C8  UNL     1      33.279   5.037  46.548  1.00  0.00     0.173 A 
HETATM   20  C10 UNL     1      34.132   5.383  47.645  1.00  0.00     0.111 A 
HETATM   21  S1  UNL     1      32.995   6.048  48.871  1.00  0.00    -0.058 SA
BRANCH  19  22
HETATM   22  O2  UNL     1      33.973   4.486  45.454  1.00  0.00    -0.339 OA
HETATM   23  C9  UNL     1      35.056   3.638  45.754  1.00  0.00     0.211 C 
ENDBRANCH  19  22
ENDBRANCH   3  17
BRANCH   7  24
HETATM   24  O3  UNL     1      29.765   9.437  48.573  1.00  0.00    -0.384 OA
HETATM   25  C15 UNL     1      30.764   9.662  49.525  1.00  0.00     0.202 C 
ENDBRANCH   7  24
TORSDOF 5
ENDMDL
MODEL 4
REMARK VINA RESULT:      -6.8      3.056      3.804
REMARK  5 active torsions:
REMARK  status: ('A' for Active; 'I' for Inactive)
REMARK    1  A    between atoms: O1_2  and  C2_3 
REMARK    2  A    between atoms: C5_6  and  C6_7 
REMARK    3  A    between atoms: N2_9  and  C7_10 
REMARK    4  A    between atoms: C8_12  and  O2_13 
REMARK    5  A    between atoms: C14_20  and  O3_21 
ROOT
HETATM    1  C6  UNL     1      24.277   2.252  51.342  1.00  0.00     0.068 C 
HETATM    2  N1  UNL     1      23.412   1.932  50.446  1.00  0.00    -0.173 NA
HETATM    3  N2  UNL     1      22.701   3.063  50.020  1.00  0.00    -0.229 N 
HETATM    4  C11 UNL     1      22.943   4.113  50.987  1.00  0.00     0.110 A 
HETATM    5  C12 UNL     1      21.890   4.444  51.903  1.00  0.00     0.008 A 
HETATM    6  C13 UNL     1      21.800   5.667  51.487  1.00  0.00     0.006 A 
HETATM    7  C14 UNL     1      22.859   5.498  50.499  1.00  0.00     0.178 A 
HETATM    8  C16 UNL     1      24.251   3.710  51.641  1.00  0.00     0.102 C 
ENDROOT
BRANCH   1   9
HETATM    9  C5  UNL     1      25.175   1.289  51.982  1.00  0.00    -0.010 A 
HETATM   10  C4  UNL     1      26.532   1.361  51.743  1.00  0.00     0.016 A 
HETATM   11  C3  UNL     1      27.443   0.501  52.299  1.00  0.00     0.037 A 
HETATM   12  C2  UNL     1      26.952  -0.486  53.145  1.00  0.00     0.068 A 
HETATM   13  C18 UNL     1      25.590  -0.569  53.394  1.00  0.00     0.037 A 
HETATM   14  C17 UNL     1      24.687   0.306  52.824  1.00  0.00     0.016 A 
BRANCH  12  15
HETATM   15  O1  UNL     1      27.870  -1.350  53.704  1.00  0.00    -0.356 OA
HETATM   16  C1  UNL     1      29.252  -1.249  53.545  1.00  0.00     0.210 C 
ENDBRANCH  12  15
ENDBRANCH   1   9
BRANCH   3  17
HETATM   17  C7  UNL     1      21.860   3.225  48.845  1.00  0.00     0.192 A 
HETATM   18  N3  UNL     1      22.274   3.291  47.776  1.00  0.00    -0.198 NA
HETATM   19  C8  UNL     1      21.618   3.438  46.635  1.00  0.00     0.173 A 
HETATM   20  C10 UNL     1      20.196   3.521  46.797  1.00  0.00     0.111 A 
HETATM   21  S1  UNL     1      19.966   3.379  48.576  1.00  0.00    -0.058 SA
BRANCH  19  22
HETATM   22  O2  UNL     1      22.031   3.529  45.292  1.00  0.00    -0.339 OA
HETATM   23  C9  UNL     1      21.087   4.019  44.371  1.00  0.00     0.211 C 
ENDBRANCH  19  22
ENDBRANCH   3  17
BRANCH   7  24
HETATM   24  O3  UNL     1      23.998   6.292  50.682  1.00  0.00    -0.384 OA
HETATM   25  C15 UNL     1      24.268   6.887  49.446  1.00  0.00     0.202 C 
ENDBRANCH   7  24
TORSDOF 5
ENDMDL
MODEL 5
REMARK VINA RESULT:      -6.8      2.428      3.910
REMARK  5 active torsions:
REMARK  status: ('A' for Active; 'I' for Inactive)
REMARK    1  A    between atoms: O1_2  and  C2_3 
REMARK    2  A    between atoms: C5_6  and  C6_7 
REMARK    3  A    between atoms: N2_9  and  C7_10 
REMARK    4  A    between atoms: C8_12  and  O2_13 
REMARK    5  A    between atoms: C14_20  and  O3_21 
ROOT
HETATM    1  C6  UNL     1      23.999   1.740  51.431  1.00  0.00     0.068 C 
HETATM    2  N1  UNL     1      24.116   2.846  50.785  1.00  0.00    -0.173 NA
HETATM    3  N2  UNL     1      22.900   3.196  50.181  1.00  0.00    -0.229 N 
HETATM    4  C11 UNL     1      22.055   2.021  50.200  1.00  0.00     0.110 A 
HETATM    5  C12 UNL     1      21.858   1.311  48.970  1.00  0.00     0.008 A 
HETATM    6  C13 UNL     1      20.578   1.500  48.969  1.00  0.00     0.006 A 
HETATM    7  C14 UNL     1      20.602   2.248  50.221  1.00  0.00     0.178 A 
HETATM    8  C16 UNL     1      22.621   1.187  51.334  1.00  0.00     0.102 C 
ENDROOT
BRANCH   1   9
HETATM    9  C5  UNL     1      25.096   1.111  52.169  1.00  0.00    -0.010 A 
HETATM   10  C4  UNL     1      24.847   0.536  53.398  1.00  0.00     0.016 A 
HETATM   11  C3  UNL     1      25.813  -0.072  54.157  1.00  0.00     0.037 A 
HETATM   12  C2  UNL     1      27.103  -0.099  53.640  1.00  0.00     0.068 A 
HETATM   13  C18 UNL     1      27.366   0.476  52.405  1.00  0.00     0.037 A 
HETATM   14  C17 UNL     1      26.380   1.084  51.656  1.00  0.00     0.016 A 
BRANCH  12  15
HETATM   15  O1  UNL     1      28.074  -0.711  54.405  1.00  0.00    -0.356 OA
HETATM   16  C1  UNL     1      29.436  -0.705  54.109  1.00  0.00     0.210 C 
ENDBRANCH  12  15
ENDBRANCH   1   9
BRANCH   3  17
HETATM   17  C7  UNL     1      22.494   4.475  49.619  1.00  0.00     0.192 A 
HETATM   18  N3  UNL     1      22.137   5.360  50.256  1.00  0.00    -0.198 NA
HETATM   19  C8  UNL     1      21.744   6.564  49.867  1.00  0.00     0.173 A 
HETATM   20  C10 UNL     1      21.785   6.749  48.447  1.00  0.00     0.111 A 
HETATM   21  S1  UNL     1      22.384   5.167  47.832  1.00  0.00    -0.058 SA
BRANCH  19  22
HETATM   22  O2  UNL     1      21.293   7.701  50.564  1.00  0.00    -0.339 OA
HETATM   23  C9  UNL     1      20.324   8.494  49.921  1.00  0.00     0.211 C 
ENDBRANCH  19  22
ENDBRANCH   3  17
BRANCH   7  24
HETATM   24  O3  UNL     1      19.899   1.678  51.288  1.00  0.00    -0.384 OA
HETATM   25  C15 UNL     1      19.102   2.693  51.825  1.00  0.00     0.202 C 
ENDBRANCH   7  24
TORSDOF 5
ENDMDL
MODEL 6
REMARK VINA RESULT:      -6.7      3.538      7.600
REMARK  5 active torsions:
REMARK  status: ('A' for Active; 'I' for Inactive)
REMARK    1  A    between atoms: O1_2  and  C2_3 
REMARK    2  A    between atoms: C5_6  and  C6_7 
REMARK    3  A    between atoms: N2_9  and  C7_10 
REMARK    4  A    between atoms: C8_12  and  O2_13 
REMARK    5  A    between atoms: C14_20  and  O3_21 
ROOT
HETATM    1  C6  UNL     1      20.601   0.513  52.174  1.00  0.00     0.068 C 
HETATM    2  N1  UNL     1      21.708  -0.018  52.556  1.00  0.00    -0.173 NA
HETATM    3  N2  UNL     1      22.786   0.835  52.279  1.00  0.00    -0.229 N 
HETATM    4  C11 UNL     1      22.314   1.837  51.347  1.00  0.00     0.110 A 
HETATM    5  C12 UNL     1      22.722   1.733  49.977  1.00  0.00     0.008 A 
HETATM    6  C13 UNL     1      23.324   2.879  49.982  1.00  0.00     0.006 A 
HETATM    7  C14 UNL     1      22.989   3.143  51.377  1.00  0.00     0.178 A 
HETATM    8  C16 UNL     1      20.812   1.853  51.563  1.00  0.00     0.102 C 
ENDROOT
BRANCH   1   9
HETATM    9  C5  UNL     1      19.296  -0.133  52.328  1.00  0.00    -0.010 A 
HETATM   10  C4  UNL     1      18.294   0.132  51.419  1.00  0.00     0.016 A 
HETATM   11  C3  UNL     1      17.044  -0.427  51.487  1.00  0.00     0.037 A 
HETATM   12  C2  UNL     1      16.798  -1.304  52.536  1.00  0.00     0.068 A 
HETATM   13  C18 UNL     1      17.797  -1.580  53.457  1.00  0.00     0.037 A 
HETATM   14  C17 UNL     1      19.049  -1.007  53.372  1.00  0.00     0.016 A 
BRANCH  12  15
HETATM   15  O1  UNL     1      15.539  -1.866  52.603  1.00  0.00    -0.356 OA
HETATM   16  C1  UNL     1      15.166  -3.051  51.971  1.00  0.00     0.210 C 
ENDBRANCH  12  15
ENDBRANCH   1   9
BRANCH   3  17
HETATM   17  C7  UNL     1      24.147   0.784  52.789  1.00  0.00     0.192 A 
HETATM   18  N3  UNL     1      24.755  -0.186  52.871  1.00  0.00    -0.198 NA
HETATM   19  C8  UNL     1      25.991  -0.361  53.315  1.00  0.00     0.173 A 
HETATM   20  C10 UNL     1      26.623   0.851  53.742  1.00  0.00     0.111 A 
HETATM   21  S1  UNL     1      25.366   2.107  53.458  1.00  0.00    -0.058 SA
BRANCH  19  22
HETATM   22  O2  UNL     1      26.812  -1.496  53.452  1.00  0.00    -0.339 OA
HETATM   23  C9  UNL     1      26.913  -2.343  52.333  1.00  0.00     0.211 C 
ENDBRANCH  19  22
ENDBRANCH   3  17
BRANCH   7  24
HETATM   24  O3  UNL     1      22.177   4.259  51.610  1.00  0.00    -0.384 OA
HETATM   25  C15 UNL     1      22.898   5.103  52.461  1.00  0.00     0.202 C 
ENDBRANCH   7  24
TORSDOF 5
ENDMDL
MODEL 7
REMARK VINA RESULT:      -6.6      8.137     10.826
REMARK  5 active torsions:
REMARK  status: ('A' for Active; 'I' for Inactive)
REMARK    1  A    between atoms: O1_2  and  C2_3 
REMARK    2  A    between atoms: C5_6  and  C6_7 
REMARK    3  A    between atoms: N2_9  and  C7_10 
REMARK    4  A    between atoms: C8_12  and  O2_13 
REMARK    5  A    between atoms: C14_20  and  O3_21 
ROOT
HETATM    1  C6  UNL     1      27.653   5.939  48.442  1.00  0.00     0.068 C 
HETATM    2  N1  UNL     1      28.780   5.410  48.121  1.00  0.00    -0.173 NA
HETATM    3  N2  UNL     1      29.675   6.391  47.669  1.00  0.00    -0.229 N 
HETATM    4  C11 UNL     1      28.903   7.583  47.389  1.00  0.00     0.110 A 
HETATM    5  C12 UNL     1      28.657   7.922  46.018  1.00  0.00     0.008 A 
HETATM    6  C13 UNL     1      29.268   9.060  46.103  1.00  0.00     0.006 A 
HETATM    7  C14 UNL     1      29.601   8.871  47.512  1.00  0.00     0.178 A 
HETATM    8  C16 UNL     1      27.655   7.412  48.235  1.00  0.00     0.102 C 
ENDROOT
BRANCH   1   9
HETATM    9  C5  UNL     1      26.513   5.173  48.950  1.00  0.00    -0.010 A 
HETATM   10  C4  UNL     1      26.732   3.963  49.576  1.00  0.00     0.016 A 
HETATM   11  C3  UNL     1      25.725   3.181  50.080  1.00  0.00     0.037 A 
HETATM   12  C2  UNL     1      24.425   3.652  49.942  1.00  0.00     0.068 A 
HETATM   13  C18 UNL     1      24.192   4.868  49.315  1.00  0.00     0.037 A 
HETATM   14  C17 UNL     1      25.219   5.640  48.813  1.00  0.00     0.016 A 
BRANCH  12  15
HETATM   15  O1  UNL     1      23.413   2.864  50.450  1.00  0.00    -0.356 OA
HETATM   16  C1  UNL     1      23.609   1.658  51.120  1.00  0.00     0.210 C 
ENDBRANCH  12  15
ENDBRANCH   1   9
BRANCH   3  17
HETATM   17  C7  UNL     1      31.115   6.301  47.490  1.00  0.00     0.192 A 
HETATM   18  N3  UNL     1      31.851   6.131  48.355  1.00  0.00    -0.198 NA
HETATM   19  C8  UNL     1      33.171   6.032  48.320  1.00  0.00     0.173 A 
HETATM   20  C10 UNL     1      33.721   6.159  47.003  1.00  0.00     0.111 A 
HETATM   21  S1  UNL     1      32.274   6.407  45.963  1.00  0.00    -0.058 SA
BRANCH  19  22
HETATM   22  O2  UNL     1      34.147   5.827  49.314  1.00  0.00    -0.339 OA
HETATM   23  C9  UNL     1      35.424   5.432  48.875  1.00  0.00     0.211 C 
ENDBRANCH  19  22
ENDBRANCH   3  17
BRANCH   7  24
HETATM   24  O3  UNL     1      29.045   9.798  48.401  1.00  0.00    -0.384 OA
HETATM   25  C15 UNL     1      30.104  10.297  49.165  1.00  0.00     0.202 C 
ENDBRANCH   7  24
TORSDOF 5
ENDMDL
MODEL 8
REMARK VINA RESULT:      -6.5      8.850     11.221
REMARK  5 active torsions:
REMARK  status: ('A' for Active; 'I' for Inactive)
REMARK    1  A    between atoms: O1_2  and  C2_3 
REMARK    2  A    between atoms: C5_6  and  C6_7 
REMARK    3  A    between atoms: N2_9  and  C7_10 
REMARK    4  A    between atoms: C8_12  and  O2_13 
REMARK    5  A    between atoms: C14_20  and  O3_21 
ROOT
HETATM    1  C6  UNL     1      28.536   6.079  48.370  1.00  0.00     0.068 C 
HETATM    2  N1  UNL     1      28.795   7.337  48.318  1.00  0.00    -0.173 NA
HETATM    3  N2  UNL     1      30.148   7.550  48.019  1.00  0.00    -0.229 N 
HETATM    4  C11 UNL     1      30.840   6.296  48.228  1.00  0.00     0.110 A 
HETATM    5  C12 UNL     1      31.660   6.163  49.396  1.00  0.00     0.008 A 
HETATM    6  C13 UNL     1      32.742   5.959  48.715  1.00  0.00     0.006 A 
HETATM    7  C14 UNL     1      32.055   6.066  47.432  1.00  0.00     0.178 A 
HETATM    8  C16 UNL     1      29.745   5.254  48.098  1.00  0.00     0.102 C 
ENDROOT
BRANCH   1   9
HETATM    9  C5  UNL     1      27.208   5.535  48.661  1.00  0.00    -0.010 A 
HETATM   10  C4  UNL     1      27.089   4.241  49.122  1.00  0.00     0.016 A 
HETATM   11  C3  UNL     1      25.887   3.652  49.418  1.00  0.00     0.037 A 
HETATM   12  C2  UNL     1      24.743   4.420  49.238  1.00  0.00     0.068 A 
HETATM   13  C18 UNL     1      24.849   5.723  48.776  1.00  0.00     0.037 A 
HETATM   14  C17 UNL     1      26.068   6.298  48.482  1.00  0.00     0.016 A 
BRANCH  12  15
HETATM   15  O1  UNL     1      23.534   3.826  49.537  1.00  0.00    -0.356 OA
HETATM   16  C1  UNL     1      22.965   2.779  48.814  1.00  0.00     0.210 C 
ENDBRANCH  12  15
ENDBRANCH   1   9
BRANCH   3  17
HETATM   17  C7  UNL     1      30.806   8.771  47.578  1.00  0.00     0.192 A 
HETATM   18  N3  UNL     1      30.830   9.735  48.200  1.00  0.00    -0.198 NA
HETATM   19  C8  UNL     1      31.390  10.901  47.911  1.00  0.00     0.173 A 
HETATM   20  C10 UNL     1      32.048  10.921  46.638  1.00  0.00     0.111 A 
HETATM   21  S1  UNL     1      31.784   9.259  46.000  1.00  0.00    -0.058 SA
BRANCH  19  22
HETATM   22  O2  UNL     1      31.472  12.126  48.600  1.00  0.00    -0.339 OA
HETATM   23  C9  UNL     1      30.262  12.670  49.069  1.00  0.00     0.211 C 
ENDBRANCH  19  22
ENDBRANCH   3  17
BRANCH   7  24
HETATM   24  O3  UNL     1      32.068   4.916  46.635  1.00  0.00    -0.384 OA
HETATM   25  C15 UNL     1      32.784   5.243  45.480  1.00  0.00     0.202 C 
ENDBRANCH   7  24
TORSDOF 5
ENDMDL
MODEL 9
REMARK VINA RESULT:      -6.4     10.773     13.463
REMARK  5 active torsions:
REMARK  status: ('A' for Active; 'I' for Inactive)
REMARK    1  A    between atoms: O1_2  and  C2_3 
REMARK    2  A    between atoms: C5_6  and  C6_7 
REMARK    3  A    between atoms: N2_9  and  C7_10 
REMARK    4  A    between atoms: C8_12  and  O2_13 
REMARK    5  A    between atoms: C14_20  and  O3_21 
ROOT
HETATM    1  C6  UNL     1      30.823   6.540  47.555  1.00  0.00     0.068 C 
HETATM    2  N1  UNL     1      31.205   7.109  46.467  1.00  0.00    -0.173 NA
HETATM    3  N2  UNL     1      32.601   7.059  46.347  1.00  0.00    -0.229 N 
HETATM    4  C11 UNL     1      33.133   6.708  47.647  1.00  0.00     0.110 A 
HETATM    5  C12 UNL     1      33.760   7.739  48.421  1.00  0.00     0.008 A 
HETATM    6  C13 UNL     1      34.905   7.135  48.452  1.00  0.00     0.006 A 
HETATM    7  C14 UNL     1      34.423   6.002  47.669  1.00  0.00     0.178 A 
HETATM    8  C16 UNL     1      31.974   6.012  48.336  1.00  0.00     0.102 C 
ENDROOT
BRANCH   1   9
HETATM    9  C5  UNL     1      29.421   6.430  47.963  1.00  0.00    -0.010 A 
HETATM   10  C4  UNL     1      28.886   5.187  48.230  1.00  0.00     0.016 A 
HETATM   11  C3  UNL     1      27.586   4.991  48.616  1.00  0.00     0.037 A 
HETATM   12  C2  UNL     1      26.784   6.119  48.741  1.00  0.00     0.068 A 
HETATM   13  C18 UNL     1      27.310   7.376  48.477  1.00  0.00     0.037 A 
HETATM   14  C17 UNL     1      28.621   7.552  48.087  1.00  0.00     0.016 A 
BRANCH  12  15
HETATM   15  O1  UNL     1      25.475   5.921  49.131  1.00  0.00    -0.356 OA
HETATM   16  C1  UNL     1      24.927   6.380  50.327  1.00  0.00     0.210 C 
ENDBRANCH  12  15
ENDBRANCH   1   9
BRANCH   3  17
HETATM   17  C7  UNL     1      33.427   7.302  45.175  1.00  0.00     0.192 A 
HETATM   18  N3  UNL     1      33.530   6.556  44.309  1.00  0.00    -0.198 NA
HETATM   19  C8  UNL     1      34.244   6.661  43.198  1.00  0.00     0.173 A 
HETATM   20  C10 UNL     1      34.975   7.889  43.100  1.00  0.00     0.111 A 
HETATM   21  S1  UNL     1      34.553   8.755  44.620  1.00  0.00    -0.058 SA
BRANCH  19  22
HETATM   22  O2  UNL     1      34.432   5.811  42.092  1.00  0.00    -0.339 OA
HETATM   23  C9  UNL     1      33.842   4.535  42.167  1.00  0.00     0.211 C 
ENDBRANCH  19  22
ENDBRANCH   3  17
BRANCH   7  24
HETATM   24  O3  UNL     1      34.441   4.761  48.315  1.00  0.00    -0.384 OA
HETATM   25  C15 UNL     1      34.878   3.829  47.369  1.00  0.00     0.202 C 
ENDBRANCH   7  24
TORSDOF 5
ENDMDL
