MODEL 1
REMARK VINA RESULT:      -7.1      0.000      0.000
REMARK  4 active torsions:
REMARK  status: ('A' for Active; 'I' for Inactive)
REMARK    1  A    between atoms: C3_3  and  C4_4 
REMARK    2  A    between atoms: C5_5  and  C6_6 
REMARK    3  A    between atoms: C7_8  and  O1_9 
REMARK    4  A    between atoms: C13_17  and  N3_18 
ROOT
HETATM    1  C6  UNL     1      27.714   6.199  48.150  1.00  0.00     0.155 C 
HETATM    2  N1  UNL     1      28.991   6.142  48.773  1.00  0.00    -0.359 N 
HETATM    3  C7  UNL     1      30.403   6.229  48.698  1.00  0.00     0.142 C 
HETATM    4  C8  UNL     1      31.413   7.060  48.808  1.00  0.00     0.105 C 
HETATM    5  S1  UNL     1      31.052   8.773  49.193  1.00  0.00    -0.097 SA
HETATM    6  C9  UNL     1      29.298   9.101  48.869  1.00  0.00     0.012 C 
HETATM    7  C10 UNL     1      28.063   9.545  49.023  1.00  0.00    -0.018 C 
HETATM    8  C11 UNL     1      27.869  11.010  48.915  1.00  0.00     0.052 C 
HETATM    9  C12 UNL     1      27.270   8.318  49.265  1.00  0.00     0.078 C 
HETATM   10  N2  UNL     1      26.712   7.907  50.339  1.00  0.00    -0.301 NA
HETATM   11  C13 UNL     1      27.229   7.602  47.966  1.00  0.00     0.241 C 
HETATM   12  C15 UNL     1      27.999   8.305  46.917  1.00  0.00     0.025 C 
HETATM   13  C16 UNL     1      29.131   8.381  47.578  1.00  0.00     0.018 C 
HETATM   14  H9  UNL     1      29.006   5.970  49.833  1.00  0.00     0.162 HD
HETATM   15  H15 UNL     1      26.723   8.377  51.244  1.00  0.00     0.186 HD
ENDROOT
BRANCH   1  16
HETATM   16  C5  UNL     1      26.774   5.455  49.066  1.00  0.00     0.001 C 
HETATM   17  C4  UNL     1      26.993   4.136  49.223  1.00  0.00    -0.002 C 
BRANCH  17  18
HETATM   18  C3  UNL     1      26.289   3.112  50.025  1.00  0.00    -0.005 C 
HETATM   19  C2  UNL     1      26.665   2.542  51.151  1.00  0.00    -0.031 C 
HETATM   20  C1  UNL     1      25.741   1.552  51.711  1.00  0.00     0.036 C 
ENDBRANCH  17  18
ENDBRANCH   1  16
BRANCH  11  21
HETATM   21  N3  UNL     1      25.822   7.489  47.503  1.00  0.00     0.101 N 
HETATM   22  C14 UNL     1      25.549   8.413  46.420  1.00  0.00     0.308 C 
HETATM   23  H16 UNL     1      25.768   6.531  47.086  1.00  0.00     0.317 HD
ENDBRANCH  11  21
BRANCH   3  24
HETATM   24  O1  UNL     1      30.757   4.890  48.385  1.00  0.00    -0.346 OA
HETATM   25  H10 UNL     1      30.463   4.144  48.994  1.00  0.00     0.219 HD
ENDBRANCH   3  24
TORSDOF 4
ENDMDL
MODEL 2
REMARK VINA RESULT:      -6.9      3.644      5.638
REMARK  4 active torsions:
REMARK  status: ('A' for Active; 'I' for Inactive)
REMARK    1  A    between atoms: C3_3  and  C4_4 
REMARK    2  A    between atoms: C5_5  and  C6_6 
REMARK    3  A    between atoms: C7_8  and  O1_9 
REMARK    4  A    between atoms: C13_17  and  N3_18 
ROOT
HETATM    1  C6  UNL     1      25.527   2.989  50.452  1.00  0.00     0.155 C 
HETATM    2  N1  UNL     1      26.252   4.192  50.229  1.00  0.00    -0.359 N 
HETATM    3  C7  UNL     1      26.734   5.194  49.352  1.00  0.00     0.142 C 
HETATM    4  C8  UNL     1      26.443   6.361  48.827  1.00  0.00     0.105 C 
HETATM    5  S1  UNL     1      24.882   7.120  49.280  1.00  0.00    -0.097 SA
HETATM    6  C9  UNL     1      23.799   5.863  50.011  1.00  0.00     0.012 C 
HETATM    7  C10 UNL     1      22.941   5.279  50.829  1.00  0.00    -0.018 C 
HETATM    8  C11 UNL     1      21.547   5.781  50.795  1.00  0.00     0.052 C 
HETATM    9  C12 UNL     1      23.755   4.262  51.533  1.00  0.00     0.078 C 
HETATM   10  N2  UNL     1      24.152   4.232  52.748  1.00  0.00    -0.301 NA
HETATM   11  C13 UNL     1      24.050   3.215  50.524  1.00  0.00     0.241 C 
HETATM   12  C15 UNL     1      23.490   3.546  49.196  1.00  0.00     0.025 C 
HETATM   13  C16 UNL     1      24.048   4.729  49.082  1.00  0.00     0.018 C 
HETATM   14  H9  UNL     1      26.668   4.674  51.093  1.00  0.00     0.162 HD
HETATM   15  H15 UNL     1      23.964   4.935  53.462  1.00  0.00     0.186 HD
ENDROOT
BRANCH   1  16
HETATM   16  C5  UNL     1      26.022   2.448  51.771  1.00  0.00     0.001 C 
HETATM   17  C4  UNL     1      26.797   1.349  51.727  1.00  0.00    -0.002 C 
BRANCH  17  18
HETATM   18  C3  UNL     1      27.447   0.561  52.797  1.00  0.00    -0.005 C 
HETATM   19  C2  UNL     1      28.529   0.844  53.491  1.00  0.00    -0.031 C 
HETATM   20  C1  UNL     1      28.928  -0.147  54.494  1.00  0.00     0.036 C 
ENDBRANCH  17  18
ENDBRANCH   1  16
BRANCH  11  21
HETATM   21  N3  UNL     1      23.462   1.923  50.960  1.00  0.00     0.101 N 
HETATM   22  C14 UNL     1      22.318   1.564  50.144  1.00  0.00     0.308 C 
HETATM   23  H16 UNL     1      24.203   1.218  50.741  1.00  0.00     0.317 HD
ENDBRANCH  11  21
BRANCH   3  24
HETATM   24  O1  UNL     1      27.979   4.646  48.946  1.00  0.00    -0.346 OA
HETATM   25  H10 UNL     1      28.289   3.774  49.341  1.00  0.00     0.219 HD
ENDBRANCH   3  24
TORSDOF 4
ENDMDL
MODEL 3
REMARK VINA RESULT:      -6.6      1.616      2.040
REMARK  4 active torsions:
REMARK  status: ('A' for Active; 'I' for Inactive)
REMARK    1  A    between atoms: C3_3  and  C4_4 
REMARK    2  A    between atoms: C5_5  and  C6_6 
REMARK    3  A    between atoms: C7_8  and  O1_9 
REMARK    4  A    between atoms: C13_17  and  N3_18 
ROOT
HETATM    1  C6  UNL     1      28.958   6.834  47.434  1.00  0.00     0.155 C 
HETATM    2  N1  UNL     1      30.067   6.225  48.084  1.00  0.00    -0.359 N 
HETATM    3  C7  UNL     1      31.395   5.733  48.051  1.00  0.00     0.142 C 
HETATM    4  C8  UNL     1      32.647   6.072  48.248  1.00  0.00     0.105 C 
HETATM    5  S1  UNL     1      32.991   7.758  48.751  1.00  0.00    -0.097 SA
HETATM    6  C9  UNL     1      31.541   8.790  48.408  1.00  0.00     0.012 C 
HETATM    7  C10 UNL     1      30.585   9.690  48.563  1.00  0.00    -0.018 C 
HETATM    8  C11 UNL     1      31.007  11.110  48.560  1.00  0.00     0.052 C 
HETATM    9  C12 UNL     1      29.351   8.881  48.693  1.00  0.00     0.078 C 
HETATM   10  N2  UNL     1      28.618   8.672  49.719  1.00  0.00    -0.301 NA
HETATM   11  C13 UNL     1      29.094   8.321  47.343  1.00  0.00     0.241 C 
HETATM   12  C15 UNL     1      30.138   8.708  46.369  1.00  0.00     0.025 C 
HETATM   13  C16 UNL     1      31.165   8.277  47.063  1.00  0.00     0.018 C 
HETATM   14  H9  UNL     1      29.954   6.001  49.128  1.00  0.00     0.162 HD
HETATM   15  H15 UNL     1      28.770   9.043  50.655  1.00  0.00     0.186 HD
ENDROOT
BRANCH   1  16
HETATM   16  C5  UNL     1      27.750   6.486  48.268  1.00  0.00     0.001 C 
HETATM   17  C4  UNL     1      27.583   5.190  48.588  1.00  0.00    -0.002 C 
BRANCH  17  18
HETATM   18  C3  UNL     1      26.537   4.498  49.373  1.00  0.00    -0.005 C 
HETATM   19  C2  UNL     1      26.470   3.230  49.723  1.00  0.00    -0.031 C 
HETATM   20  C1  UNL     1      25.296   2.841  50.509  1.00  0.00     0.036 C 
ENDBRANCH  17  18
ENDBRANCH   1  16
BRANCH  11  21
HETATM   21  N3  UNL     1      27.789   8.818  46.838  1.00  0.00     0.101 N 
HETATM   22  C14 UNL     1      27.903  10.170  46.326  1.00  0.00     0.308 C 
HETATM   23  H16 UNL     1      27.589   8.213  46.008  1.00  0.00     0.317 HD
ENDBRANCH  11  21
BRANCH   3  24
HETATM   24  O1  UNL     1      31.192   4.386  47.648  1.00  0.00    -0.346 OA
HETATM   25  H10 UNL     1      31.940   3.721  47.751  1.00  0.00     0.219 HD
ENDBRANCH   3  24
TORSDOF 4
ENDMDL
MODEL 4
REMARK VINA RESULT:      -6.5      8.153     10.038
REMARK  4 active torsions:
REMARK  status: ('A' for Active; 'I' for Inactive)
REMARK    1  A    between atoms: C3_3  and  C4_4 
REMARK    2  A    between atoms: C5_5  and  C6_6 
REMARK    3  A    between atoms: C7_8  and  O1_9 
REMARK    4  A    between atoms: C13_17  and  N3_18 
ROOT
HETATM    1  C6  UNL     1      22.029   1.535  52.961  1.00  0.00     0.155 C 
HETATM    2  N1  UNL     1      21.203   0.381  52.862  1.00  0.00    -0.359 N 
HETATM    3  C7  UNL     1      20.001  -0.301  53.168  1.00  0.00     0.142 C 
HETATM    4  C8  UNL     1      18.781  -0.527  52.740  1.00  0.00     0.105 C 
HETATM    5  S1  UNL     1      18.274   0.245  51.203  1.00  0.00    -0.097 SA
HETATM    6  C9  UNL     1      19.424   1.588  50.803  1.00  0.00     0.012 C 
HETATM    7  C10 UNL     1      20.226   2.380  50.112  1.00  0.00    -0.018 C 
HETATM    8  C11 UNL     1      19.582   3.273  49.121  1.00  0.00     0.052 C 
HETATM    9  C12 UNL     1      21.577   2.054  50.625  1.00  0.00     0.078 C 
HETATM   10  N2  UNL     1      22.537   1.431  50.055  1.00  0.00    -0.301 NA
HETATM   11  C13 UNL     1      21.630   2.610  51.999  1.00  0.00     0.241 C 
HETATM   12  C15 UNL     1      20.353   3.240  52.397  1.00  0.00     0.025 C 
HETATM   13  C16 UNL     1      19.584   2.206  52.147  1.00  0.00     0.018 C 
HETATM   14  H9  UNL     1      21.572  -0.429  52.262  1.00  0.00     0.162 HD
HETATM   15  H15 UNL     1      22.529   1.041  49.113  1.00  0.00     0.186 HD
ENDROOT
BRANCH   1  16
HETATM   16  C5  UNL     1      23.429   1.068  52.645  1.00  0.00     0.001 C 
HETATM   17  C4  UNL     1      23.915   0.054  53.385  1.00  0.00    -0.002 C 
BRANCH  17  18
HETATM   18  C3  UNL     1      25.217  -0.647  53.357  1.00  0.00    -0.005 C 
HETATM   19  C2  UNL     1      26.269  -0.407  52.603  1.00  0.00    -0.031 C 
HETATM   20  C1  UNL     1      27.423  -1.285  52.810  1.00  0.00     0.036 C 
ENDBRANCH  17  18
ENDBRANCH   1  16
BRANCH  11  21
HETATM   21  N3  UNL     1      22.695   3.642  52.079  1.00  0.00     0.101 N 
HETATM   22  C14 UNL     1      22.140   4.978  51.985  1.00  0.00     0.308 C 
HETATM   23  H16 UNL     1      23.065   3.552  53.053  1.00  0.00     0.317 HD
ENDBRANCH  11  21
BRANCH   3  24
HETATM   24  O1  UNL     1      20.335  -0.936  54.393  1.00  0.00    -0.346 OA
HETATM   25  H10 UNL     1      19.777  -1.706  54.721  1.00  0.00     0.219 HD
ENDBRANCH   3  24
TORSDOF 4
ENDMDL
MODEL 5
REMARK VINA RESULT:      -6.4      2.073      2.326
REMARK  4 active torsions:
REMARK  status: ('A' for Active; 'I' for Inactive)
REMARK    1  A    between atoms: C3_3  and  C4_4 
REMARK    2  A    between atoms: C5_5  and  C6_6 
REMARK    3  A    between atoms: C7_8  and  O1_9 
REMARK    4  A    between atoms: C13_17  and  N3_18 
ROOT
HETATM    1  C6  UNL     1      26.714   7.576  48.875  1.00  0.00     0.155 C 
HETATM    2  N1  UNL     1      27.893   6.802  49.055  1.00  0.00    -0.359 N 
HETATM    3  C7  UNL     1      29.014   6.122  48.518  1.00  0.00     0.142 C 
HETATM    4  C8  UNL     1      30.274   6.272  48.183  1.00  0.00     0.105 C 
HETATM    5  S1  UNL     1      31.022   7.882  48.427  1.00  0.00    -0.097 SA
HETATM    6  C9  UNL     1      29.715   9.120  48.645  1.00  0.00     0.012 C 
HETATM    7  C10 UNL     1      29.038  10.148  49.126  1.00  0.00    -0.018 C 
HETATM    8  C11 UNL     1      29.617  11.491  48.890  1.00  0.00     0.052 C 
HETATM    9  C12 UNL     1      27.861   9.526  49.775  1.00  0.00     0.078 C 
HETATM   10  N2  UNL     1      27.580   9.412  51.017  1.00  0.00    -0.301 NA
HETATM   11  C13 UNL     1      27.007   9.029  48.668  1.00  0.00     0.241 C 
HETATM   12  C15 UNL     1      27.615   9.272  47.342  1.00  0.00     0.025 C 
HETATM   13  C16 UNL     1      28.764   8.686  47.587  1.00  0.00     0.018 C 
HETATM   14  H9  UNL     1      28.180   6.583  50.067  1.00  0.00     0.162 HD
HETATM   15  H15 UNL     1      28.146   9.745  51.797  1.00  0.00     0.186 HD
ENDROOT
BRANCH   1  16
HETATM   16  C5  UNL     1      25.907   7.397  50.137  1.00  0.00     0.001 C 
HETATM   17  C4  UNL     1      24.901   6.504  50.096  1.00  0.00    -0.002 C 
BRANCH  17  18
HETATM   18  C3  UNL     1      23.922   6.077  51.120  1.00  0.00    -0.005 C 
HETATM   19  C2  UNL     1      23.655   4.863  51.552  1.00  0.00    -0.031 C 
HETATM   20  C1  UNL     1      22.621   4.760  52.585  1.00  0.00     0.036 C 
ENDBRANCH  17  18
ENDBRANCH   1  16
BRANCH  11  21
HETATM   21  N3  UNL     1      25.692   9.718  48.704  1.00  0.00     0.101 N 
HETATM   22  C14 UNL     1      25.753  11.000  48.029  1.00  0.00     0.308 C 
HETATM   23  H16 UNL     1      25.072   9.113  48.118  1.00  0.00     0.317 HD
ENDBRANCH  11  21
BRANCH   3  24
HETATM   24  O1  UNL     1      28.481   4.825  48.292  1.00  0.00    -0.346 OA
HETATM   25  H10 UNL     1      28.604   4.111  48.990  1.00  0.00     0.219 HD
ENDBRANCH   3  24
TORSDOF 4
ENDMDL
MODEL 6
REMARK VINA RESULT:      -6.4      6.195      7.906
REMARK  4 active torsions:
REMARK  status: ('A' for Active; 'I' for Inactive)
REMARK    1  A    between atoms: C3_3  and  C4_4 
REMARK    2  A    between atoms: C5_5  and  C6_6 
REMARK    3  A    between atoms: C7_8  and  O1_9 
REMARK    4  A    between atoms: C13_17  and  N3_18 
ROOT
HETATM    1  C6  UNL     1      23.633   2.729  52.633  1.00  0.00     0.155 C 
HETATM    2  N1  UNL     1      23.145   1.487  52.139  1.00  0.00    -0.359 N 
HETATM    3  C7  UNL     1      22.066   0.618  51.845  1.00  0.00     0.142 C 
HETATM    4  C8  UNL     1      21.224   0.270  50.901  1.00  0.00     0.105 C 
HETATM    5  S1  UNL     1      21.338   1.110  49.321  1.00  0.00    -0.097 SA
HETATM    6  C9  UNL     1      22.303   2.632  49.524  1.00  0.00     0.012 C 
HETATM    7  C10 UNL     1      23.184   3.590  49.296  1.00  0.00    -0.018 C 
HETATM    8  C11 UNL     1      22.912   4.477  48.141  1.00  0.00     0.052 C 
HETATM    9  C12 UNL     1      24.195   3.405  50.362  1.00  0.00     0.078 C 
HETATM   10  N2  UNL     1      25.398   2.980  50.280  1.00  0.00    -0.301 NA
HETATM   11  C13 UNL     1      23.533   3.827  51.621  1.00  0.00     0.241 C 
HETATM   12  C15 UNL     1      22.128   4.233  51.404  1.00  0.00     0.025 C 
HETATM   13  C16 UNL     1      21.738   3.132  50.806  1.00  0.00     0.018 C 
HETATM   14  H9  UNL     1      23.873   0.798  51.756  1.00  0.00     0.162 HD
HETATM   15  H15 UNL     1      25.878   2.686  49.430  1.00  0.00     0.186 HD
ENDROOT
BRANCH   1  16
HETATM   16  C5  UNL     1      25.082   2.492  52.981  1.00  0.00     0.001 C 
HETATM   17  C4  UNL     1      25.409   1.266  53.428  1.00  0.00    -0.002 C 
BRANCH  17  18
HETATM   18  C3  UNL     1      26.702   0.688  53.855  1.00  0.00    -0.005 C 
HETATM   19  C2  UNL     1      27.574   0.000  53.147  1.00  0.00    -0.031 C 
HETATM   20  C1  UNL     1      28.775  -0.443  53.859  1.00  0.00     0.036 C 
ENDBRANCH  17  18
ENDBRANCH   1  16
BRANCH  11  21
HETATM   21  N3  UNL     1      24.260   4.984  52.204  1.00  0.00     0.101 N 
HETATM   22  C14 UNL     1      23.947   6.211  51.497  1.00  0.00     0.308 C 
HETATM   23  H16 UNL     1      23.848   5.089  53.159  1.00  0.00     0.317 HD
ENDBRANCH  11  21
BRANCH   3  24
HETATM   24  O1  UNL     1      21.917  -0.080  53.072  1.00  0.00    -0.346 OA
HETATM   25  H10 UNL     1      21.934   0.432  53.938  1.00  0.00     0.219 HD
ENDBRANCH   3  24
TORSDOF 4
ENDMDL
MODEL 7
REMARK VINA RESULT:      -6.2      4.267      5.895
REMARK  4 active torsions:
REMARK  status: ('A' for Active; 'I' for Inactive)
REMARK    1  A    between atoms: C3_3  and  C4_4 
REMARK    2  A    between atoms: C5_5  and  C6_6 
REMARK    3  A    between atoms: C7_8  and  O1_9 
REMARK    4  A    between atoms: C13_17  and  N3_18 
ROOT
HETATM    1  C6  UNL     1      23.549   3.077  50.604  1.00  0.00     0.155 C 
HETATM    2  N1  UNL     1      24.889   3.544  50.518  1.00  0.00    -0.359 N 
HETATM    3  C7  UNL     1      26.006   3.943  49.745  1.00  0.00     0.142 C 
HETATM    4  C8  UNL     1      26.586   4.983  49.192  1.00  0.00     0.105 C 
HETATM    5  S1  UNL     1      25.803   6.584  49.390  1.00  0.00    -0.097 SA
HETATM    6  C9  UNL     1      24.084   6.346  49.918  1.00  0.00     0.012 C 
HETATM    7  C10 UNL     1      22.949   6.500  50.576  1.00  0.00    -0.018 C 
HETATM    8  C11 UNL     1      22.198   7.751  50.317  1.00  0.00     0.052 C 
HETATM    9  C12 UNL     1      22.840   5.269  51.392  1.00  0.00     0.078 C 
HETATM   10  N2  UNL     1      22.960   5.116  52.656  1.00  0.00    -0.301 NA
HETATM   11  C13 UNL     1      22.547   4.175  50.434  1.00  0.00     0.241 C 
HETATM   12  C15 UNL     1      22.506   4.654  49.035  1.00  0.00     0.025 C 
HETATM   13  C16 UNL     1      23.691   5.219  49.029  1.00  0.00     0.018 C 
HETATM   14  H9  UNL     1      25.393   3.744  51.445  1.00  0.00     0.162 HD
HETATM   15  H15 UNL     1      23.160   5.847  53.336  1.00  0.00     0.186 HD
ENDROOT
BRANCH   1  16
HETATM   16  C5  UNL     1      23.409   2.474  51.980  1.00  0.00     0.001 C 
HETATM   17  C4  UNL     1      23.505   1.135  52.072  1.00  0.00    -0.002 C 
BRANCH  17  18
HETATM   18  C3  UNL     1      23.421   0.220  53.232  1.00  0.00    -0.005 C 
HETATM   19  C2  UNL     1      22.351  -0.247  53.839  1.00  0.00    -0.031 C 
HETATM   20  C1  UNL     1      22.595  -1.144  54.972  1.00  0.00     0.036 C 
ENDBRANCH  17  18
ENDBRANCH   1  16
BRANCH  11  21
HETATM   21  N3  UNL     1      21.227   3.574  50.751  1.00  0.00     0.101 N 
HETATM   22  C14 UNL     1      20.158   4.242  50.033  1.00  0.00     0.308 C 
HETATM   23  H16 UNL     1      21.283   2.609  50.351  1.00  0.00     0.317 HD
ENDBRANCH  11  21
BRANCH   3  24
HETATM   24  O1  UNL     1      26.674   2.706  49.544  1.00  0.00    -0.346 OA
HETATM   25  H10 UNL     1      27.122   2.253  50.323  1.00  0.00     0.219 HD
ENDBRANCH   3  24
TORSDOF 4
ENDMDL
MODEL 8
REMARK VINA RESULT:      -6.1      5.336      7.883
REMARK  4 active torsions:
REMARK  status: ('A' for Active; 'I' for Inactive)
REMARK    1  A    between atoms: C3_3  and  C4_4 
REMARK    2  A    between atoms: C5_5  and  C6_6 
REMARK    3  A    between atoms: C7_8  and  O1_9 
REMARK    4  A    between atoms: C13_17  and  N3_18 
ROOT
HETATM    1  C6  UNL     1      23.787   3.861  50.407  1.00  0.00     0.155 C 
HETATM    2  N1  UNL     1      25.016   3.153  50.303  1.00  0.00    -0.359 N 
HETATM    3  C7  UNL     1      26.293   2.823  50.818  1.00  0.00     0.142 C 
HETATM    4  C8  UNL     1      26.930   1.967  51.582  1.00  0.00     0.105 C 
HETATM    5  S1  UNL     1      25.979   0.652  52.344  1.00  0.00    -0.097 SA
HETATM    6  C9  UNL     1      24.217   1.078  52.281  1.00  0.00     0.012 C 
HETATM    7  C10 UNL     1      22.911   0.963  52.114  1.00  0.00    -0.018 C 
HETATM    8  C11 UNL     1      22.189   0.127  53.101  1.00  0.00     0.052 C 
HETATM    9  C12 UNL     1      22.634   1.775  50.907  1.00  0.00     0.078 C 
HETATM   10  N2  UNL     1      22.304   1.400  49.730  1.00  0.00    -0.301 NA
HETATM   11  C13 UNL     1      22.814   3.188  51.323  1.00  0.00     0.241 C 
HETATM   12  C15 UNL     1      23.235   3.305  52.736  1.00  0.00     0.025 C 
HETATM   13  C16 UNL     1      24.282   2.517  52.652  1.00  0.00     0.018 C 
HETATM   14  H9  UNL     1      25.129   2.499  49.460  1.00  0.00     0.162 HD
HETATM   15  H15 UNL     1      22.172   0.439  49.417  1.00  0.00     0.186 HD
ENDROOT
BRANCH   1  16
HETATM   16  C5  UNL     1      23.218   3.906  49.010  1.00  0.00     0.001 C 
HETATM   17  C4  UNL     1      23.199   5.104  48.398  1.00  0.00    -0.002 C 
BRANCH  17  18
HETATM   18  C3  UNL     1      22.725   5.517  47.059  1.00  0.00    -0.005 C 
HETATM   19  C2  UNL     1      22.801   6.699  46.484  1.00  0.00    -0.031 C 
HETATM   20  C1  UNL     1      22.236   6.796  45.135  1.00  0.00     0.036 C 
ENDBRANCH  17  18
ENDBRANCH   1  16
BRANCH  11  21
HETATM   21  N3  UNL     1      21.532   3.921  51.165  1.00  0.00     0.101 N 
HETATM   22  C14 UNL     1      20.608   3.602  52.235  1.00  0.00     0.308 C 
HETATM   23  H16 UNL     1      21.794   4.925  51.300  1.00  0.00     0.317 HD
ENDBRANCH  11  21
BRANCH   3  24
HETATM   24  O1  UNL     1      27.104   3.842  50.252  1.00  0.00    -0.346 OA
HETATM   25  H10 UNL     1      26.676   4.566  49.699  1.00  0.00     0.219 HD
ENDBRANCH   3  24
TORSDOF 4
ENDMDL
MODEL 9
REMARK VINA RESULT:      -6.0      5.434      8.288
REMARK  4 active torsions:
REMARK  status: ('A' for Active; 'I' for Inactive)
REMARK    1  A    between atoms: C3_3  and  C4_4 
REMARK    2  A    between atoms: C5_5  and  C6_6 
REMARK    3  A    between atoms: C7_8  and  O1_9 
REMARK    4  A    between atoms: C13_17  and  N3_18 
ROOT
HETATM    1  C6  UNL     1      23.041   4.544  50.380  1.00  0.00     0.155 C 
HETATM    2  N1  UNL     1      21.930   3.768  50.813  1.00  0.00    -0.359 N 
HETATM    3  C7  UNL     1      21.163   2.579  50.757  1.00  0.00     0.142 C 
HETATM    4  C8  UNL     1      21.024   1.390  51.295  1.00  0.00     0.105 C 
HETATM    5  S1  UNL     1      22.148   0.929  52.614  1.00  0.00    -0.097 SA
HETATM    6  C9  UNL     1      23.577   2.045  52.596  1.00  0.00     0.012 C 
HETATM    7  C10 UNL     1      24.537   2.848  53.018  1.00  0.00    -0.018 C 
HETATM    8  C11 UNL     1      25.637   2.218  53.786  1.00  0.00     0.052 C 
HETATM    9  C12 UNL     1      24.125   4.184  52.530  1.00  0.00     0.078 C 
HETATM   10  N2  UNL     1      23.692   5.194  53.184  1.00  0.00    -0.301 NA
HETATM   11  C13 UNL     1      24.315   4.150  51.059  1.00  0.00     0.241 C 
HETATM   12  C15 UNL     1      24.792   2.832  50.587  1.00  0.00     0.025 C 
HETATM   13  C16 UNL     1      23.836   2.116  51.133  1.00  0.00     0.018 C 
HETATM   14  H9  UNL     1      21.308   4.196  51.576  1.00  0.00     0.162 HD
HETATM   15  H15 UNL     1      23.554   5.245  54.193  1.00  0.00     0.186 HD
ENDROOT
BRANCH   1  16
HETATM   16  C5  UNL     1      22.704   5.973  50.724  1.00  0.00     0.001 C 
HETATM   17  C4  UNL     1      21.566   6.473  50.208  1.00  0.00    -0.002 C 
BRANCH  17  18
HETATM   18  C3  UNL     1      20.933   7.805  50.329  1.00  0.00    -0.005 C 
HETATM   19  C2  UNL     1      19.904   8.293  49.670  1.00  0.00    -0.031 C 
HETATM   20  C1  UNL     1      19.507   9.660  50.018  1.00  0.00     0.036 C 
ENDBRANCH  17  18
ENDBRANCH   1  16
BRANCH  11  21
HETATM   21  N3  UNL     1      25.319   5.170  50.661  1.00  0.00     0.101 N 
HETATM   22  C14 UNL     1      26.104   4.721  49.528  1.00  0.00     0.308 C 
HETATM   23  H16 UNL     1      24.744   5.972  50.313  1.00  0.00     0.317 HD
ENDBRANCH  11  21
BRANCH   3  24
HETATM   24  O1  UNL     1      20.246   2.878  49.714  1.00  0.00    -0.346 OA
HETATM   25  H10 UNL     1      20.594   3.187  48.822  1.00  0.00     0.219 HD
ENDBRANCH   3  24
TORSDOF 4
ENDMDL
