MODEL 1
REMARK VINA RESULT:      -8.5      0.000      0.000
REMARK  5 active torsions:
REMARK  status: ('A' for Active; 'I' for Inactive)
REMARK    1  A    between atoms: N1_1  and  C1_2 
REMARK    2  A    between atoms: C2_3  and  C3_4 
REMARK    3  A    between atoms: C4_6  and  C5_7 
REMARK    4  A    between atoms: C6_8  and  N2_9 
REMARK    5  A    between atoms: N2_9  and  C7_10 
ROOT
HETATM    1  C7  UNL     1      24.350   2.669  53.030  1.00  0.00     0.159 A 
HETATM    2  N3  UNL     1      23.177   2.190  52.562  1.00  0.00    -0.222 NA
HETATM    3  C8  UNL     1      22.937   0.856  52.493  1.00  0.00     0.238 A 
HETATM    4  N4  UNL     1      23.890  -0.024  52.901  1.00  0.00    -0.215 NA
HETATM    5  C9  UNL     1      25.073   0.406  53.374  1.00  0.00     0.202 A 
HETATM    6  C10 UNL     1      25.287   1.746  53.431  1.00  0.00     0.129 A 
HETATM    7  N5  UNL     1      26.417   2.490  53.863  1.00  0.00    -0.379 N 
HETATM    8  C11 UNL     1      27.796   2.103  54.038  1.00  0.00     0.161 C 
HETATM    9  C12 UNL     1      28.078   0.686  53.762  1.00  0.00    -0.007 A 
HETATM   10  C13 UNL     1      29.463   0.589  53.599  1.00  0.00     0.011 A 
HETATM   11  C14 UNL     1      30.061  -0.623  53.328  1.00  0.00     0.001 A 
HETATM   12  C15 UNL     1      29.327  -1.785  53.206  1.00  0.00     0.003 A 
HETATM   13  C16 UNL     1      27.953  -1.726  53.360  1.00  0.00     0.038 A 
HETATM   14  C17 UNL     1      27.367  -0.508  53.631  1.00  0.00     0.086 A 
HETATM   15  O1  UNL     1      25.980  -0.565  53.765  1.00  0.00    -0.289 OA
HETATM   16  H10 UNL     1      26.241   3.491  54.099  1.00  0.00     0.160 HD
ENDROOT
BRANCH   1  17
HETATM   17  N2  UNL     1      24.414   4.096  53.033  1.00  0.00    -0.349 N 
HETATM   18  H8  UNL     1      25.102   4.606  53.617  1.00  0.00     0.167 HD
BRANCH  17  19
HETATM   19  C6  UNL     1      23.494   4.809  52.201  1.00  0.00     0.090 C 
HETATM   20  C5  UNL     1      23.831   5.442  51.118  1.00  0.00     0.020 C 
BRANCH  20  21
HETATM   21  C4  UNL     1      24.991   5.744  50.307  1.00  0.00     0.043 C 
HETATM   22  C3  UNL     1      25.827   5.102  49.522  1.00  0.00     0.117 C 
HETATM   23  F1  UNL     1      26.800   5.828  48.945  1.00  0.00    -0.206 F 
BRANCH  22  24
HETATM   24  C2  UNL     1      25.626   3.698  49.351  1.00  0.00     0.053 C 
HETATM   25  C1  UNL     1      26.267   2.763  50.019  1.00  0.00     0.057 C 
BRANCH  25  26
HETATM   26  N1  UNL     1      27.103   3.585  50.848  1.00  0.00    -0.312 NA
HETATM   27  H1  UNL     1      27.634   4.185  50.165  1.00  0.00     0.123 HD
HETATM   28  H2  UNL     1      27.809   4.338  50.616  1.00  0.00     0.123 HD
ENDBRANCH  25  26
ENDBRANCH  22  24
ENDBRANCH  20  21
ENDBRANCH  17  19
ENDBRANCH   1  17
TORSDOF 5
ENDMDL
MODEL 2
REMARK VINA RESULT:      -7.9      1.873      4.531
REMARK  5 active torsions:
REMARK  status: ('A' for Active; 'I' for Inactive)
REMARK    1  A    between atoms: N1_1  and  C1_2 
REMARK    2  A    between atoms: C2_3  and  C3_4 
REMARK    3  A    between atoms: C4_6  and  C5_7 
REMARK    4  A    between atoms: C6_8  and  N2_9 
REMARK    5  A    between atoms: N2_9  and  C7_10 
ROOT
HETATM    1  C7  UNL     1      26.378   2.438  51.840  1.00  0.00     0.159 A 
HETATM    2  N3  UNL     1      27.620   2.248  52.333  1.00  0.00    -0.222 NA
HETATM    3  C8  UNL     1      27.911   1.182  53.121  1.00  0.00     0.238 A 
HETATM    4  N4  UNL     1      26.939   0.281  53.425  1.00  0.00    -0.215 NA
HETATM    5  C9  UNL     1      25.686   0.429  52.958  1.00  0.00     0.202 A 
HETATM    6  C10 UNL     1      25.424   1.505  52.172  1.00  0.00     0.129 A 
HETATM    7  N5  UNL     1      24.220   1.930  51.550  1.00  0.00    -0.379 N 
HETATM    8  C11 UNL     1      22.843   1.591  51.818  1.00  0.00     0.161 C 
HETATM    9  C12 UNL     1      22.650   0.604  52.891  1.00  0.00    -0.007 A 
HETATM   10  C13 UNL     1      21.306   0.695  53.267  1.00  0.00     0.011 A 
HETATM   11  C14 UNL     1      20.793  -0.108  54.262  1.00  0.00     0.001 A 
HETATM   12  C15 UNL     1      21.574  -1.031  54.926  1.00  0.00     0.003 A 
HETATM   13  C16 UNL     1      22.909  -1.147  54.582  1.00  0.00     0.038 A 
HETATM   14  C17 UNL     1      23.410  -0.338  53.585  1.00  0.00     0.086 A 
HETATM   15  O1  UNL     1      24.765  -0.538  53.321  1.00  0.00    -0.289 OA
HETATM   16  H10 UNL     1      24.327   2.605  50.761  1.00  0.00     0.160 HD
ENDROOT
BRANCH   1  17
HETATM   17  N2  UNL     1      26.268   3.607  51.027  1.00  0.00    -0.349 N 
HETATM   18  H8  UNL     1      25.823   4.475  51.383  1.00  0.00     0.167 HD
BRANCH  17  19
HETATM   19  C6  UNL     1      26.792   3.551  49.697  1.00  0.00     0.090 C 
HETATM   20  C5  UNL     1      26.985   4.592  48.945  1.00  0.00     0.020 C 
BRANCH  20  21
HETATM   21  C4  UNL     1      26.836   6.031  48.957  1.00  0.00     0.043 C 
HETATM   22  C3  UNL     1      25.865   6.911  49.053  1.00  0.00     0.117 C 
HETATM   23  F1  UNL     1      26.212   8.209  49.021  1.00  0.00    -0.206 F 
BRANCH  22  24
HETATM   24  C2  UNL     1      24.532   6.412  49.185  1.00  0.00     0.053 C 
HETATM   25  C1  UNL     1      23.900   6.258  50.329  1.00  0.00     0.057 C 
BRANCH  25  26
HETATM   26  N1  UNL     1      24.918   6.718  51.233  1.00  0.00    -0.312 NA
HETATM   27  H1  UNL     1      24.681   6.253  52.147  1.00  0.00     0.123 HD
HETATM   28  H2  UNL     1      25.095   6.524  52.257  1.00  0.00     0.123 HD
ENDBRANCH  25  26
ENDBRANCH  22  24
ENDBRANCH  20  21
ENDBRANCH  17  19
ENDBRANCH   1  17
TORSDOF 5
ENDMDL
MODEL 3
REMARK VINA RESULT:      -7.6      3.011      6.496
REMARK  5 active torsions:
REMARK  status: ('A' for Active; 'I' for Inactive)
REMARK    1  A    between atoms: N1_1  and  C1_2 
REMARK    2  A    between atoms: C2_3  and  C3_4 
REMARK    3  A    between atoms: C4_6  and  C5_7 
REMARK    4  A    between atoms: C6_8  and  N2_9 
REMARK    5  A    between atoms: N2_9  and  C7_10 
ROOT
HETATM    1  C7  UNL     1      24.060   3.872  52.089  1.00  0.00     0.159 A 
HETATM    2  N3  UNL     1      22.875   4.296  52.579  1.00  0.00    -0.222 NA
HETATM    3  C8  UNL     1      22.123   5.209  51.914  1.00  0.00     0.238 A 
HETATM    4  N4  UNL     1      22.562   5.713  50.730  1.00  0.00    -0.215 NA
HETATM    5  C9  UNL     1      23.736   5.321  50.203  1.00  0.00     0.202 A 
HETATM    6  C10 UNL     1      24.468   4.407  50.890  1.00  0.00     0.129 A 
HETATM    7  N5  UNL     1      25.728   3.818  50.601  1.00  0.00    -0.379 N 
HETATM    8  C11 UNL     1      26.786   4.232  49.713  1.00  0.00     0.161 C 
HETATM    9  C12 UNL     1      26.500   5.451  48.939  1.00  0.00    -0.007 A 
HETATM   10  C13 UNL     1      27.733   5.905  48.459  1.00  0.00     0.011 A 
HETATM   11  C14 UNL     1      27.814   7.043  47.685  1.00  0.00     0.001 A 
HETATM   12  C15 UNL     1      26.695   7.777  47.352  1.00  0.00     0.003 A 
HETATM   13  C16 UNL     1      25.459   7.358  47.811  1.00  0.00     0.038 A 
HETATM   14  C17 UNL     1      25.391   6.218  48.585  1.00  0.00     0.086 A 
HETATM   15  O1  UNL     1      24.099   5.889  48.993  1.00  0.00    -0.289 OA
HETATM   16  H10 UNL     1      25.945   2.933  51.109  1.00  0.00     0.160 HD
ENDROOT
BRANCH   1  17
HETATM   17  N2  UNL     1      24.701   2.907  52.924  1.00  0.00    -0.349 N 
HETATM   18  H8  UNL     1      25.500   3.162  53.534  1.00  0.00     0.167 HD
BRANCH  17  19
HETATM   19  C6  UNL     1      24.207   1.564  52.895  1.00  0.00     0.090 C 
HETATM   20  C5  UNL     1      24.787   0.562  53.485  1.00  0.00     0.020 C 
BRANCH  20  21
HETATM   21  C4  UNL     1      25.945   0.250  54.295  1.00  0.00     0.043 C 
HETATM   22  C3  UNL     1      27.252   0.344  54.205  1.00  0.00     0.117 C 
HETATM   23  F1  UNL     1      27.969  -0.088  55.258  1.00  0.00    -0.206 F 
BRANCH  22  24
HETATM   24  C2  UNL     1      27.794   0.897  53.003  1.00  0.00     0.053 C 
HETATM   25  C1  UNL     1      28.094   2.167  52.832  1.00  0.00     0.057 C 
BRANCH  25  26
HETATM   26  N1  UNL     1      27.722   2.680  54.121  1.00  0.00    -0.312 NA
HETATM   27  H1  UNL     1      28.640   2.841  54.610  1.00  0.00     0.123 HD
HETATM   28  H2  UNL     1      28.298   2.985  54.955  1.00  0.00     0.123 HD
ENDBRANCH  25  26
ENDBRANCH  22  24
ENDBRANCH  20  21
ENDBRANCH  17  19
ENDBRANCH   1  17
TORSDOF 5
ENDMDL
MODEL 4
REMARK VINA RESULT:      -7.3      3.024      4.912
REMARK  5 active torsions:
REMARK  status: ('A' for Active; 'I' for Inactive)
REMARK    1  A    between atoms: N1_1  and  C1_2 
REMARK    2  A    between atoms: C2_3  and  C3_4 
REMARK    3  A    between atoms: C4_6  and  C5_7 
REMARK    4  A    between atoms: C6_8  and  N2_9 
REMARK    5  A    between atoms: N2_9  and  C7_10 
ROOT
HETATM    1  C7  UNL     1      25.295   4.562  49.912  1.00  0.00     0.159 A 
HETATM    2  N3  UNL     1      24.630   5.084  48.858  1.00  0.00    -0.222 NA
HETATM    3  C8  UNL     1      23.308   4.841  48.669  1.00  0.00     0.238 A 
HETATM    4  N4  UNL     1      22.631   4.061  49.552  1.00  0.00    -0.215 NA
HETATM    5  C9  UNL     1      23.251   3.520  50.616  1.00  0.00     0.202 A 
HETATM    6  C10 UNL     1      24.574   3.778  50.780  1.00  0.00     0.129 A 
HETATM    7  N5  UNL     1      25.487   3.349  51.780  1.00  0.00    -0.379 N 
HETATM    8  C11 UNL     1      25.424   2.252  52.714  1.00  0.00     0.161 C 
HETATM    9  C12 UNL     1      24.183   1.464  52.655  1.00  0.00    -0.007 A 
HETATM   10  C13 UNL     1      24.454   0.261  53.316  1.00  0.00     0.011 A 
HETATM   11  C14 UNL     1      23.485  -0.711  53.441  1.00  0.00     0.001 A 
HETATM   12  C15 UNL     1      22.217  -0.544  52.924  1.00  0.00     0.003 A 
HETATM   13  C16 UNL     1      21.914   0.632  52.263  1.00  0.00     0.038 A 
HETATM   14  C17 UNL     1      22.891   1.598  52.145  1.00  0.00     0.086 A 
HETATM   15  O1  UNL     1      22.478   2.740  51.460  1.00  0.00    -0.289 OA
HETATM   16  H10 UNL     1      26.363   3.910  51.869  1.00  0.00     0.160 HD
ENDROOT
BRANCH   1  17
HETATM   17  N2  UNL     1      26.674   4.933  49.946  1.00  0.00    -0.349 N 
HETATM   18  H8  UNL     1      27.112   5.315  50.805  1.00  0.00     0.167 HD
BRANCH  17  19
HETATM   19  C6  UNL     1      27.443   4.762  48.751  1.00  0.00     0.090 C 
HETATM   20  C5  UNL     1      28.223   5.671  48.250  1.00  0.00     0.020 C 
BRANCH  20  21
HETATM   21  C4  UNL     1      28.676   7.024  48.495  1.00  0.00     0.043 C 
HETATM   22  C3  UNL     1      28.152   8.225  48.598  1.00  0.00     0.117 C 
HETATM   23  F1  UNL     1      28.998   9.239  48.850  1.00  0.00    -0.206 F 
BRANCH  22  24
HETATM   24  C2  UNL     1      26.737   8.344  48.439  1.00  0.00     0.053 C 
HETATM   25  C1  UNL     1      25.871   8.361  49.430  1.00  0.00     0.057 C 
BRANCH  25  26
HETATM   26  N1  UNL     1      26.770   8.236  50.542  1.00  0.00    -0.312 NA
HETATM   27  H1  UNL     1      26.703   7.222  50.816  1.00  0.00     0.123 HD
HETATM   28  H2  UNL     1      27.036   7.411  51.149  1.00  0.00     0.123 HD
ENDBRANCH  25  26
ENDBRANCH  22  24
ENDBRANCH  20  21
ENDBRANCH  17  19
ENDBRANCH   1  17
TORSDOF 5
ENDMDL
MODEL 5
REMARK VINA RESULT:      -7.1      2.523      4.736
REMARK  5 active torsions:
REMARK  status: ('A' for Active; 'I' for Inactive)
REMARK    1  A    between atoms: N1_1  and  C1_2 
REMARK    2  A    between atoms: C2_3  and  C3_4 
REMARK    3  A    between atoms: C4_6  and  C5_7 
REMARK    4  A    between atoms: C6_8  and  N2_9 
REMARK    5  A    between atoms: N2_9  and  C7_10 
ROOT
HETATM    1  C7  UNL     1      26.517   2.256  51.989  1.00  0.00     0.159 A 
HETATM    2  N3  UNL     1      27.743   1.907  52.434  1.00  0.00    -0.222 NA
HETATM    3  C8  UNL     1      27.944   0.746  53.109  1.00  0.00     0.238 A 
HETATM    4  N4  UNL     1      26.898  -0.089  53.345  1.00  0.00    -0.215 NA
HETATM    5  C9  UNL     1      25.659   0.217  52.921  1.00  0.00     0.202 A 
HETATM    6  C10 UNL     1      25.486   1.385  52.249  1.00  0.00     0.129 A 
HETATM    7  N5  UNL     1      24.318   1.975  51.697  1.00  0.00    -0.379 N 
HETATM    8  C11 UNL     1      22.920   1.737  51.960  1.00  0.00     0.161 C 
HETATM    9  C12 UNL     1      22.650   0.670  52.937  1.00  0.00    -0.007 A 
HETATM   10  C13 UNL     1      21.325   0.844  53.348  1.00  0.00     0.011 A 
HETATM   11  C14 UNL     1      20.753  -0.004  54.271  1.00  0.00     0.001 A 
HETATM   12  C15 UNL     1      21.455  -1.054  54.826  1.00  0.00     0.003 A 
HETATM   13  C16 UNL     1      22.769  -1.256  54.444  1.00  0.00     0.038 A 
HETATM   14  C17 UNL     1      23.330  -0.400  53.519  1.00  0.00     0.086 A 
HETATM   15  O1  UNL     1      24.657  -0.695  53.208  1.00  0.00    -0.289 OA
HETATM   16  H10 UNL     1      24.477   2.712  50.976  1.00  0.00     0.160 HD
ENDROOT
BRANCH   1  17
HETATM   17  N2  UNL     1      26.505   3.505  51.297  1.00  0.00    -0.349 N 
HETATM   18  H8  UNL     1      26.457   4.407  51.806  1.00  0.00     0.167 HD
BRANCH  17  19
HETATM   19  C6  UNL     1      26.561   3.478  49.867  1.00  0.00     0.090 C 
HETATM   20  C5  UNL     1      25.639   3.966  49.093  1.00  0.00     0.020 C 
BRANCH  20  21
HETATM   21  C4  UNL     1      24.359   4.637  49.153  1.00  0.00     0.043 C 
HETATM   22  C3  UNL     1      23.094   4.348  48.941  1.00  0.00     0.117 C 
HETATM   23  F1  UNL     1      22.202   5.334  49.137  1.00  0.00    -0.206 F 
BRANCH  22  24
HETATM   24  C2  UNL     1      22.782   3.016  48.527  1.00  0.00     0.053 C 
HETATM   25  C1  UNL     1      22.238   2.700  47.371  1.00  0.00     0.057 C 
BRANCH  25  26
HETATM   26  N1  UNL     1      22.111   4.009  46.795  1.00  0.00    -0.312 NA
HETATM   27  H1  UNL     1      22.122   4.659  47.624  1.00  0.00     0.123 HD
HETATM   28  H2  UNL     1      22.073   4.974  47.229  1.00  0.00     0.123 HD
ENDBRANCH  25  26
ENDBRANCH  22  24
ENDBRANCH  20  21
ENDBRANCH  17  19
ENDBRANCH   1  17
TORSDOF 5
ENDMDL
MODEL 6
REMARK VINA RESULT:      -7.0      3.355      4.915
REMARK  5 active torsions:
REMARK  status: ('A' for Active; 'I' for Inactive)
REMARK    1  A    between atoms: N1_1  and  C1_2 
REMARK    2  A    between atoms: C2_3  and  C3_4 
REMARK    3  A    between atoms: C4_6  and  C5_7 
REMARK    4  A    between atoms: C6_8  and  N2_9 
REMARK    5  A    between atoms: N2_9  and  C7_10 
ROOT
HETATM    1  C7  UNL     1      23.602   5.501  51.122  1.00  0.00     0.159 A 
HETATM    2  N3  UNL     1      22.688   6.159  50.378  1.00  0.00    -0.222 NA
HETATM    3  C8  UNL     1      21.393   5.754  50.333  1.00  0.00     0.238 A 
HETATM    4  N4  UNL     1      20.998   4.668  51.049  1.00  0.00    -0.215 NA
HETATM    5  C9  UNL     1      21.874   3.981  51.805  1.00  0.00     0.202 A 
HETATM    6  C10 UNL     1      23.163   4.407  51.830  1.00  0.00     0.129 A 
HETATM    7  N5  UNL     1      24.298   3.893  52.511  1.00  0.00    -0.379 N 
HETATM    8  C11 UNL     1      24.549   2.595  53.090  1.00  0.00     0.161 C 
HETATM    9  C12 UNL     1      23.424   1.652  52.999  1.00  0.00    -0.007 A 
HETATM   10  C13 UNL     1      23.960   0.382  53.237  1.00  0.00     0.011 A 
HETATM   11  C14 UNL     1      23.157  -0.738  53.225  1.00  0.00     0.001 A 
HETATM   12  C15 UNL     1      21.802  -0.659  52.980  1.00  0.00     0.003 A 
HETATM   13  C16 UNL     1      21.238   0.581  52.739  1.00  0.00     0.038 A 
HETATM   14  C17 UNL     1      22.051   1.694  52.754  1.00  0.00     0.086 A 
HETATM   15  O1  UNL     1      21.379   2.889  52.498  1.00  0.00    -0.289 OA
HETATM   16  H10 UNL     1      25.101   4.550  52.621  1.00  0.00     0.160 HD
ENDROOT
BRANCH   1  17
HETATM   17  N2  UNL     1      24.907   6.077  51.049  1.00  0.00    -0.349 N 
HETATM   18  H8  UNL     1      25.634   5.865  51.757  1.00  0.00     0.167 HD
BRANCH  17  19
HETATM   19  C6  UNL     1      25.187   6.963  49.960  1.00  0.00     0.090 C 
HETATM   20  C5  UNL     1      26.125   6.766  49.084  1.00  0.00     0.020 C 
BRANCH  20  21
HETATM   21  C4  UNL     1      27.170   5.823  48.748  1.00  0.00     0.043 C 
HETATM   22  C3  UNL     1      28.333   5.832  48.135  1.00  0.00     0.117 C 
HETATM   23  F1  UNL     1      28.991   4.662  48.058  1.00  0.00    -0.206 F 
BRANCH  22  24
HETATM   24  C2  UNL     1      28.793   7.080  47.612  1.00  0.00     0.053 C 
HETATM   25  C1  UNL     1      29.800   7.772  48.101  1.00  0.00     0.057 C 
BRANCH  25  26
HETATM   26  N1  UNL     1      30.182   6.911  49.186  1.00  0.00    -0.312 NA
HETATM   27  H1  UNL     1      29.673   7.304  50.019  1.00  0.00     0.123 HD
HETATM   28  H2  UNL     1      29.926   6.909  50.213  1.00  0.00     0.123 HD
ENDBRANCH  25  26
ENDBRANCH  22  24
ENDBRANCH  20  21
ENDBRANCH  17  19
ENDBRANCH   1  17
TORSDOF 5
ENDMDL
MODEL 7
REMARK VINA RESULT:      -6.9      2.252      3.287
REMARK  5 active torsions:
REMARK  status: ('A' for Active; 'I' for Inactive)
REMARK    1  A    between atoms: N1_1  and  C1_2 
REMARK    2  A    between atoms: C2_3  and  C3_4 
REMARK    3  A    between atoms: C4_6  and  C5_7 
REMARK    4  A    between atoms: C6_8  and  N2_9 
REMARK    5  A    between atoms: N2_9  and  C7_10 
ROOT
HETATM    1  C7  UNL     1      21.695   3.631  51.440  1.00  0.00     0.159 A 
HETATM    2  N3  UNL     1      20.404   3.256  51.563  1.00  0.00    -0.222 NA
HETATM    3  C8  UNL     1      20.055   2.154  52.275  1.00  0.00     0.238 A 
HETATM    4  N4  UNL     1      21.016   1.407  52.880  1.00  0.00    -0.215 NA
HETATM    5  C9  UNL     1      22.316   1.741  52.784  1.00  0.00     0.202 A 
HETATM    6  C10 UNL     1      22.637   2.848  52.066  1.00  0.00     0.129 A 
HETATM    7  N5  UNL     1      23.897   3.438  51.780  1.00  0.00    -0.379 N 
HETATM    8  C11 UNL     1      25.232   2.895  51.839  1.00  0.00     0.161 C 
HETATM    9  C12 UNL     1      25.313   1.506  52.317  1.00  0.00    -0.007 A 
HETATM   10  C13 UNL     1      26.577   1.038  51.943  1.00  0.00     0.011 A 
HETATM   11  C14 UNL     1      26.974  -0.246  52.247  1.00  0.00     0.001 A 
HETATM   12  C15 UNL     1      26.151  -1.119  52.927  1.00  0.00     0.003 A 
HETATM   13  C16 UNL     1      24.893  -0.691  53.311  1.00  0.00     0.038 A 
HETATM   14  C17 UNL     1      24.507   0.596  53.001  1.00  0.00     0.086 A 
HETATM   15  O1  UNL     1      23.222   0.921  53.434  1.00  0.00    -0.289 OA
HETATM   16  H10 UNL     1      23.875   4.434  51.471  1.00  0.00     0.160 HD
ENDROOT
BRANCH   1  17
HETATM   17  N2  UNL     1      21.865   4.817  50.662  1.00  0.00    -0.349 N 
HETATM   18  H8  UNL     1      21.839   5.758  51.096  1.00  0.00     0.167 HD
BRANCH  17  19
HETATM   19  C6  UNL     1      22.073   4.669  49.254  1.00  0.00     0.090 C 
HETATM   20  C5  UNL     1      23.195   4.927  48.652  1.00  0.00     0.020 C 
BRANCH  20  21
HETATM   21  C4  UNL     1      24.538   5.389  48.928  1.00  0.00     0.043 C 
HETATM   22  C3  UNL     1      25.122   6.470  49.393  1.00  0.00     0.117 C 
HETATM   23  F1  UNL     1      26.464   6.448  49.484  1.00  0.00    -0.206 F 
BRANCH  22  24
HETATM   24  C2  UNL     1      24.284   7.567  49.762  1.00  0.00     0.053 C 
HETATM   25  C1  UNL     1      23.825   7.783  50.976  1.00  0.00     0.057 C 
BRANCH  25  26
HETATM   26  N1  UNL     1      24.411   6.664  51.661  1.00  0.00    -0.312 NA
HETATM   27  H1  UNL     1      23.598   6.200  52.142  1.00  0.00     0.123 HD
HETATM   28  H2  UNL     1      23.993   5.911  52.275  1.00  0.00     0.123 HD
ENDBRANCH  25  26
ENDBRANCH  22  24
ENDBRANCH  20  21
ENDBRANCH  17  19
ENDBRANCH   1  17
TORSDOF 5
ENDMDL
MODEL 8
REMARK VINA RESULT:      -6.9      3.852      7.674
REMARK  5 active torsions:
REMARK  status: ('A' for Active; 'I' for Inactive)
REMARK    1  A    between atoms: N1_1  and  C1_2 
REMARK    2  A    between atoms: C2_3  and  C3_4 
REMARK    3  A    between atoms: C4_6  and  C5_7 
REMARK    4  A    between atoms: C6_8  and  N2_9 
REMARK    5  A    between atoms: N2_9  and  C7_10 
ROOT
HETATM    1  C7  UNL     1      26.004   4.261  50.225  1.00  0.00     0.159 A 
HETATM    2  N3  UNL     1      24.765   4.209  50.761  1.00  0.00    -0.222 NA
HETATM    3  C8  UNL     1      23.780   5.042  50.342  1.00  0.00     0.238 A 
HETATM    4  N4  UNL     1      24.033   5.951  49.363  1.00  0.00    -0.215 NA
HETATM    5  C9  UNL     1      25.252   6.040  48.799  1.00  0.00     0.202 A 
HETATM    6  C10 UNL     1      26.219   5.195  49.239  1.00  0.00     0.129 A 
HETATM    7  N5  UNL     1      27.579   5.059  48.853  1.00  0.00    -0.379 N 
HETATM    8  C11 UNL     1      28.464   5.964  48.161  1.00  0.00     0.161 C 
HETATM    9  C12 UNL     1      27.844   7.231  47.743  1.00  0.00    -0.007 A 
HETATM   10  C13 UNL     1      28.898   8.106  47.461  1.00  0.00     0.011 A 
HETATM   11  C14 UNL     1      28.655   9.394  47.035  1.00  0.00     0.001 A 
HETATM   12  C15 UNL     1      27.372   9.874  46.869  1.00  0.00     0.003 A 
HETATM   13  C16 UNL     1      26.305   9.037  47.141  1.00  0.00     0.038 A 
HETATM   14  C17 UNL     1      26.561   7.750  47.566  1.00  0.00     0.086 A 
HETATM   15  O1  UNL     1      25.415   6.996  47.811  1.00  0.00    -0.289 OA
HETATM   16  H10 UNL     1      28.037   4.156  49.107  1.00  0.00     0.160 HD
ENDROOT
BRANCH   1  17
HETATM   17  N2  UNL     1      26.902   3.303  50.788  1.00  0.00    -0.349 N 
HETATM   18  H8  UNL     1      27.905   3.282  50.526  1.00  0.00     0.167 HD
BRANCH  17  19
HETATM   19  C6  UNL     1      26.374   2.366  51.731  1.00  0.00     0.090 C 
HETATM   20  C5  UNL     1      26.958   2.049  52.847  1.00  0.00     0.020 C 
BRANCH  20  21
HETATM   21  C4  UNL     1      28.148   2.342  53.616  1.00  0.00     0.043 C 
HETATM   22  C3  UNL     1      28.987   1.701  54.400  1.00  0.00     0.117 C 
HETATM   23  F1  UNL     1      30.002   2.413  54.919  1.00  0.00    -0.206 F 
BRANCH  22  24
HETATM   24  C2  UNL     1      28.747   0.311  54.626  1.00  0.00     0.053 C 
HETATM   25  C1  UNL     1      29.430  -0.667  54.070  1.00  0.00     0.057 C 
BRANCH  25  26
HETATM   26  N1  UNL     1      30.354   0.099  53.282  1.00  0.00    -0.312 NA
HETATM   27  H1  UNL     1      31.151  -0.564  53.099  1.00  0.00     0.123 HD
HETATM   28  H2  UNL     1      31.296  -0.140  52.863  1.00  0.00     0.123 HD
ENDBRANCH  25  26
ENDBRANCH  22  24
ENDBRANCH  20  21
ENDBRANCH  17  19
ENDBRANCH   1  17
TORSDOF 5
ENDMDL
MODEL 9
REMARK VINA RESULT:      -6.9      3.265      4.783
REMARK  5 active torsions:
REMARK  status: ('A' for Active; 'I' for Inactive)
REMARK    1  A    between atoms: N1_1  and  C1_2 
REMARK    2  A    between atoms: C2_3  and  C3_4 
REMARK    3  A    between atoms: C4_6  and  C5_7 
REMARK    4  A    between atoms: C6_8  and  N2_9 
REMARK    5  A    between atoms: N2_9  and  C7_10 
ROOT
HETATM    1  C7  UNL     1      25.181   4.919  49.601  1.00  0.00     0.159 A 
HETATM    2  N3  UNL     1      24.042   5.559  49.261  1.00  0.00    -0.222 NA
HETATM    3  C8  UNL     1      22.887   5.355  49.946  1.00  0.00     0.238 A 
HETATM    4  N4  UNL     1      22.868   4.493  50.997  1.00  0.00    -0.215 NA
HETATM    5  C9  UNL     1      23.978   3.833  51.372  1.00  0.00     0.202 A 
HETATM    6  C10 UNL     1      25.119   4.055  50.669  1.00  0.00     0.129 A 
HETATM    7  N5  UNL     1      26.422   3.510  50.815  1.00  0.00    -0.379 N 
HETATM    8  C11 UNL     1      26.881   2.319  51.489  1.00  0.00     0.161 C 
HETATM    9  C12 UNL     1      25.829   1.558  52.180  1.00  0.00    -0.007 A 
HETATM   10  C13 UNL     1      26.363   0.288  52.422  1.00  0.00     0.011 A 
HETATM   11  C14 UNL     1      25.622  -0.680  53.066  1.00  0.00     0.001 A 
HETATM   12  C15 UNL     1      24.333  -0.442  53.496  1.00  0.00     0.003 A 
HETATM   13  C16 UNL     1      23.773   0.802  53.272  1.00  0.00     0.038 A 
HETATM   14  C17 UNL     1      24.524   1.762  52.628  1.00  0.00     0.086 A 
HETATM   15  O1  UNL     1      23.861   2.977  52.454  1.00  0.00    -0.289 OA
HETATM   16  H10 UNL     1      27.194   4.047  50.364  1.00  0.00     0.160 HD
ENDROOT
BRANCH   1  17
HETATM   17  N2  UNL     1      26.291   5.266  48.772  1.00  0.00    -0.349 N 
HETATM   18  H8  UNL     1      26.759   4.563  48.170  1.00  0.00     0.167 HD
BRANCH  17  19
HETATM   19  C6  UNL     1      26.742   6.624  48.792  1.00  0.00     0.090 C 
HETATM   20  C5  UNL     1      27.927   7.003  48.420  1.00  0.00     0.020 C 
BRANCH  20  21
HETATM   21  C4  UNL     1      29.170   6.467  47.907  1.00  0.00     0.043 C 
HETATM   22  C3  UNL     1      30.422   6.848  47.789  1.00  0.00     0.117 C 
HETATM   23  F1  UNL     1      31.275   5.975  47.224  1.00  0.00    -0.206 F 
BRANCH  22  24
HETATM   24  C2  UNL     1      30.764   8.149  48.271  1.00  0.00     0.053 C 
HETATM   25  C1  UNL     1      31.347   8.390  49.426  1.00  0.00     0.057 C 
BRANCH  25  26
HETATM   26  N1  UNL     1      31.478   7.047  49.917  1.00  0.00    -0.312 NA
HETATM   27  H1  UNL     1      32.109   6.576  49.218  1.00  0.00     0.123 HD
HETATM   28  H2  UNL     1      32.009   6.207  49.552  1.00  0.00     0.123 HD
ENDBRANCH  25  26
ENDBRANCH  22  24
ENDBRANCH  20  21
ENDBRANCH  17  19
ENDBRANCH   1  17
TORSDOF 5
ENDMDL
