MODEL 1
REMARK VINA RESULT:      -8.4      0.000      0.000
REMARK  4 active torsions:
REMARK  status: ('A' for Active; 'I' for Inactive)
REMARK    1  A    between atoms: C5_5  and  C6_6 
REMARK       I    between atoms: C6_6  and  N1_8 
REMARK    2  A    between atoms: N1_8  and  C7_9 
REMARK    3  A    between atoms: C11_13  and  N2_14 
REMARK    4  A    between atoms: N2_14  and  C12_15 
ROOT
HETATM    1  C7  UNL     1      24.214   2.247  52.678  1.00  0.00     0.037 A 
HETATM    2  C8  UNL     1      22.872   1.935  52.604  1.00  0.00     0.029 A 
HETATM    3  C9  UNL     1      22.445   0.714  53.087  1.00  0.00     0.004 A 
HETATM    4  C10 UNL     1      23.351  -0.165  53.630  1.00  0.00     0.030 A 
HETATM    5  C11 UNL     1      24.700   0.088  53.732  1.00  0.00     0.051 A 
HETATM    6  C15 UNL     1      25.076   1.326  53.233  1.00  0.00     0.059 A 
ENDROOT
BRANCH   1   7
HETATM    7  N1  UNL     1      24.775   3.490  52.206  1.00  0.00    -0.323 N 
HETATM    8  C6  UNL     1      25.173   3.343  50.848  1.00  0.00     0.256 C 
HETATM    9  O1  UNL     1      24.934   2.173  50.409  1.00  0.00    -0.267 OA
HETATM   10  H6  UNL     1      24.924   4.423  52.684  1.00  0.00     0.169 HD
BRANCH   8  11
HETATM   11  C5  UNL     1      25.780   4.417  50.066  1.00  0.00     0.032 A 
HETATM   12  C4  UNL     1      25.300   5.727  49.993  1.00  0.00     0.017 A 
HETATM   13  C3  UNL     1      26.004   6.635  49.195  1.00  0.00     0.007 A 
HETATM   14  C2  UNL     1      27.129   6.273  48.500  1.00  0.00    -0.062 A 
HETATM   15  C1  UNL     1      27.860   7.247  47.660  1.00  0.00     0.048 C 
HETATM   16  C17 UNL     1      27.591   4.975  48.581  1.00  0.00     0.007 A 
HETATM   17  C16 UNL     1      26.926   4.050  49.357  1.00  0.00     0.017 A 
ENDBRANCH   8  11
ENDBRANCH   1   7
BRANCH   5  18
HETATM   18  N2  UNL     1      25.666  -0.796  54.284  1.00  0.00    -0.188 N 
HETATM   19  H10 UNL     1      25.317  -1.660  54.765  1.00  0.00     0.184 HD
BRANCH  18  20
HETATM   20  C12 UNL     1      27.057  -0.549  54.200  1.00  0.00     0.722 A 
HETATM   21  N3  UNL     1      27.859  -1.232  53.455  1.00  0.00    -0.100 NA
HETATM   22  C13 UNL     1      29.190  -0.706  53.619  1.00  0.00     0.216 A 
HETATM   23  C14 UNL     1      29.018   0.403  54.591  1.00  0.00     0.131 A 
HETATM   24  N4  UNL     1      27.752   0.480  54.922  1.00  0.00    -0.078 NA
ENDBRANCH  18  20
ENDBRANCH   5  18
TORSDOF 4
ENDMDL
MODEL 2
REMARK VINA RESULT:      -8.2      1.140      1.834
REMARK  4 active torsions:
REMARK  status: ('A' for Active; 'I' for Inactive)
REMARK    1  A    between atoms: C5_5  and  C6_6 
REMARK       I    between atoms: C6_6  and  N1_8 
REMARK    2  A    between atoms: N1_8  and  C7_9 
REMARK    3  A    between atoms: C11_13  and  N2_14 
REMARK    4  A    between atoms: N2_14  and  C12_15 
ROOT
HETATM    1  C7  UNL     1      24.887   2.912  51.679  1.00  0.00     0.037 A 
HETATM    2  C8  UNL     1      23.760   2.190  51.340  1.00  0.00     0.029 A 
HETATM    3  C9  UNL     1      23.514   0.997  51.991  1.00  0.00     0.004 A 
HETATM    4  C10 UNL     1      24.382   0.549  52.956  1.00  0.00     0.030 A 
HETATM    5  C11 UNL     1      25.521   1.222  53.339  1.00  0.00     0.051 A 
HETATM    6  C15 UNL     1      25.722   2.412  52.656  1.00  0.00     0.059 A 
ENDROOT
BRANCH   1   7
HETATM    7  N1  UNL     1      25.248   4.169  51.069  1.00  0.00    -0.323 N 
HETATM    8  C6  UNL     1      26.159   3.931  50.003  1.00  0.00     0.256 C 
HETATM    9  O1  UNL     1      26.415   2.693  49.866  1.00  0.00    -0.267 OA
HETATM   10  H6  UNL     1      24.957   5.165  51.282  1.00  0.00     0.169 HD
BRANCH   8  11
HETATM   11  C5  UNL     1      26.722   4.994  49.174  1.00  0.00     0.032 A 
HETATM   12  C4  UNL     1      28.035   5.028  48.696  1.00  0.00     0.017 A 
HETATM   13  C3  UNL     1      28.415   6.123  47.912  1.00  0.00     0.007 A 
HETATM   14  C2  UNL     1      27.544   7.138  47.610  1.00  0.00    -0.062 A 
HETATM   15  C1  UNL     1      27.963   8.289  46.780  1.00  0.00     0.048 C 
HETATM   16  C17 UNL     1      26.251   7.091  48.090  1.00  0.00     0.007 A 
HETATM   17  C16 UNL     1      25.837   6.029  48.866  1.00  0.00     0.017 A 
ENDBRANCH   8  11
ENDBRANCH   1   7
BRANCH   5  18
HETATM   18  N2  UNL     1      26.442   0.788  54.329  1.00  0.00    -0.188 N 
HETATM   19  H10 UNL     1      26.191   0.951  55.334  1.00  0.00     0.184 HD
BRANCH  18  20
HETATM   20  C12 UNL     1      27.663   0.152  54.003  1.00  0.00     0.722 A 
HETATM   21  N3  UNL     1      28.816   0.722  54.112  1.00  0.00    -0.100 NA
HETATM   22  C13 UNL     1      29.828  -0.215  53.696  1.00  0.00     0.216 A 
HETATM   23  C14 UNL     1      29.058  -1.430  53.326  1.00  0.00     0.131 A 
HETATM   24  N4  UNL     1      27.783  -1.193  53.514  1.00  0.00    -0.078 NA
ENDBRANCH  18  20
ENDBRANCH   5  18
TORSDOF 4
ENDMDL
MODEL 3
REMARK VINA RESULT:      -7.8      1.516      2.113
REMARK  4 active torsions:
REMARK  status: ('A' for Active; 'I' for Inactive)
REMARK    1  A    between atoms: C5_5  and  C6_6 
REMARK       I    between atoms: C6_6  and  N1_8 
REMARK    2  A    between atoms: N1_8  and  C7_9 
REMARK    3  A    between atoms: C11_13  and  N2_14 
REMARK    4  A    between atoms: N2_14  and  C12_15 
ROOT
HETATM    1  C7  UNL     1      24.023   0.930  52.284  1.00  0.00     0.037 A 
HETATM    2  C8  UNL     1      22.777   0.401  52.554  1.00  0.00     0.029 A 
HETATM    3  C9  UNL     1      22.638  -0.458  53.626  1.00  0.00     0.004 A 
HETATM    4  C10 UNL     1      23.727  -0.772  54.401  1.00  0.00     0.030 A 
HETATM    5  C11 UNL     1      24.993  -0.278  54.184  1.00  0.00     0.051 A 
HETATM    6  C15 UNL     1      25.080   0.578  53.097  1.00  0.00     0.059 A 
ENDROOT
BRANCH   1   7
HETATM    7  N1  UNL     1      24.291   1.837  51.194  1.00  0.00    -0.323 N 
HETATM    8  C6  UNL     1      24.207   3.177  51.664  1.00  0.00     0.256 C 
HETATM    9  O1  UNL     1      23.923   3.228  52.903  1.00  0.00    -0.267 OA
HETATM   10  H6  UNL     1      24.522   1.666  50.175  1.00  0.00     0.169 HD
BRANCH   8  11
HETATM   11  C5  UNL     1      24.424   4.343  50.812  1.00  0.00     0.032 A 
HETATM   12  C4  UNL     1      25.147   4.341  49.616  1.00  0.00     0.017 A 
HETATM   13  C3  UNL     1      25.259   5.550  48.920  1.00  0.00     0.007 A 
HETATM   14  C2  UNL     1      24.688   6.709  49.378  1.00  0.00    -0.062 A 
HETATM   15  C1  UNL     1      24.817   7.978  48.630  1.00  0.00     0.048 C 
HETATM   16  C17 UNL     1      23.977   6.696  50.562  1.00  0.00     0.007 A 
HETATM   17  C16 UNL     1      23.843   5.525  51.277  1.00  0.00     0.017 A 
ENDBRANCH   8  11
ENDBRANCH   1   7
BRANCH   5  18
HETATM   18  N2  UNL     1      26.142  -0.582  54.962  1.00  0.00    -0.188 N 
HETATM   19  H10 UNL     1      26.001  -1.128  55.847  1.00  0.00     0.184 HD
BRANCH  18  20
HETATM   20  C12 UNL     1      27.444  -0.180  54.582  1.00  0.00     0.722 A 
HETATM   21  N3  UNL     1      27.965   0.955  54.910  1.00  0.00    -0.100 NA
HETATM   22  C13 UNL     1      29.292   1.023  54.354  1.00  0.00     0.216 A 
HETATM   23  C14 UNL     1      29.450  -0.273  53.646  1.00  0.00     0.131 A 
HETATM   24  N4  UNL     1      28.349  -0.969  53.792  1.00  0.00    -0.078 NA
ENDBRANCH  18  20
ENDBRANCH   5  18
TORSDOF 4
ENDMDL
MODEL 4
REMARK VINA RESULT:      -7.5      1.662      2.730
REMARK  4 active torsions:
REMARK  status: ('A' for Active; 'I' for Inactive)
REMARK    1  A    between atoms: C5_5  and  C6_6 
REMARK       I    between atoms: C6_6  and  N1_8 
REMARK    2  A    between atoms: N1_8  and  C7_9 
REMARK    3  A    between atoms: C11_13  and  N2_14 
REMARK    4  A    between atoms: N2_14  and  C12_15 
ROOT
HETATM    1  C7  UNL     1      25.143   3.845  50.567  1.00  0.00     0.037 A 
HETATM    2  C8  UNL     1      24.067   3.232  49.958  1.00  0.00     0.029 A 
HETATM    3  C9  UNL     1      23.512   2.117  50.555  1.00  0.00     0.004 A 
HETATM    4  C10 UNL     1      24.031   1.638  51.733  1.00  0.00     0.030 A 
HETATM    5  C11 UNL     1      25.101   2.205  52.388  1.00  0.00     0.051 A 
HETATM    6  C15 UNL     1      25.621   3.319  51.748  1.00  0.00     0.059 A 
ENDROOT
BRANCH   1   7
HETATM    7  N1  UNL     1      25.804   5.013  50.038  1.00  0.00    -0.323 N 
HETATM    8  C6  UNL     1      26.897   4.608  49.222  1.00  0.00     0.256 C 
HETATM    9  O1  UNL     1      27.006   3.342  49.171  1.00  0.00    -0.267 OA
HETATM   10  H6  UNL     1      25.612   6.048  50.158  1.00  0.00     0.169 HD
BRANCH   8  11
HETATM   11  C5  UNL     1      27.778   5.546  48.533  1.00  0.00     0.032 A 
HETATM   12  C4  UNL     1      29.139   5.341  48.291  1.00  0.00     0.017 A 
HETATM   13  C3  UNL     1      29.840   6.344  47.614  1.00  0.00     0.007 A 
HETATM   14  C2  UNL     1      29.232   7.499  47.193  1.00  0.00    -0.062 A 
HETATM   15  C1  UNL     1      29.989   8.551  46.479  1.00  0.00     0.048 C 
HETATM   16  C17 UNL     1      27.887   7.689  47.439  1.00  0.00     0.007 A 
HETATM   17  C16 UNL     1      27.161   6.723  48.103  1.00  0.00     0.017 A 
ENDBRANCH   8  11
ENDBRANCH   1   7
BRANCH   5  18
HETATM   18  N2  UNL     1      25.666   1.736  53.604  1.00  0.00    -0.188 N 
HETATM   19  H10 UNL     1      25.044   1.696  54.448  1.00  0.00     0.184 HD
BRANCH  18  20
HETATM   20  C12 UNL     1      27.017   1.327  53.705  1.00  0.00     0.722 A 
HETATM   21  N3  UNL     1      27.432   0.150  53.374  1.00  0.00    -0.100 NA
HETATM   22  C13 UNL     1      28.852   0.088  53.607  1.00  0.00     0.216 A 
HETATM   23  C14 UNL     1      29.187   1.436  54.132  1.00  0.00     0.131 A 
HETATM   24  N4  UNL     1      28.090   2.152  54.183  1.00  0.00    -0.078 NA
ENDBRANCH  18  20
ENDBRANCH   5  18
TORSDOF 4
ENDMDL
MODEL 5
REMARK VINA RESULT:      -7.4      2.953      3.222
REMARK  4 active torsions:
REMARK  status: ('A' for Active; 'I' for Inactive)
REMARK    1  A    between atoms: C5_5  and  C6_6 
REMARK       I    between atoms: C6_6  and  N1_8 
REMARK    2  A    between atoms: N1_8  and  C7_9 
REMARK    3  A    between atoms: C11_13  and  N2_14 
REMARK    4  A    between atoms: N2_14  and  C12_15 
ROOT
HETATM    1  C7  UNL     1      22.632  -0.089  52.838  1.00  0.00     0.037 A 
HETATM    2  C8  UNL     1      21.529  -0.502  53.557  1.00  0.00     0.029 A 
HETATM    3  C9  UNL     1      21.719  -1.053  54.808  1.00  0.00     0.004 A 
HETATM    4  C10 UNL     1      22.988  -1.182  55.317  1.00  0.00     0.030 A 
HETATM    5  C11 UNL     1      24.127  -0.790  54.650  1.00  0.00     0.051 A 
HETATM    6  C15 UNL     1      23.882  -0.244  53.399  1.00  0.00     0.059 A 
ENDROOT
BRANCH   1   7
HETATM    7  N1  UNL     1      22.558   0.500  51.522  1.00  0.00    -0.323 N 
HETATM    8  C6  UNL     1      22.600   1.917  51.637  1.00  0.00     0.256 C 
HETATM    9  O1  UNL     1      22.691   2.292  52.850  1.00  0.00    -0.267 OA
HETATM   10  H6  UNL     1      22.482   0.067  50.559  1.00  0.00     0.169 HD
BRANCH   8  11
HETATM   11  C5  UNL     1      22.545   2.820  50.491  1.00  0.00     0.032 A 
HETATM   12  C4  UNL     1      22.529   4.215  50.567  1.00  0.00     0.017 A 
HETATM   13  C3  UNL     1      22.475   4.933  49.367  1.00  0.00     0.007 A 
HETATM   14  C2  UNL     1      22.439   4.309  48.147  1.00  0.00    -0.062 A 
HETATM   15  C1  UNL     1      22.382   5.084  46.888  1.00  0.00     0.048 C 
HETATM   16  C17 UNL     1      22.455   2.930  48.087  1.00  0.00     0.007 A 
HETATM   17  C16 UNL     1      22.509   2.186  49.247  1.00  0.00     0.017 A 
ENDBRANCH   8  11
ENDBRANCH   1   7
BRANCH   5  18
HETATM   18  N2  UNL     1      25.454  -0.910  55.142  1.00  0.00    -0.188 N 
HETATM   19  H10 UNL     1      25.605  -1.500  55.996  1.00  0.00     0.184 HD
BRANCH  18  20
HETATM   20  C12 UNL     1      26.554  -0.271  54.523  1.00  0.00     0.722 A 
HETATM   21  N3  UNL     1      27.413  -0.888  53.782  1.00  0.00    -0.100 NA
HETATM   22  C13 UNL     1      28.387   0.069  53.324  1.00  0.00     0.216 A 
HETATM   23  C14 UNL     1      27.942   1.350  53.930  1.00  0.00     0.131 A 
HETATM   24  N4  UNL     1      26.859   1.128  54.634  1.00  0.00    -0.078 NA
ENDBRANCH  18  20
ENDBRANCH   5  18
TORSDOF 4
ENDMDL
MODEL 6
REMARK VINA RESULT:      -7.3      2.777      7.126
REMARK  4 active torsions:
REMARK  status: ('A' for Active; 'I' for Inactive)
REMARK    1  A    between atoms: C5_5  and  C6_6 
REMARK       I    between atoms: C6_6  and  N1_8 
REMARK    2  A    between atoms: N1_8  and  C7_9 
REMARK    3  A    between atoms: C11_13  and  N2_14 
REMARK    4  A    between atoms: N2_14  and  C12_15 
ROOT
HETATM    1  C7  UNL     1      23.804   3.483  51.385  1.00  0.00     0.037 A 
HETATM    2  C8  UNL     1      22.452   3.215  51.462  1.00  0.00     0.029 A 
HETATM    3  C9  UNL     1      21.571   4.271  51.581  1.00  0.00     0.004 A 
HETATM    4  C10 UNL     1      22.043   5.560  51.619  1.00  0.00     0.030 A 
HETATM    5  C11 UNL     1      23.377   5.892  51.547  1.00  0.00     0.051 A 
HETATM    6  C15 UNL     1      24.220   4.797  51.429  1.00  0.00     0.059 A 
ENDROOT
BRANCH   1   7
HETATM    7  N1  UNL     1      24.818   2.464  51.260  1.00  0.00    -0.323 N 
HETATM    8  C6  UNL     1      25.340   2.157  52.547  1.00  0.00     0.256 C 
HETATM    9  O1  UNL     1      24.786   2.849  53.460  1.00  0.00    -0.267 OA
HETATM   10  H6  UNL     1      25.201   1.951  50.417  1.00  0.00     0.169 HD
BRANCH   8  11
HETATM   11  C5  UNL     1      26.385   1.163  52.776  1.00  0.00     0.032 A 
HETATM   12  C4  UNL     1      26.261  -0.205  52.524  1.00  0.00     0.017 A 
HETATM   13  C3  UNL     1      27.363  -1.022  52.799  1.00  0.00     0.007 A 
HETATM   14  C2  UNL     1      28.535  -0.517  53.300  1.00  0.00    -0.062 A 
HETATM   15  C1  UNL     1      29.690  -1.395  53.586  1.00  0.00     0.048 C 
HETATM   16  C17 UNL     1      28.643   0.837  53.545  1.00  0.00     0.007 A 
HETATM   17  C16 UNL     1      27.580   1.676  53.286  1.00  0.00     0.017 A 
ENDBRANCH   8  11
ENDBRANCH   1   7
BRANCH   5  18
HETATM   18  N2  UNL     1      23.902   7.211  51.587  1.00  0.00    -0.188 N 
HETATM   19  H10 UNL     1      23.777   7.760  52.472  1.00  0.00     0.184 HD
BRANCH  18  20
HETATM   20  C12 UNL     1      24.579   7.793  50.488  1.00  0.00     0.722 A 
HETATM   21  N3  UNL     1      23.984   8.462  49.558  1.00  0.00    -0.100 NA
HETATM   22  C13 UNL     1      24.976   8.901  48.610  1.00  0.00     0.216 A 
HETATM   23  C14 UNL     1      26.251   8.368  49.155  1.00  0.00     0.131 A 
HETATM   24  N4  UNL     1      25.995   7.717  50.263  1.00  0.00    -0.078 NA
ENDBRANCH  18  20
ENDBRANCH   5  18
TORSDOF 4
ENDMDL
MODEL 7
REMARK VINA RESULT:      -7.3      2.356      4.680
REMARK  4 active torsions:
REMARK  status: ('A' for Active; 'I' for Inactive)
REMARK    1  A    between atoms: C5_5  and  C6_6 
REMARK       I    between atoms: C6_6  and  N1_8 
REMARK    2  A    between atoms: N1_8  and  C7_9 
REMARK    3  A    between atoms: C11_13  and  N2_14 
REMARK    4  A    between atoms: N2_14  and  C12_15 
ROOT
HETATM    1  C7  UNL     1      24.919   2.187  52.320  1.00  0.00     0.037 A 
HETATM    2  C8  UNL     1      25.573   0.989  52.521  1.00  0.00     0.029 A 
HETATM    3  C9  UNL     1      24.848  -0.095  52.976  1.00  0.00     0.004 A 
HETATM    4  C10 UNL     1      23.502   0.031  53.219  1.00  0.00     0.030 A 
HETATM    5  C11 UNL     1      22.794   1.197  53.037  1.00  0.00     0.051 A 
HETATM    6  C15 UNL     1      23.567   2.254  52.580  1.00  0.00     0.059 A 
ENDROOT
BRANCH   1   7
HETATM    7  N1  UNL     1      25.570   3.386  51.848  1.00  0.00    -0.323 N 
HETATM    8  C6  UNL     1      25.387   3.499  50.441  1.00  0.00     0.256 C 
HETATM    9  O1  UNL     1      24.708   2.531  49.972  1.00  0.00    -0.267 OA
HETATM   10  H6  UNL     1      26.121   4.135  52.354  1.00  0.00     0.169 HD
BRANCH   8  11
HETATM   11  C5  UNL     1      25.920   4.602  49.647  1.00  0.00     0.032 A 
HETATM   12  C4  UNL     1      25.222   5.767  49.319  1.00  0.00     0.017 A 
HETATM   13  C3  UNL     1      25.883   6.729  48.547  1.00  0.00     0.007 A 
HETATM   14  C2  UNL     1      27.173   6.554  48.116  1.00  0.00    -0.062 A 
HETATM   15  C1  UNL     1      27.857   7.581  47.300  1.00  0.00     0.048 C 
HETATM   16  C17 UNL     1      27.850   5.398  48.447  1.00  0.00     0.007 A 
HETATM   17  C16 UNL     1      27.234   4.426  49.206  1.00  0.00     0.017 A 
ENDBRANCH   8  11
ENDBRANCH   1   7
BRANCH   5  18
HETATM   18  N2  UNL     1      21.405   1.365  53.280  1.00  0.00    -0.188 N 
HETATM   19  H10 UNL     1      21.026   1.029  54.198  1.00  0.00     0.184 HD
BRANCH  18  20
HETATM   20  C12 UNL     1      20.537   1.966  52.337  1.00  0.00     0.722 A 
HETATM   21  N3  UNL     1      20.260   1.444  51.190  1.00  0.00    -0.100 NA
HETATM   22  C13 UNL     1      19.350   2.322  50.499  1.00  0.00     0.216 A 
HETATM   23  C14 UNL     1      19.149   3.446  51.449  1.00  0.00     0.131 A 
HETATM   24  N4  UNL     1      19.858   3.217  52.528  1.00  0.00    -0.078 NA
ENDBRANCH  18  20
ENDBRANCH   5  18
TORSDOF 4
ENDMDL
MODEL 8
REMARK VINA RESULT:      -7.3      2.938      7.388
REMARK  4 active torsions:
REMARK  status: ('A' for Active; 'I' for Inactive)
REMARK    1  A    between atoms: C5_5  and  C6_6 
REMARK       I    between atoms: C6_6  and  N1_8 
REMARK    2  A    between atoms: N1_8  and  C7_9 
REMARK    3  A    between atoms: C11_13  and  N2_14 
REMARK    4  A    between atoms: N2_14  and  C12_15 
ROOT
HETATM    1  C7  UNL     1      25.458   4.847  50.244  1.00  0.00     0.037 A 
HETATM    2  C8  UNL     1      24.647   5.862  49.780  1.00  0.00     0.029 A 
HETATM    3  C9  UNL     1      25.109   6.668  48.758  1.00  0.00     0.004 A 
HETATM    4  C10 UNL     1      26.354   6.451  48.221  1.00  0.00     0.030 A 
HETATM    5  C11 UNL     1      27.209   5.457  48.640  1.00  0.00     0.051 A 
HETATM    6  C15 UNL     1      26.699   4.678  49.667  1.00  0.00     0.059 A 
ENDROOT
BRANCH   1   7
HETATM    7  N1  UNL     1      25.084   3.944  51.305  1.00  0.00    -0.323 N 
HETATM    8  C6  UNL     1      24.356   2.850  50.759  1.00  0.00     0.256 C 
HETATM    9  O1  UNL     1      24.226   2.951  49.498  1.00  0.00    -0.267 OA
HETATM   10  H6  UNL     1      25.258   3.972  52.350  1.00  0.00     0.169 HD
BRANCH   8  11
HETATM   11  C5  UNL     1      23.829   1.752  51.564  1.00  0.00     0.032 A 
HETATM   12  C4  UNL     1      24.541   1.066  52.552  1.00  0.00     0.017 A 
HETATM   13  C3  UNL     1      23.885   0.035  53.232  1.00  0.00     0.007 A 
HETATM   14  C2  UNL     1      22.586  -0.307  52.956  1.00  0.00    -0.062 A 
HETATM   15  C1  UNL     1      21.907  -1.401  53.685  1.00  0.00     0.048 C 
HETATM   16  C17 UNL     1      21.895   0.378  51.977  1.00  0.00     0.007 A 
HETATM   17  C16 UNL     1      22.507   1.401  51.284  1.00  0.00     0.017 A 
ENDBRANCH   8  11
ENDBRANCH   1   7
BRANCH   5  18
HETATM   18  N2  UNL     1      28.504   5.205  48.112  1.00  0.00    -0.188 N 
HETATM   19  H10 UNL     1      28.599   4.446  47.395  1.00  0.00     0.184 HD
BRANCH  18  20
HETATM   20  C12 UNL     1      29.644   5.939  48.517  1.00  0.00     0.722 A 
HETATM   21  N3  UNL     1      30.721   5.391  48.971  1.00  0.00    -0.100 NA
HETATM   22  C13 UNL     1      31.666   6.433  49.281  1.00  0.00     0.216 A 
HETATM   23  C14 UNL     1      30.946   7.683  48.927  1.00  0.00     0.131 A 
HETATM   24  N4  UNL     1      29.755   7.370  48.479  1.00  0.00    -0.078 NA
ENDBRANCH  18  20
ENDBRANCH   5  18
TORSDOF 4
ENDMDL
MODEL 9
REMARK VINA RESULT:      -7.2      5.975      9.367
REMARK  4 active torsions:
REMARK  status: ('A' for Active; 'I' for Inactive)
REMARK    1  A    between atoms: C5_5  and  C6_6 
REMARK       I    between atoms: C6_6  and  N1_8 
REMARK    2  A    between atoms: N1_8  and  C7_9 
REMARK    3  A    between atoms: C11_13  and  N2_14 
REMARK    4  A    between atoms: N2_14  and  C12_15 
ROOT
HETATM    1  C7  UNL     1      31.326   7.911  48.295  1.00  0.00     0.037 A 
HETATM    2  C8  UNL     1      31.347   9.257  47.990  1.00  0.00     0.029 A 
HETATM    3  C9  UNL     1      32.451   9.774  47.342  1.00  0.00     0.004 A 
HETATM    4  C10 UNL     1      33.502   8.953  47.013  1.00  0.00     0.030 A 
HETATM    5  C11 UNL     1      33.540   7.605  47.290  1.00  0.00     0.051 A 
HETATM    6  C15 UNL     1      32.409   7.136  47.941  1.00  0.00     0.059 A 
ENDROOT
BRANCH   1   7
HETATM    7  N1  UNL     1      30.228   7.259  48.969  1.00  0.00    -0.323 N 
HETATM    8  C6  UNL     1      29.210   6.954  48.024  1.00  0.00     0.256 C 
HETATM    9  O1  UNL     1      29.525   7.328  46.850  1.00  0.00    -0.267 OA
HETATM   10  H6  UNL     1      30.080   6.995  49.984  1.00  0.00     0.169 HD
BRANCH   8  11
HETATM   11  C5  UNL     1      27.958   6.289  48.377  1.00  0.00     0.032 A 
HETATM   12  C4  UNL     1      26.705   6.906  48.417  1.00  0.00     0.017 A 
HETATM   13  C3  UNL     1      25.603   6.122  48.775  1.00  0.00     0.007 A 
HETATM   14  C2  UNL     1      25.726   4.791  49.080  1.00  0.00    -0.062 A 
HETATM   15  C1  UNL     1      24.551   3.976  49.458  1.00  0.00     0.048 C 
HETATM   16  C17 UNL     1      26.971   4.195  49.037  1.00  0.00     0.007 A 
HETATM   17  C16 UNL     1      28.081   4.933  48.688  1.00  0.00     0.017 A 
ENDBRANCH   8  11
ENDBRANCH   1   7
BRANCH   5  18
HETATM   18  N2  UNL     1      34.609   6.727  46.968  1.00  0.00    -0.188 N 
HETATM   19  H10 UNL     1      35.516   7.154  46.659  1.00  0.00     0.184 HD
BRANCH  18  20
HETATM   20  C12 UNL     1      34.488   5.320  47.056  1.00  0.00     0.722 A 
HETATM   21  N3  UNL     1      34.012   4.585  46.107  1.00  0.00    -0.100 NA
HETATM   22  C13 UNL     1      34.038   3.211  46.540  1.00  0.00     0.216 A 
HETATM   23  C14 UNL     1      34.613   3.279  47.907  1.00  0.00     0.131 A 
HETATM   24  N4  UNL     1      34.872   4.532  48.193  1.00  0.00    -0.078 NA
ENDBRANCH  18  20
ENDBRANCH   5  18
TORSDOF 4
ENDMDL
