MODEL 1
REMARK VINA RESULT:      -8.1      0.000      0.000
REMARK  9 active torsions:
REMARK  status: ('A' for Active; 'I' for Inactive)
REMARK    1  A    between atoms: O1_2  and  C2_3 
REMARK    2  A    between atoms: C6_9  and  N3_10 
REMARK    3  A    between atoms: N3_10  and  C7_11 
REMARK    4  A    between atoms: C14_20  and  C15_21 
REMARK    5  A    between atoms: C15_21  and  C16_22 
REMARK    6  A    between atoms: C16_22  and  C17_23 
REMARK    7  A    between atoms: C16_22  and  P1_30 
REMARK    8  A    between atoms: C17_23  and  N4_24 
REMARK    9  A    between atoms: P1_30  and  O3_31 
ROOT
HETATM    1  C2  UNL     1      20.322   0.159  51.860  1.00  0.00     0.077 A 
HETATM    2  C3  UNL     1      20.473  -0.569  53.054  1.00  0.00     0.070 A 
HETATM    3  C4  UNL     1      21.659  -0.698  53.710  1.00  0.00     0.074 A 
HETATM    4  N1  UNL     1      21.692  -1.443  54.857  1.00  0.00    -0.241 NA
HETATM    5  C5  UNL     1      22.904  -1.548  55.468  1.00  0.00     0.235 A 
HETATM    6  N2  UNL     1      24.032  -0.956  54.983  1.00  0.00    -0.224 NA
HETATM    7  C6  UNL     1      24.007  -0.212  53.834  1.00  0.00     0.138 A 
HETATM    8  C12 UNL     1      22.808  -0.085  53.192  1.00  0.00     0.039 A 
HETATM    9  C13 UNL     1      22.633   0.625  52.013  1.00  0.00     0.028 A 
HETATM   10  C14 UNL     1      21.470   0.782  51.327  1.00  0.00    -0.020 A 
ENDROOT
BRANCH  10  11
HETATM   11  C15 UNL     1      21.274   1.582  50.113  1.00  0.00     0.080 C 
BRANCH  11  12
HETATM   12  C16 UNL     1      21.011   3.025  50.293  1.00  0.00    -0.021 C 
BRANCH  12  13
HETATM   13  C17 UNL     1      21.958   3.743  49.352  1.00  0.00     0.155 C 
BRANCH  13  14
HETATM   14  N4  UNL     1      23.220   4.034  49.873  1.00  0.00    -0.405 N 
HETATM   15  C18 UNL     1      24.353   3.286  49.548  1.00  0.00     0.143 C 
HETATM   16  C19 UNL     1      25.244   3.261  50.805  1.00  0.00     0.187 C 
HETATM   17  O2  UNL     1      24.401   3.265  51.942  1.00  0.00    -0.388 OA
HETATM   18  C20 UNL     1      23.806   4.504  52.119  1.00  0.00     0.187 C 
HETATM   19  C21 UNL     1      23.341   5.100  50.799  1.00  0.00     0.143 C 
ENDBRANCH  13  14
ENDBRANCH  12  13
BRANCH  12  20
HETATM   20  P1  UNL     1      19.980   3.933  51.231  1.00  0.00     0.106 P 
BRANCH  20  21
HETATM   21  O3  UNL     1      18.594   3.175  52.019  1.00  0.00    -0.362 OA
HETATM   22  H23 UNL     1      18.522   3.612  52.903  1.00  0.00     0.216 HD
ENDBRANCH  20  21
ENDBRANCH  12  20
ENDBRANCH  11  12
ENDBRANCH  10  11
BRANCH   1  23
HETATM   23  O1  UNL     1      19.128   0.278  51.221  1.00  0.00    -0.355 OA
HETATM   24  C1  UNL     1      17.983  -0.381  51.717  1.00  0.00     0.210 C 
ENDBRANCH   1  23
BRANCH   7  25
HETATM   25  N3  UNL     1      25.173   0.399  53.354  1.00  0.00    -0.363 N 
HETATM   26  H6  UNL     1      25.349   0.577  52.342  1.00  0.00     0.162 HD
BRANCH  25  27
HETATM   27  C7  UNL     1      26.222   0.813  54.240  1.00  0.00     0.134 A 
HETATM   28  C8  UNL     1      26.882   2.091  53.889  1.00  0.00     0.046 A 
HETATM   29  C9  UNL     1      28.174   1.921  53.589  1.00  0.00     0.136 A 
HETATM   30  F1  UNL     1      28.987   2.958  53.237  1.00  0.00    -0.205 F 
HETATM   31  C10 UNL     1      28.499   0.490  53.711  1.00  0.00     0.070 A 
HETATM   32 CL1  UNL     1      30.100  -0.113  53.400  1.00  0.00    -0.081 Cl
HETATM   33  C11 UNL     1      27.377  -0.151  54.085  1.00  0.00     0.029 A 
ENDBRANCH  25  27
ENDBRANCH   7  25
TORSDOF 9
ENDMDL
MODEL 2
REMARK VINA RESULT:      -8.0      2.307      3.165
REMARK  9 active torsions:
REMARK  status: ('A' for Active; 'I' for Inactive)
REMARK    1  A    between atoms: O1_2  and  C2_3 
REMARK    2  A    between atoms: C6_9  and  N3_10 
REMARK    3  A    between atoms: N3_10  and  C7_11 
REMARK    4  A    between atoms: C14_20  and  C15_21 
REMARK    5  A    between atoms: C15_21  and  C16_22 
REMARK    6  A    between atoms: C16_22  and  C17_23 
REMARK    7  A    between atoms: C16_22  and  P1_30 
REMARK    8  A    between atoms: C17_23  and  N4_24 
REMARK    9  A    between atoms: P1_30  and  O3_31 
ROOT
HETATM    1  C2  UNL     1      21.542   2.196  51.332  1.00  0.00     0.077 A 
HETATM    2  C3  UNL     1      21.008   1.454  52.400  1.00  0.00     0.070 A 
HETATM    3  C4  UNL     1      21.752   0.626  53.185  1.00  0.00     0.074 A 
HETATM    4  N1  UNL     1      21.123  -0.059  54.189  1.00  0.00    -0.241 NA
HETATM    5  C5  UNL     1      21.910  -0.879  54.938  1.00  0.00     0.235 A 
HETATM    6  N2  UNL     1      23.248  -1.026  54.718  1.00  0.00    -0.224 NA
HETATM    7  C6  UNL     1      23.882  -0.345  53.713  1.00  0.00     0.138 A 
HETATM    8  C12 UNL     1      23.124   0.486  52.940  1.00  0.00     0.039 A 
HETATM    9  C13 UNL     1      23.625   1.228  51.880  1.00  0.00     0.028 A 
HETATM   10  C14 UNL     1      22.922   2.065  51.073  1.00  0.00    -0.020 A 
ENDROOT
BRANCH  10  11
HETATM   11  C15 UNL     1      23.464   2.894  49.990  1.00  0.00     0.080 C 
BRANCH  11  12
HETATM   12  C16 UNL     1      24.725   3.615  50.262  1.00  0.00    -0.021 C 
BRANCH  12  13
HETATM   13  C17 UNL     1      24.323   4.937  50.888  1.00  0.00     0.155 C 
BRANCH  13  14
HETATM   14  N4  UNL     1      24.429   6.054  50.058  1.00  0.00    -0.405 N 
HETATM   15  C18 UNL     1      24.276   5.972  48.673  1.00  0.00     0.143 C 
HETATM   16  C19 UNL     1      25.233   7.011  48.059  1.00  0.00     0.187 C 
HETATM   17  O2  UNL     1      26.379   7.096  48.886  1.00  0.00    -0.388 OA
HETATM   18  C20 UNL     1      26.089   7.743  50.077  1.00  0.00     0.187 C 
HETATM   19  C21 UNL     1      24.746   7.305  50.643  1.00  0.00     0.143 C 
ENDBRANCH  13  14
ENDBRANCH  12  13
BRANCH  12  20
HETATM   20  P1  UNL     1      26.343   3.299  50.042  1.00  0.00     0.106 P 
BRANCH  20  21
HETATM   21  O3  UNL     1      27.467   4.615  49.695  1.00  0.00    -0.362 OA
HETATM   22  H23 UNL     1      27.071   5.107  48.935  1.00  0.00     0.216 HD
ENDBRANCH  20  21
ENDBRANCH  12  20
ENDBRANCH  11  12
ENDBRANCH  10  11
BRANCH   1  23
HETATM   23  O1  UNL     1      20.782   3.019  50.561  1.00  0.00    -0.355 OA
HETATM   24  C1  UNL     1      20.139   4.138  51.128  1.00  0.00     0.210 C 
ENDBRANCH   1  23
BRANCH   7  25
HETATM   25  N3  UNL     1      25.259  -0.499  53.507  1.00  0.00    -0.363 N 
HETATM   26  H6  UNL     1      25.660  -1.115  52.769  1.00  0.00     0.162 HD
BRANCH  25  27
HETATM   27  C7  UNL     1      26.220   0.184  54.325  1.00  0.00     0.134 A 
HETATM   28  C8  UNL     1      26.612   1.532  53.853  1.00  0.00     0.046 A 
HETATM   29  C9  UNL     1      27.907   1.592  53.527  1.00  0.00     0.136 A 
HETATM   30  F1  UNL     1      28.494   2.734  53.068  1.00  0.00    -0.205 F 
HETATM   31  C10 UNL     1      28.508   0.267  53.751  1.00  0.00     0.070 A 
HETATM   32 CL1  UNL     1      30.191  -0.037  53.438  1.00  0.00    -0.081 Cl
HETATM   33  C11 UNL     1      27.540  -0.546  54.210  1.00  0.00     0.029 A 
ENDBRANCH  25  27
ENDBRANCH   7  25
TORSDOF 9
ENDMDL
MODEL 3
REMARK VINA RESULT:      -7.7      1.863      2.284
REMARK  9 active torsions:
REMARK  status: ('A' for Active; 'I' for Inactive)
REMARK    1  A    between atoms: O1_2  and  C2_3 
REMARK    2  A    between atoms: C6_9  and  N3_10 
REMARK    3  A    between atoms: N3_10  and  C7_11 
REMARK    4  A    between atoms: C14_20  and  C15_21 
REMARK    5  A    between atoms: C15_21  and  C16_22 
REMARK    6  A    between atoms: C16_22  and  C17_23 
REMARK    7  A    between atoms: C16_22  and  P1_30 
REMARK    8  A    between atoms: C17_23  and  N4_24 
REMARK    9  A    between atoms: P1_30  and  O3_31 
ROOT
HETATM    1  C2  UNL     1      20.504  -0.419  53.017  1.00  0.00     0.077 A 
HETATM    2  C3  UNL     1      21.064  -1.114  54.104  1.00  0.00     0.070 A 
HETATM    3  C4  UNL     1      22.373  -1.015  54.464  1.00  0.00     0.074 A 
HETATM    4  N1  UNL     1      22.811  -1.750  55.532  1.00  0.00    -0.241 NA
HETATM    5  C5  UNL     1      24.130  -1.622  55.845  1.00  0.00     0.235 A 
HETATM    6  N2  UNL     1      24.982  -0.816  55.149  1.00  0.00    -0.224 NA
HETATM    7  C6  UNL     1      24.549  -0.080  54.078  1.00  0.00     0.138 A 
HETATM    8  C12 UNL     1      23.232  -0.185  53.734  1.00  0.00     0.039 A 
HETATM    9  C13 UNL     1      22.656   0.489  52.666  1.00  0.00     0.028 A 
HETATM   10  C14 UNL     1      21.358   0.421  52.272  1.00  0.00    -0.020 A 
ENDROOT
BRANCH  10  11
HETATM   11  C15 UNL     1      20.736   1.179  51.180  1.00  0.00     0.080 C 
BRANCH  11  12
HETATM   12  C16 UNL     1      19.810   2.267  51.557  1.00  0.00    -0.021 C 
BRANCH  12  13
HETATM   13  C17 UNL     1      20.621   3.230  52.404  1.00  0.00     0.155 C 
BRANCH  13  14
HETATM   14  N4  UNL     1      21.486   4.069  51.699  1.00  0.00    -0.405 N 
HETATM   15  C18 UNL     1      21.065   4.829  50.608  1.00  0.00     0.143 C 
HETATM   16  C19 UNL     1      22.252   4.894  49.628  1.00  0.00     0.187 C 
HETATM   17  O2  UNL     1      22.965   3.675  49.720  1.00  0.00    -0.388 OA
HETATM   18  C20 UNL     1      23.668   3.596  50.912  1.00  0.00     0.187 C 
HETATM   19  C21 UNL     1      22.849   4.113  52.084  1.00  0.00     0.143 C 
ENDBRANCH  13  14
ENDBRANCH  12  13
BRANCH  12  20
HETATM   20  P1  UNL     1      18.210   2.616  51.266  1.00  0.00     0.106 P 
BRANCH  20  21
HETATM   21  O3  UNL     1      17.418   3.937  52.128  1.00  0.00    -0.362 OA
HETATM   22  H23 UNL     1      16.533   4.038  51.701  1.00  0.00     0.216 HD
ENDBRANCH  20  21
ENDBRANCH  12  20
ENDBRANCH  11  12
ENDBRANCH  10  11
BRANCH   1  23
HETATM   23  O1  UNL     1      19.193  -0.530  52.674  1.00  0.00    -0.355 OA
HETATM   24  C1  UNL     1      18.298  -1.249  53.494  1.00  0.00     0.210 C 
ENDBRANCH   1  23
BRANCH   7  25
HETATM   25  N3  UNL     1      25.435   0.752  53.380  1.00  0.00    -0.363 N 
HETATM   26  H6  UNL     1      25.438   1.790  53.477  1.00  0.00     0.162 HD
BRANCH  25  27
HETATM   27  C7  UNL     1      26.399   0.219  52.462  1.00  0.00     0.134 A 
HETATM   28  C8  UNL     1      26.434  -1.259  52.366  1.00  0.00     0.046 A 
HETATM   29  C9  UNL     1      27.604  -1.759  52.776  1.00  0.00     0.136 A 
HETATM   30  F1  UNL     1      27.868  -3.098  52.775  1.00  0.00    -0.205 F 
HETATM   31  C10 UNL     1      28.470  -0.645  53.194  1.00  0.00     0.070 A 
HETATM   32 CL1  UNL     1      30.083  -0.914  53.785  1.00  0.00    -0.081 Cl
HETATM   33  C11 UNL     1      27.780   0.496  53.015  1.00  0.00     0.029 A 
ENDBRANCH  25  27
ENDBRANCH   7  25
TORSDOF 9
ENDMDL
MODEL 4
REMARK VINA RESULT:      -7.6      2.199      2.640
REMARK  9 active torsions:
REMARK  status: ('A' for Active; 'I' for Inactive)
REMARK    1  A    between atoms: O1_2  and  C2_3 
REMARK    2  A    between atoms: C6_9  and  N3_10 
REMARK    3  A    between atoms: N3_10  and  C7_11 
REMARK    4  A    between atoms: C14_20  and  C15_21 
REMARK    5  A    between atoms: C15_21  and  C16_22 
REMARK    6  A    between atoms: C16_22  and  C17_23 
REMARK    7  A    between atoms: C16_22  and  P1_30 
REMARK    8  A    between atoms: C17_23  and  N4_24 
REMARK    9  A    between atoms: P1_30  and  O3_31 
ROOT
HETATM    1  C2  UNL     1      21.264   1.221  50.580  1.00  0.00     0.077 A 
HETATM    2  C3  UNL     1      20.962   0.320  51.617  1.00  0.00     0.070 A 
HETATM    3  C4  UNL     1      21.858  -0.057  52.570  1.00  0.00     0.074 A 
HETATM    4  N1  UNL     1      21.457  -0.952  53.523  1.00  0.00    -0.241 NA
HETATM    5  C5  UNL     1      22.394  -1.301  54.448  1.00  0.00     0.235 A 
HETATM    6  N2  UNL     1      23.663  -0.802  54.442  1.00  0.00    -0.224 NA
HETATM    7  C6  UNL     1      24.071   0.093  53.489  1.00  0.00     0.138 A 
HETATM    8  C12 UNL     1      23.158   0.465  52.544  1.00  0.00     0.039 A 
HETATM    9  C13 UNL     1      23.431   1.351  51.511  1.00  0.00     0.028 A 
HETATM   10  C14 UNL     1      22.570   1.754  50.541  1.00  0.00    -0.020 A 
ENDROOT
BRANCH  10  11
HETATM   11  C15 UNL     1      22.841   2.736  49.485  1.00  0.00     0.080 C 
BRANCH  11  12
HETATM   12  C16 UNL     1      22.567   4.154  49.797  1.00  0.00    -0.021 C 
BRANCH  12  13
HETATM   13  C17 UNL     1      22.897   4.930  48.536  1.00  0.00     0.155 C 
BRANCH  13  14
HETATM   14  N4  UNL     1      23.984   5.801  48.633  1.00  0.00    -0.405 N 
HETATM   15  C18 UNL     1      25.247   5.375  49.046  1.00  0.00     0.143 C 
HETATM   16  C19 UNL     1      25.874   6.541  49.834  1.00  0.00     0.187 C 
HETATM   17  O2  UNL     1      24.833   7.226  50.507  1.00  0.00    -0.388 OA
HETATM   18  C20 UNL     1      24.057   7.953  49.619  1.00  0.00     0.187 C 
HETATM   19  C21 UNL     1      23.781   7.173  48.342  1.00  0.00     0.143 C 
ENDBRANCH  13  14
ENDBRANCH  12  13
BRANCH  12  20
HETATM   20  P1  UNL     1      22.018   4.990  51.125  1.00  0.00     0.106 P 
BRANCH  20  21
HETATM   21  O3  UNL     1      23.161   5.616  52.317  1.00  0.00    -0.362 OA
HETATM   22  H23 UNL     1      23.906   5.997  51.793  1.00  0.00     0.216 HD
ENDBRANCH  20  21
ENDBRANCH  12  20
ENDBRANCH  11  12
ENDBRANCH  10  11
BRANCH   1  23
HETATM   23  O1  UNL     1      20.354   1.585  49.638  1.00  0.00    -0.355 OA
HETATM   24  C1  UNL     1      18.987   1.692  49.969  1.00  0.00     0.210 C 
ENDBRANCH   1  23
BRANCH   7  25
HETATM   25  N3  UNL     1      25.375   0.605  53.503  1.00  0.00    -0.363 N 
HETATM   26  H6  UNL     1      25.694   1.333  54.178  1.00  0.00     0.162 HD
BRANCH  25  27
HETATM   27  C7  UNL     1      26.364   0.164  52.564  1.00  0.00     0.134 A 
HETATM   28  C8  UNL     1      26.505  -1.304  52.433  1.00  0.00     0.046 A 
HETATM   29  C9  UNL     1      27.713  -1.728  52.820  1.00  0.00     0.136 A 
HETATM   30  F1  UNL     1      28.073  -3.043  52.786  1.00  0.00    -0.205 F 
HETATM   31  C10 UNL     1      28.501  -0.562  53.254  1.00  0.00     0.070 A 
HETATM   32 CL1  UNL     1      30.135  -0.726  53.824  1.00  0.00    -0.081 Cl
HETATM   33  C11 UNL     1      27.727   0.528  53.108  1.00  0.00     0.029 A 
ENDBRANCH  25  27
ENDBRANCH   7  25
TORSDOF 9
ENDMDL
MODEL 5
REMARK VINA RESULT:      -7.5      3.338      6.196
REMARK  9 active torsions:
REMARK  status: ('A' for Active; 'I' for Inactive)
REMARK    1  A    between atoms: O1_2  and  C2_3 
REMARK    2  A    between atoms: C6_9  and  N3_10 
REMARK    3  A    between atoms: N3_10  and  C7_11 
REMARK    4  A    between atoms: C14_20  and  C15_21 
REMARK    5  A    between atoms: C15_21  and  C16_22 
REMARK    6  A    between atoms: C16_22  and  C17_23 
REMARK    7  A    between atoms: C16_22  and  P1_30 
REMARK    8  A    between atoms: C17_23  and  N4_24 
REMARK    9  A    between atoms: P1_30  and  O3_31 
ROOT
HETATM    1  C2  UNL     1      22.154   0.276  53.022  1.00  0.00     0.077 A 
HETATM    2  C3  UNL     1      21.010   1.048  52.752  1.00  0.00     0.070 A 
HETATM    3  C4  UNL     1      21.060   2.329  52.293  1.00  0.00     0.074 A 
HETATM    4  N1  UNL     1      19.881   2.990  52.079  1.00  0.00    -0.241 NA
HETATM    5  C5  UNL     1      19.987   4.271  51.628  1.00  0.00     0.235 A 
HETATM    6  N2  UNL     1      21.185   4.880  51.399  1.00  0.00    -0.224 NA
HETATM    7  C6  UNL     1      22.368   4.223  51.615  1.00  0.00     0.138 A 
HETATM    8  C12 UNL     1      22.301   2.937  52.068  1.00  0.00     0.039 A 
HETATM    9  C13 UNL     1      23.414   2.155  52.343  1.00  0.00     0.028 A 
HETATM   10  C14 UNL     1      23.412   0.876  52.800  1.00  0.00    -0.020 A 
ENDROOT
BRANCH  10  11
HETATM   11  C15 UNL     1      24.588   0.030  53.034  1.00  0.00     0.080 C 
BRANCH  11  12
HETATM   12  C16 UNL     1      25.844   0.423  52.362  1.00  0.00    -0.021 C 
BRANCH  12  13
HETATM   13  C17 UNL     1      26.782  -0.760  52.507  1.00  0.00     0.155 C 
BRANCH  13  14
HETATM   14  N4  UNL     1      27.741  -0.647  53.516  1.00  0.00    -0.405 N 
HETATM   15  C18 UNL     1      27.495   0.039  54.706  1.00  0.00     0.143 C 
HETATM   16  C19 UNL     1      28.827   0.690  55.125  1.00  0.00     0.187 C 
HETATM   17  O2  UNL     1      29.532   1.046  53.950  1.00  0.00    -0.388 OA
HETATM   18  C20 UNL     1      30.030  -0.077  53.307  1.00  0.00     0.187 C 
HETATM   19  C21 UNL     1      29.021  -1.216  53.300  1.00  0.00     0.143 C 
ENDBRANCH  13  14
ENDBRANCH  12  13
BRANCH  12  20
HETATM   20  P1  UNL     1      26.383   1.772  51.554  1.00  0.00     0.106 P 
BRANCH  20  21
HETATM   21  O3  UNL     1      27.733   2.713  52.195  1.00  0.00    -0.362 OA
HETATM   22  H23 UNL     1      27.633   3.616  51.808  1.00  0.00     0.216 HD
ENDBRANCH  20  21
ENDBRANCH  12  20
ENDBRANCH  11  12
ENDBRANCH  10  11
BRANCH   1  23
HETATM   23  O1  UNL     1      22.083  -1.002  53.478  1.00  0.00    -0.355 OA
HETATM   24  C1  UNL     1      21.798  -1.262  54.835  1.00  0.00     0.210 C 
ENDBRANCH   1  23
BRANCH   7  25
HETATM   25  N3  UNL     1      23.591   4.859  51.364  1.00  0.00    -0.363 N 
HETATM   26  H6  UNL     1      24.311   5.022  52.100  1.00  0.00     0.162 HD
BRANCH  25  27
HETATM   27  C7  UNL     1      23.929   5.346  50.058  1.00  0.00     0.134 A 
HETATM   28  C8  UNL     1      24.995   4.594  49.357  1.00  0.00     0.046 A 
HETATM   29  C9  UNL     1      26.078   5.347  49.138  1.00  0.00     0.136 A 
HETATM   30  F1  UNL     1      27.187   4.869  48.504  1.00  0.00    -0.205 F 
HETATM   31  C10 UNL     1      25.832   6.692  49.684  1.00  0.00     0.070 A 
HETATM   32 CL1  UNL     1      27.024   7.953  49.579  1.00  0.00    -0.081 Cl
HETATM   33  C11 UNL     1      24.596   6.695  50.215  1.00  0.00     0.029 A 
ENDBRANCH  25  27
ENDBRANCH   7  25
TORSDOF 9
ENDMDL
MODEL 6
REMARK VINA RESULT:      -7.4      3.930      6.026
REMARK  9 active torsions:
REMARK  status: ('A' for Active; 'I' for Inactive)
REMARK    1  A    between atoms: O1_2  and  C2_3 
REMARK    2  A    between atoms: C6_9  and  N3_10 
REMARK    3  A    between atoms: N3_10  and  C7_11 
REMARK    4  A    between atoms: C14_20  and  C15_21 
REMARK    5  A    between atoms: C15_21  and  C16_22 
REMARK    6  A    between atoms: C16_22  and  C17_23 
REMARK    7  A    between atoms: C16_22  and  P1_30 
REMARK    8  A    between atoms: C17_23  and  N4_24 
REMARK    9  A    between atoms: P1_30  and  O3_31 
ROOT
HETATM    1  C2  UNL     1      26.323   1.529  53.060  1.00  0.00     0.077 A 
HETATM    2  C3  UNL     1      26.269   0.676  54.177  1.00  0.00     0.070 A 
HETATM    3  C4  UNL     1      25.187  -0.090  54.486  1.00  0.00     0.074 A 
HETATM    4  N1  UNL     1      25.242  -0.873  55.607  1.00  0.00    -0.241 NA
HETATM    5  C5  UNL     1      24.130  -1.612  55.875  1.00  0.00     0.235 A 
HETATM    6  N2  UNL     1      23.016  -1.588  55.089  1.00  0.00    -0.224 NA
HETATM    7  C6  UNL     1      22.955  -0.805  53.967  1.00  0.00     0.138 A 
HETATM    8  C12 UNL     1      24.051  -0.048  53.667  1.00  0.00     0.039 A 
HETATM    9  C13 UNL     1      24.128   0.802  52.573  1.00  0.00     0.028 A 
HETATM   10  C14 UNL     1      25.186   1.582  52.227  1.00  0.00    -0.020 A 
ENDROOT
BRANCH  10  11
HETATM   11  C15 UNL     1      25.289   2.435  51.037  1.00  0.00     0.080 C 
BRANCH  11  12
HETATM   12  C16 UNL     1      24.341   3.564  50.935  1.00  0.00    -0.021 C 
BRANCH  12  13
HETATM   13  C17 UNL     1      24.200   3.858  49.453  1.00  0.00     0.155 C 
BRANCH  13  14
HETATM   14  N4  UNL     1      24.740   5.073  49.027  1.00  0.00    -0.405 N 
HETATM   15  C18 UNL     1      26.084   5.399  49.214  1.00  0.00     0.143 C 
HETATM   16  C19 UNL     1      26.142   6.919  49.460  1.00  0.00     0.187 C 
HETATM   17  O2  UNL     1      24.967   7.297  50.152  1.00  0.00    -0.388 OA
HETATM   18  C20 UNL     1      23.860   7.252  49.319  1.00  0.00     0.187 C 
HETATM   19  C21 UNL     1      23.879   6.022  48.423  1.00  0.00     0.143 C 
ENDBRANCH  13  14
ENDBRANCH  12  13
BRANCH  12  20
HETATM   20  P1  UNL     1      23.476   4.487  52.015  1.00  0.00     0.106 P 
BRANCH  20  21
HETATM   21  O3  UNL     1      24.124   6.027  52.587  1.00  0.00    -0.362 OA
HETATM   22  H23 UNL     1      25.083   6.012  52.353  1.00  0.00     0.216 HD
ENDBRANCH  20  21
ENDBRANCH  12  20
ENDBRANCH  11  12
ENDBRANCH  10  11
BRANCH   1  23
HETATM   23  O1  UNL     1      27.414   2.285  52.768  1.00  0.00    -0.355 OA
HETATM   24  C1  UNL     1      28.554   2.245  53.598  1.00  0.00     0.210 C 
ENDBRANCH   1  23
BRANCH   7  25
HETATM   25  N3  UNL     1      21.807  -0.800  53.163  1.00  0.00    -0.363 N 
HETATM   26  H6  UNL     1      21.766  -1.255  52.227  1.00  0.00     0.162 HD
BRANCH  25  27
HETATM   27  C7  UNL     1      20.603  -0.143  53.580  1.00  0.00     0.134 A 
HETATM   28  C8  UNL     1      19.348  -0.873  53.288  1.00  0.00     0.046 A 
HETATM   29  C9  UNL     1      18.569  -0.207  52.430  1.00  0.00     0.136 A 
HETATM   30  F1  UNL     1      17.361  -0.684  52.015  1.00  0.00    -0.205 F 
HETATM   31  C10 UNL     1      19.244   1.049  52.061  1.00  0.00     0.070 A 
HETATM   32 CL1  UNL     1      18.524   2.184  50.959  1.00  0.00    -0.081 Cl
HETATM   33  C11 UNL     1      20.416   1.088  52.721  1.00  0.00     0.029 A 
ENDBRANCH  25  27
ENDBRANCH   7  25
TORSDOF 9
ENDMDL
MODEL 7
REMARK VINA RESULT:      -7.4      3.609      6.162
REMARK  9 active torsions:
REMARK  status: ('A' for Active; 'I' for Inactive)
REMARK    1  A    between atoms: O1_2  and  C2_3 
REMARK    2  A    between atoms: C6_9  and  N3_10 
REMARK    3  A    between atoms: N3_10  and  C7_11 
REMARK    4  A    between atoms: C14_20  and  C15_21 
REMARK    5  A    between atoms: C15_21  and  C16_22 
REMARK    6  A    between atoms: C16_22  and  C17_23 
REMARK    7  A    between atoms: C16_22  and  P1_30 
REMARK    8  A    between atoms: C17_23  and  N4_24 
REMARK    9  A    between atoms: P1_30  and  O3_31 
ROOT
HETATM    1  C2  UNL     1      26.629   1.736  52.793  1.00  0.00     0.077 A 
HETATM    2  C3  UNL     1      26.532   0.831  53.866  1.00  0.00     0.070 A 
HETATM    3  C4  UNL     1      25.408   0.115  54.145  1.00  0.00     0.074 A 
HETATM    4  N1  UNL     1      25.423  -0.726  55.224  1.00  0.00    -0.241 NA
HETATM    5  C5  UNL     1      24.272  -1.412  55.464  1.00  0.00     0.235 A 
HETATM    6  N2  UNL     1      23.157  -1.284  54.689  1.00  0.00    -0.224 NA
HETATM    7  C6  UNL     1      23.136  -0.442  53.609  1.00  0.00     0.138 A 
HETATM    8  C12 UNL     1      24.273   0.264  53.338  1.00  0.00     0.039 A 
HETATM    9  C13 UNL     1      24.394   1.163  52.288  1.00  0.00     0.028 A 
HETATM   10  C14 UNL     1      25.493   1.896  51.973  1.00  0.00    -0.020 A 
ENDROOT
BRANCH  10  11
HETATM   11  C15 UNL     1      25.639   2.802  50.827  1.00  0.00     0.080 C 
BRANCH  11  12
HETATM   12  C16 UNL     1      24.716   3.954  50.757  1.00  0.00    -0.021 C 
BRANCH  12  13
HETATM   13  C17 UNL     1      24.621   4.324  49.290  1.00  0.00     0.155 C 
BRANCH  13  14
HETATM   14  N4  UNL     1      23.382   4.094  48.689  1.00  0.00    -0.405 N 
HETATM   15  C18 UNL     1      22.520   5.132  48.334  1.00  0.00     0.143 C 
HETATM   16  C19 UNL     1      21.086   4.609  48.542  1.00  0.00     0.187 C 
HETATM   17  O2  UNL     1      21.099   3.717  49.642  1.00  0.00    -0.388 OA
HETATM   18  C20 UNL     1      21.721   2.524  49.310  1.00  0.00     0.187 C 
HETATM   19  C21 UNL     1      22.972   2.754  48.475  1.00  0.00     0.143 C 
ENDBRANCH  13  14
ENDBRANCH  12  13
BRANCH  12  20
HETATM   20  P1  UNL     1      23.841   4.840  51.860  1.00  0.00     0.106 P 
BRANCH  20  21
HETATM   21  O3  UNL     1      24.333   6.485  52.269  1.00  0.00    -0.362 OA
HETATM   22  H23 UNL     1      23.886   6.689  53.126  1.00  0.00     0.216 HD
ENDBRANCH  20  21
ENDBRANCH  12  20
ENDBRANCH  11  12
ENDBRANCH  10  11
BRANCH   1  23
HETATM   23  O1  UNL     1      27.761   2.441  52.530  1.00  0.00    -0.355 OA
HETATM   24  C1  UNL     1      28.780   2.544  53.500  1.00  0.00     0.210 C 
ENDBRANCH   1  23
BRANCH   7  25
HETATM   25  N3  UNL     1      21.986  -0.329  52.816  1.00  0.00    -0.363 N 
HETATM   26  H6  UNL     1      21.960  -0.597  51.808  1.00  0.00     0.162 HD
BRANCH  25  27
HETATM   27  C7  UNL     1      20.757   0.184  53.346  1.00  0.00     0.134 A 
HETATM   28  C8  UNL     1      19.578  -0.697  53.181  1.00  0.00     0.046 A 
HETATM   29  C9  UNL     1      18.644  -0.143  52.401  1.00  0.00     0.136 A 
HETATM   30  F1  UNL     1      17.468  -0.770  52.108  1.00  0.00    -0.205 F 
HETATM   31  C10 UNL     1      19.123   1.178  51.962  1.00  0.00     0.070 A 
HETATM   32 CL1  UNL     1      18.166   2.200  50.932  1.00  0.00    -0.081 Cl
HETATM   33  C11 UNL     1      20.339   1.370  52.504  1.00  0.00     0.029 A 
ENDBRANCH  25  27
ENDBRANCH   7  25
TORSDOF 9
ENDMDL
MODEL 8
REMARK VINA RESULT:      -7.3      4.616      7.798
REMARK  9 active torsions:
REMARK  status: ('A' for Active; 'I' for Inactive)
REMARK    1  A    between atoms: O1_2  and  C2_3 
REMARK    2  A    between atoms: C6_9  and  N3_10 
REMARK    3  A    between atoms: N3_10  and  C7_11 
REMARK    4  A    between atoms: C14_20  and  C15_21 
REMARK    5  A    between atoms: C15_21  and  C16_22 
REMARK    6  A    between atoms: C16_22  and  C17_23 
REMARK    7  A    between atoms: C16_22  and  P1_30 
REMARK    8  A    between atoms: C17_23  and  N4_24 
REMARK    9  A    between atoms: P1_30  and  O3_31 
ROOT
HETATM    1  C2  UNL     1      24.290   4.386  49.216  1.00  0.00     0.077 A 
HETATM    2  C3  UNL     1      24.136   5.637  48.593  1.00  0.00     0.070 A 
HETATM    3  C4  UNL     1      25.174   6.483  48.341  1.00  0.00     0.074 A 
HETATM    4  N1  UNL     1      24.904   7.683  47.742  1.00  0.00    -0.241 NA
HETATM    5  C5  UNL     1      25.975   8.495  47.520  1.00  0.00     0.235 A 
HETATM    6  N2  UNL     1      27.249   8.153  47.868  1.00  0.00    -0.224 NA
HETATM    7  C6  UNL     1      27.523   6.954  48.471  1.00  0.00     0.138 A 
HETATM    8  C12 UNL     1      26.474   6.114  48.710  1.00  0.00     0.039 A 
HETATM    9  C13 UNL     1      26.598   4.876  49.324  1.00  0.00     0.028 A 
HETATM   10  C14 UNL     1      25.594   4.002  49.593  1.00  0.00    -0.020 A 
ENDROOT
BRANCH  10  11
HETATM   11  C15 UNL     1      25.734   2.668  50.189  1.00  0.00     0.080 C 
BRANCH  11  12
HETATM   12  C16 UNL     1      25.660   2.577  51.662  1.00  0.00    -0.021 C 
BRANCH  12  13
HETATM   13  C17 UNL     1      27.056   2.211  52.128  1.00  0.00     0.155 C 
BRANCH  13  14
HETATM   14  N4  UNL     1      27.190   0.938  52.687  1.00  0.00    -0.405 N 
HETATM   15  C18 UNL     1      26.755  -0.214  52.030  1.00  0.00     0.143 C 
HETATM   16  C19 UNL     1      26.254  -1.182  53.119  1.00  0.00     0.187 C 
HETATM   17  O2  UNL     1      25.689  -0.413  54.165  1.00  0.00    -0.388 OA
HETATM   18  C20 UNL     1      26.673   0.242  54.890  1.00  0.00     0.187 C 
HETATM   19  C21 UNL     1      27.748   0.823  53.984  1.00  0.00     0.143 C 
ENDBRANCH  13  14
ENDBRANCH  12  13
BRANCH  12  20
HETATM   20  P1  UNL     1      24.468   2.780  52.804  1.00  0.00     0.106 P 
BRANCH  20  21
HETATM   21  O3  UNL     1      23.180   3.960  52.545  1.00  0.00    -0.362 OA
HETATM   22  H23 UNL     1      23.639   4.816  52.361  1.00  0.00     0.216 HD
ENDBRANCH  20  21
ENDBRANCH  12  20
ENDBRANCH  11  12
ENDBRANCH  10  11
BRANCH   1  23
HETATM   23  O1  UNL     1      23.241   3.555  49.458  1.00  0.00    -0.355 OA
HETATM   24  C1  UNL     1      22.308   3.268  48.440  1.00  0.00     0.210 C 
ENDBRANCH   1  23
BRANCH   7  25
HETATM   25  N3  UNL     1      28.839   6.613  48.812  1.00  0.00    -0.363 N 
HETATM   26  H6  UNL     1      29.152   6.463  49.795  1.00  0.00     0.162 HD
BRANCH  25  27
HETATM   27  C7  UNL     1      29.857   6.461  47.814  1.00  0.00     0.134 A 
HETATM   28  C8  UNL     1      30.599   5.180  47.854  1.00  0.00     0.046 A 
HETATM   29  C9  UNL     1      31.895   5.360  48.128  1.00  0.00     0.136 A 
HETATM   30  F1  UNL     1      32.776   4.322  48.214  1.00  0.00    -0.205 F 
HETATM   31  C10 UNL     1      32.141   6.801  48.302  1.00  0.00     0.070 A 
HETATM   32 CL1  UNL     1      33.725   7.419  48.666  1.00  0.00    -0.081 Cl
HETATM   33  C11 UNL     1      30.970   7.438  48.122  1.00  0.00     0.029 A 
ENDBRANCH  25  27
ENDBRANCH   7  25
TORSDOF 9
ENDMDL
MODEL 9
REMARK VINA RESULT:      -7.3      4.169      6.133
REMARK  9 active torsions:
REMARK  status: ('A' for Active; 'I' for Inactive)
REMARK    1  A    between atoms: O1_2  and  C2_3 
REMARK    2  A    between atoms: C6_9  and  N3_10 
REMARK    3  A    between atoms: N3_10  and  C7_11 
REMARK    4  A    between atoms: C14_20  and  C15_21 
REMARK    5  A    between atoms: C15_21  and  C16_22 
REMARK    6  A    between atoms: C16_22  and  C17_23 
REMARK    7  A    between atoms: C16_22  and  P1_30 
REMARK    8  A    between atoms: C17_23  and  N4_24 
REMARK    9  A    between atoms: P1_30  and  O3_31 
ROOT
HETATM    1  C2  UNL     1      24.512   1.342  51.956  1.00  0.00     0.077 A 
HETATM    2  C3  UNL     1      24.809   0.467  53.017  1.00  0.00     0.070 A 
HETATM    3  C4  UNL     1      23.857  -0.122  53.793  1.00  0.00     0.074 A 
HETATM    4  N1  UNL     1      24.263  -0.945  54.807  1.00  0.00    -0.241 NA
HETATM    5  C5  UNL     1      23.272  -1.502  55.558  1.00  0.00     0.235 A 
HETATM    6  N2  UNL     1      21.949  -1.265  55.332  1.00  0.00    -0.224 NA
HETATM    7  C6  UNL     1      21.537  -0.440  54.319  1.00  0.00     0.138 A 
HETATM    8  C12 UNL     1      22.503   0.137  53.545  1.00  0.00     0.039 A 
HETATM    9  C13 UNL     1      22.237   1.005  52.495  1.00  0.00     0.028 A 
HETATM   10  C14 UNL     1      23.152   1.613  51.696  1.00  0.00    -0.020 A 
ENDROOT
BRANCH  10  11
HETATM   11  C15 UNL     1      22.868   2.483  50.549  1.00  0.00     0.080 C 
BRANCH  11  12
HETATM   12  C16 UNL     1      22.676   3.921  50.826  1.00  0.00    -0.021 C 
BRANCH  12  13
HETATM   13  C17 UNL     1      22.625   4.604  49.473  1.00  0.00     0.155 C 
BRANCH  13  14
HETATM   14  N4  UNL     1      23.708   5.433  49.175  1.00  0.00    -0.405 N 
HETATM   15  C18 UNL     1      25.028   4.985  49.232  1.00  0.00     0.143 C 
HETATM   16  C19 UNL     1      25.881   6.178  49.704  1.00  0.00     0.187 C 
HETATM   17  O2  UNL     1      25.100   6.952  50.595  1.00  0.00    -0.388 OA
HETATM   18  C20 UNL     1      24.109   7.645  49.918  1.00  0.00     0.187 C 
HETATM   19  C21 UNL     1      23.454   6.787  48.846  1.00  0.00     0.143 C 
ENDBRANCH  13  14
ENDBRANCH  12  13
BRANCH  12  20
HETATM   20  P1  UNL     1      22.517   4.854  52.194  1.00  0.00     0.106 P 
BRANCH  20  21
HETATM   21  O3  UNL     1      23.921   5.680  52.875  1.00  0.00    -0.362 OA
HETATM   22  H23 UNL     1      24.691   5.091  52.688  1.00  0.00     0.216 HD
ENDBRANCH  20  21
ENDBRANCH  12  20
ENDBRANCH  11  12
ENDBRANCH  10  11
BRANCH   1  23
HETATM   23  O1  UNL     1      25.477   1.919  51.192  1.00  0.00    -0.355 OA
HETATM   24  C1  UNL     1      26.769   2.134  51.714  1.00  0.00     0.210 C 
ENDBRANCH   1  23
BRANCH   7  25
HETATM   25  N3  UNL     1      20.173  -0.216  54.092  1.00  0.00    -0.363 N 
HETATM   26  H6  UNL     1      19.597   0.431  54.672  1.00  0.00     0.162 HD
BRANCH  25  27
HETATM   27  C7  UNL     1      19.468  -0.886  53.039  1.00  0.00     0.134 A 
HETATM   28  C8  UNL     1      18.121  -0.351  52.736  1.00  0.00     0.046 A 
HETATM   29  C9  UNL     1      17.159  -1.247  52.982  1.00  0.00     0.136 A 
HETATM   30  F1  UNL     1      15.838  -0.979  52.776  1.00  0.00    -0.205 F 
HETATM   31  C10 UNL     1      17.786  -2.481  53.484  1.00  0.00     0.070 A 
HETATM   32 CL1  UNL     1      16.841  -3.878  53.909  1.00  0.00    -0.081 Cl
HETATM   33  C11 UNL     1      19.115  -2.277  53.518  1.00  0.00     0.029 A 
ENDBRANCH  25  27
ENDBRANCH   7  25
TORSDOF 9
ENDMDL
