MODEL 1
REMARK VINA RESULT:      -6.4      0.000      0.000
REMARK  2 active torsions:
REMARK  status: ('A' for Active; 'I' for Inactive)
REMARK    1  A    between atoms: O1_2  and  C2_3 
REMARK    2  A    between atoms: C8_11  and  O2_12 
ROOT
HETATM    1  C2  UNL     1      23.115   2.793  49.653  1.00  0.00     0.152 A 
HETATM    2  C3  UNL     1      24.276   3.266  49.086  1.00  0.00     0.091 A 
HETATM    3  C4  UNL     1      24.576   4.299  49.932  1.00  0.00     0.105 A 
HETATM    4  C5  UNL     1      23.751   4.572  50.981  1.00  0.00     0.090 A 
HETATM    5  C6  UNL     1      23.499   5.325  52.090  1.00  0.00     0.151 A 
HETATM    6  N1  UNL     1      22.361   4.750  52.617  1.00  0.00    -0.242 NA
HETATM    7  C7  UNL     1      22.085   3.749  51.774  1.00  0.00     0.143 A 
HETATM    8  N2  UNL     1      22.892   3.572  50.712  1.00  0.00    -0.274 N 
HETATM    9  C8  UNL     1      21.171   2.582  51.978  1.00  0.00     0.212 C 
HETATM   10  C9  UNL     1      22.109   1.523  52.715  1.00  0.00     0.214 C 
HETATM   11  O3  UNL     1      23.222   1.301  51.919  1.00  0.00    -0.359 OA
HETATM   12  C10 UNL     1      24.539   1.153  52.180  1.00  0.00     0.143 C 
HETATM   13  C11 UNL     1      25.813   1.511  51.948  1.00  0.00     0.090 C 
HETATM   14  C12 UNL     1      26.203   2.497  51.031  1.00  0.00    -0.058 C 
HETATM   15  C13 UNL     1      26.513   3.336  50.257  1.00  0.00     0.007 C 
HETATM   16  N3  UNL     1      26.853   4.330  49.348  1.00  0.00    -0.139 NA
HETATM   17  N4  UNL     1      25.771   4.862  50.099  1.00  0.00    -0.187 NA
HETATM   18  H12 UNL     1      27.548   3.568  49.110  1.00  0.00     0.165 HD
ENDROOT
BRANCH   1  19
HETATM   19  O1  UNL     1      22.396   1.728  49.152  1.00  0.00    -0.340 OA
HETATM   20  C1  UNL     1      21.345   1.993  48.262  1.00  0.00     0.211 C 
ENDBRANCH   1  19
BRANCH   9  21
HETATM   21  O2  UNL     1      20.165   2.840  52.844  1.00  0.00    -0.386 OA
HETATM   22  H7  UNL     1      19.823   1.961  53.197  1.00  0.00     0.210 HD
ENDBRANCH   9  21
TORSDOF 2
ENDMDL
MODEL 2
REMARK VINA RESULT:      -6.3      2.085      3.659
REMARK  2 active torsions:
REMARK  status: ('A' for Active; 'I' for Inactive)
REMARK    1  A    between atoms: O1_2  and  C2_3 
REMARK    2  A    between atoms: C8_11  and  O2_12 
ROOT
HETATM    1  C2  UNL     1      21.454   3.013  52.279  1.00  0.00     0.152 A 
HETATM    2  C3  UNL     1      22.275   3.704  51.418  1.00  0.00     0.091 A 
HETATM    3  C4  UNL     1      23.396   2.920  51.441  1.00  0.00     0.105 A 
HETATM    4  C5  UNL     1      23.420   1.802  52.218  1.00  0.00     0.090 A 
HETATM    5  C6  UNL     1      24.100   0.694  52.632  1.00  0.00     0.151 A 
HETATM    6  N1  UNL     1      23.190   0.042  53.439  1.00  0.00    -0.242 NA
HETATM    7  C7  UNL     1      22.107   0.826  53.404  1.00  0.00     0.143 A 
HETATM    8  N2  UNL     1      22.165   1.958  52.679  1.00  0.00    -0.274 N 
HETATM    9  C8  UNL     1      20.706   0.501  53.817  1.00  0.00     0.212 C 
HETATM   10  C9  UNL     1      20.097  -0.167  52.503  1.00  0.00     0.214 C 
HETATM   11  O3  UNL     1      20.238   0.729  51.454  1.00  0.00    -0.359 OA
HETATM   12  C10 UNL     1      20.585   0.596  50.155  1.00  0.00     0.143 C 
HETATM   13  C11 UNL     1      21.359   0.963  49.120  1.00  0.00     0.090 C 
HETATM   14  C12 UNL     1      22.361   1.940  49.189  1.00  0.00    -0.058 C 
HETATM   15  C13 UNL     1      23.207   2.763  49.267  1.00  0.00     0.007 C 
HETATM   16  N3  UNL     1      24.200   3.728  49.385  1.00  0.00    -0.139 NA
HETATM   17  N4  UNL     1      24.356   2.887  50.520  1.00  0.00    -0.187 NA
HETATM   18  H12 UNL     1      23.722   4.012  48.484  1.00  0.00     0.165 HD
ENDROOT
BRANCH   1  19
HETATM   19  O1  UNL     1      20.175   3.410  52.605  1.00  0.00    -0.340 OA
HETATM   20  C1  UNL     1      19.334   3.861  51.576  1.00  0.00     0.211 C 
ENDBRANCH   1  19
BRANCH   9  21
HETATM   21  O2  UNL     1      20.641  -0.454  54.773  1.00  0.00    -0.386 OA
HETATM   22  H7  UNL     1      21.393  -0.296  55.423  1.00  0.00     0.210 HD
ENDBRANCH   9  21
TORSDOF 2
ENDMDL
MODEL 3
REMARK VINA RESULT:      -6.3      9.799     11.761
REMARK  2 active torsions:
REMARK  status: ('A' for Active; 'I' for Inactive)
REMARK    1  A    between atoms: O1_2  and  C2_3 
REMARK    2  A    between atoms: C8_11  and  O2_12 
ROOT
HETATM    1  C2  UNL     1      32.153   6.434  47.809  1.00  0.00     0.152 A 
HETATM    2  C3  UNL     1      32.902   5.742  48.733  1.00  0.00     0.091 A 
HETATM    3  C4  UNL     1      33.757   5.055  47.913  1.00  0.00     0.105 A 
HETATM    4  C5  UNL     1      33.656   5.200  46.562  1.00  0.00     0.090 A 
HETATM    5  C6  UNL     1      34.141   4.891  45.326  1.00  0.00     0.151 A 
HETATM    6  N1  UNL     1      33.374   5.663  44.477  1.00  0.00    -0.242 NA
HETATM    7  C7  UNL     1      32.548   6.320  45.298  1.00  0.00     0.143 A 
HETATM    8  N2  UNL     1      32.641   6.082  46.618  1.00  0.00    -0.274 N 
HETATM    9  C8  UNL     1      31.709   7.525  45.008  1.00  0.00     0.212 C 
HETATM   10  C9  UNL     1      32.717   8.731  45.278  1.00  0.00     0.214 C 
HETATM   11  O3  UNL     1      33.199   8.614  46.573  1.00  0.00    -0.359 OA
HETATM   12  C10 UNL     1      34.417   8.784  47.132  1.00  0.00     0.143 C 
HETATM   13  C11 UNL     1      35.418   8.312  47.893  1.00  0.00     0.090 C 
HETATM   14  C12 UNL     1      35.417   7.052  48.509  1.00  0.00    -0.058 C 
HETATM   15  C13 UNL     1      35.401   5.984  49.016  1.00  0.00     0.007 C 
HETATM   16  N3  UNL     1      35.363   4.722  49.596  1.00  0.00    -0.139 NA
HETATM   17  N4  UNL     1      34.932   4.533  48.256  1.00  0.00    -0.187 NA
HETATM   18  H12 UNL     1      35.703   5.322  50.398  1.00  0.00     0.165 HD
ENDROOT
BRANCH   1  19
HETATM   19  O1  UNL     1      31.125   7.290  48.142  1.00  0.00    -0.340 OA
HETATM   20  C1  UNL     1      31.236   8.037  49.323  1.00  0.00     0.211 C 
ENDBRANCH   1  19
BRANCH   9  21
HETATM   21  O2  UNL     1      31.359   7.629  43.706  1.00  0.00    -0.386 OA
HETATM   22  H7  UNL     1      30.495   7.129  43.574  1.00  0.00     0.210 HD
ENDBRANCH   9  21
TORSDOF 2
ENDMDL
MODEL 4
REMARK VINA RESULT:      -6.2      8.662     11.138
REMARK  2 active torsions:
REMARK  status: ('A' for Active; 'I' for Inactive)
REMARK    1  A    between atoms: O1_2  and  C2_3 
REMARK    2  A    between atoms: C8_11  and  O2_12 
ROOT
HETATM    1  C2  UNL     1      33.951   6.124  48.171  1.00  0.00     0.152 A 
HETATM    2  C3  UNL     1      34.803   5.201  47.610  1.00  0.00     0.091 A 
HETATM    3  C4  UNL     1      33.917   4.234  47.217  1.00  0.00     0.105 A 
HETATM    4  C5  UNL     1      32.587   4.401  47.459  1.00  0.00     0.090 A 
HETATM    5  C6  UNL     1      31.317   3.923  47.323  1.00  0.00     0.151 A 
HETATM    6  N1  UNL     1      30.537   4.928  47.859  1.00  0.00    -0.242 NA
HETATM    7  C7  UNL     1      31.422   5.856  48.238  1.00  0.00     0.143 A 
HETATM    8  N2  UNL     1      32.729   5.606  48.042  1.00  0.00    -0.274 N 
HETATM    9  C8  UNL     1      31.176   7.290  48.589  1.00  0.00     0.212 C 
HETATM   10  C9  UNL     1      31.227   8.015  47.170  1.00  0.00     0.214 C 
HETATM   11  O3  UNL     1      32.447   7.727  46.577  1.00  0.00    -0.359 OA
HETATM   12  C10 UNL     1      32.819   7.418  45.316  1.00  0.00     0.143 C 
HETATM   13  C11 UNL     1      33.462   6.600  44.467  1.00  0.00     0.090 C 
HETATM   14  C12 UNL     1      34.150   5.441  44.852  1.00  0.00    -0.058 C 
HETATM   15  C13 UNL     1      34.721   4.463  45.195  1.00  0.00     0.007 C 
HETATM   16  N3  UNL     1      35.379   3.316  45.621  1.00  0.00    -0.139 NA
HETATM   17  N4  UNL     1      34.125   3.301  46.291  1.00  0.00    -0.187 NA
HETATM   18  H12 UNL     1      36.086   3.742  44.960  1.00  0.00     0.165 HD
ENDROOT
BRANCH   1  19
HETATM   19  O1  UNL     1      34.370   7.312  48.733  1.00  0.00    -0.340 OA
HETATM   20  C1  UNL     1      35.531   7.915  48.229  1.00  0.00     0.211 C 
ENDBRANCH   1  19
BRANCH   9  21
HETATM   21  O2  UNL     1      29.932   7.515  49.068  1.00  0.00    -0.386 OA
HETATM   22  H7  UNL     1      29.273   7.306  48.336  1.00  0.00     0.210 HD
ENDBRANCH   9  21
TORSDOF 2
ENDMDL
MODEL 5
REMARK VINA RESULT:      -6.2      9.376     11.685
REMARK  2 active torsions:
REMARK  status: ('A' for Active; 'I' for Inactive)
REMARK    1  A    between atoms: O1_2  and  C2_3 
REMARK    2  A    between atoms: C8_11  and  O2_12 
ROOT
HETATM    1  C2  UNL     1      33.779   6.118  45.842  1.00  0.00     0.152 A 
HETATM    2  C3  UNL     1      33.226   4.904  45.506  1.00  0.00     0.091 A 
HETATM    3  C4  UNL     1      33.623   4.135  46.567  1.00  0.00     0.105 A 
HETATM    4  C5  UNL     1      34.378   4.691  47.556  1.00  0.00     0.090 A 
HETATM    5  C6  UNL     1      35.004   4.538  48.758  1.00  0.00     0.151 A 
HETATM    6  N1  UNL     1      35.476   5.805  49.036  1.00  0.00    -0.242 NA
HETATM    7  C7  UNL     1      35.080   6.535  47.988  1.00  0.00     0.143 A 
HETATM    8  N2  UNL     1      34.401   5.918  47.004  1.00  0.00    -0.274 N 
HETATM    9  C8  UNL     1      35.015   8.024  47.860  1.00  0.00     0.212 C 
HETATM   10  C9  UNL     1      33.582   8.369  48.469  1.00  0.00     0.214 C 
HETATM   11  O3  UNL     1      32.627   7.648  47.767  1.00  0.00    -0.359 OA
HETATM   12  C10 UNL     1      31.514   6.974  48.133  1.00  0.00     0.143 C 
HETATM   13  C11 UNL     1      30.785   5.846  48.112  1.00  0.00     0.090 C 
HETATM   14  C12 UNL     1      31.167   4.669  47.455  1.00  0.00    -0.058 C 
HETATM   15  C13 UNL     1      31.508   3.682  46.899  1.00  0.00     0.007 C 
HETATM   16  N3  UNL     1      31.934   2.532  46.245  1.00  0.00    -0.139 NA
HETATM   17  N4  UNL     1      33.067   2.995  46.968  1.00  0.00    -0.187 NA
HETATM   18  H12 UNL     1      30.924   2.599  45.937  1.00  0.00     0.165 HD
ENDROOT
BRANCH   1  19
HETATM   19  O1  UNL     1      33.664   7.254  45.068  1.00  0.00    -0.340 OA
HETATM   20  C1  UNL     1      34.099   7.199  43.736  1.00  0.00     0.211 C 
ENDBRANCH   1  19
BRANCH   9  21
HETATM   21  O2  UNL     1      35.907   8.666  48.648  1.00  0.00    -0.386 OA
HETATM   22  H7  UNL     1      36.814   8.591  48.217  1.00  0.00     0.210 HD
ENDBRANCH   9  21
TORSDOF 2
ENDMDL
MODEL 6
REMARK VINA RESULT:      -6.2     22.563     24.469
REMARK  2 active torsions:
REMARK  status: ('A' for Active; 'I' for Inactive)
REMARK    1  A    between atoms: O1_2  and  C2_3 
REMARK    2  A    between atoms: C8_11  and  O2_12 
ROOT
HETATM    1  C2  UNL     1      40.910  -3.034  67.987  1.00  0.00     0.152 A 
HETATM    2  C3  UNL     1      41.492  -1.791  67.892  1.00  0.00     0.091 A 
HETATM    3  C4  UNL     1      40.492  -1.081  67.284  1.00  0.00     0.105 A 
HETATM    4  C5  UNL     1      39.326  -1.704  66.957  1.00  0.00     0.090 A 
HETATM    5  C6  UNL     1      38.068  -1.608  66.441  1.00  0.00     0.151 A 
HETATM    6  N1  UNL     1      37.547  -2.873  66.626  1.00  0.00    -0.242 NA
HETATM    7  C7  UNL     1      38.540  -3.547  67.216  1.00  0.00     0.143 A 
HETATM    8  N2  UNL     1      39.697  -2.902  67.448  1.00  0.00    -0.274 N 
HETATM    9  C8  UNL     1      38.477  -4.854  67.943  1.00  0.00     0.212 C 
HETATM   10  C9  UNL     1      38.076  -4.416  69.423  1.00  0.00     0.214 C 
HETATM   11  O3  UNL     1      39.017  -3.505  69.877  1.00  0.00    -0.359 OA
HETATM   12  C10 UNL     1      38.936  -2.358  70.586  1.00  0.00     0.143 C 
HETATM   13  C11 UNL     1      39.229  -1.053  70.715  1.00  0.00     0.090 C 
HETATM   14  C12 UNL     1      39.965  -0.311  69.780  1.00  0.00    -0.058 C 
HETATM   15  C13 UNL     1      40.582   0.301  68.978  1.00  0.00     0.007 C 
HETATM   16  N3  UNL     1      41.303   1.000  68.018  1.00  0.00    -0.139 NA
HETATM   17  N4  UNL     1      40.346   0.242  67.291  1.00  0.00    -0.187 NA
HETATM   18  H12 UNL     1      41.764   1.319  68.916  1.00  0.00     0.165 HD
ENDROOT
BRANCH   1  19
HETATM   19  O1  UNL     1      41.533  -4.133  68.538  1.00  0.00    -0.340 OA
HETATM   20  C1  UNL     1      42.461  -3.926  69.570  1.00  0.00     0.211 C 
ENDBRANCH   1  19
BRANCH   9  21
HETATM   21  O2  UNL     1      37.472  -5.652  67.516  1.00  0.00    -0.386 OA
HETATM   22  H7  UNL     1      36.714  -5.064  67.212  1.00  0.00     0.210 HD
ENDBRANCH   9  21
TORSDOF 2
ENDMDL
MODEL 7
REMARK VINA RESULT:      -6.2      8.841     10.976
REMARK  2 active torsions:
REMARK  status: ('A' for Active; 'I' for Inactive)
REMARK    1  A    between atoms: O1_2  and  C2_3 
REMARK    2  A    between atoms: C8_11  and  O2_12 
ROOT
HETATM    1  C2  UNL     1      33.599   5.781  45.646  1.00  0.00     0.152 A 
HETATM    2  C3  UNL     1      33.914   7.089  45.935  1.00  0.00     0.091 A 
HETATM    3  C4  UNL     1      32.976   7.378  46.890  1.00  0.00     0.105 A 
HETATM    4  C5  UNL     1      32.075   6.425  47.258  1.00  0.00     0.090 A 
HETATM    5  C6  UNL     1      31.034   6.067  48.063  1.00  0.00     0.151 A 
HETATM    6  N1  UNL     1      30.825   4.740  47.745  1.00  0.00    -0.242 NA
HETATM    7  C7  UNL     1      31.748   4.482  46.812  1.00  0.00     0.143 A 
HETATM    8  N2  UNL     1      32.564   5.482  46.432  1.00  0.00    -0.274 N 
HETATM    9  C8  UNL     1      32.225   3.154  46.314  1.00  0.00     0.212 C 
HETATM   10  C9  UNL     1      33.371   2.777  47.357  1.00  0.00     0.214 C 
HETATM   11  O3  UNL     1      34.304   3.803  47.367  1.00  0.00    -0.359 OA
HETATM   12  C10 UNL     1      34.998   4.421  48.348  1.00  0.00     0.143 C 
HETATM   13  C11 UNL     1      35.377   5.555  48.959  1.00  0.00     0.090 C 
HETATM   14  C12 UNL     1      34.983   6.840  48.559  1.00  0.00    -0.058 C 
HETATM   15  C13 UNL     1      34.635   7.915  48.212  1.00  0.00     0.007 C 
HETATM   16  N3  UNL     1      34.207   9.168  47.788  1.00  0.00    -0.139 NA
HETATM   17  N4  UNL     1      33.042   8.354  47.792  1.00  0.00    -0.187 NA
HETATM   18  H12 UNL     1      35.242   9.328  47.940  1.00  0.00     0.165 HD
ENDROOT
BRANCH   1  19
HETATM   19  O1  UNL     1      34.270   5.019  44.714  1.00  0.00    -0.340 OA
HETATM   20  C1  UNL     1      33.709   4.882  43.436  1.00  0.00     0.211 C 
ENDBRANCH   1  19
BRANCH   9  21
HETATM   21  O2  UNL     1      31.295   2.178  46.427  1.00  0.00    -0.386 OA
HETATM   22  H7  UNL     1      31.729   1.385  46.869  1.00  0.00     0.210 HD
ENDBRANCH   9  21
TORSDOF 2
ENDMDL
MODEL 8
REMARK VINA RESULT:      -6.1      2.143      4.546
REMARK  2 active torsions:
REMARK  status: ('A' for Active; 'I' for Inactive)
REMARK    1  A    between atoms: O1_2  and  C2_3 
REMARK    2  A    between atoms: C8_11  and  O2_12 
ROOT
HETATM    1  C2  UNL     1      24.422   2.110  51.609  1.00  0.00     0.152 A 
HETATM    2  C3  UNL     1      23.574   1.115  52.038  1.00  0.00     0.091 A 
HETATM    3  C4  UNL     1      22.464   1.845  52.369  1.00  0.00     0.105 A 
HETATM    4  C5  UNL     1      22.478   3.199  52.221  1.00  0.00     0.090 A 
HETATM    5  C6  UNL     1      21.802   4.380  52.308  1.00  0.00     0.151 A 
HETATM    6  N1  UNL     1      22.702   5.302  51.812  1.00  0.00    -0.242 NA
HETATM    7  C7  UNL     1      23.776   4.569  51.500  1.00  0.00     0.143 A 
HETATM    8  N2  UNL     1      23.733   3.245  51.737  1.00  0.00    -0.274 N 
HETATM    9  C8  UNL     1      24.942   4.943  50.640  1.00  0.00     0.212 C 
HETATM   10  C9  UNL     1      24.434   4.575  49.174  1.00  0.00     0.214 C 
HETATM   11  O3  UNL     1      24.065   3.238  49.165  1.00  0.00    -0.359 OA
HETATM   12  C10 UNL     1      23.037   2.559  48.612  1.00  0.00     0.143 C 
HETATM   13  C11 UNL     1      22.012   1.701  48.743  1.00  0.00     0.090 C 
HETATM   14  C12 UNL     1      21.644   1.087  49.948  1.00  0.00    -0.058 C 
HETATM   15  C13 UNL     1      21.344   0.582  50.975  1.00  0.00     0.007 C 
HETATM   16  N3  UNL     1      21.007   0.008  52.194  1.00  0.00    -0.139 NA
HETATM   17  N4  UNL     1      21.219   1.385  52.474  1.00  0.00    -0.187 NA
HETATM   18  H12 UNL     1      20.968  -0.824  51.541  1.00  0.00     0.165 HD
ENDROOT
BRANCH   1  19
HETATM   19  O1  UNL     1      25.707   1.883  51.162  1.00  0.00    -0.340 OA
HETATM   20  C1  UNL     1      26.764   2.033  52.071  1.00  0.00     0.211 C 
ENDBRANCH   1  19
BRANCH   9  21
HETATM   21  O2  UNL     1      25.182   6.274  50.618  1.00  0.00    -0.386 OA
HETATM   22  H7  UNL     1      25.454   6.558  51.545  1.00  0.00     0.210 HD
ENDBRANCH   9  21
TORSDOF 2
ENDMDL
MODEL 9
REMARK VINA RESULT:      -5.9      1.999      3.445
REMARK  2 active torsions:
REMARK  status: ('A' for Active; 'I' for Inactive)
REMARK    1  A    between atoms: O1_2  and  C2_3 
REMARK    2  A    between atoms: C8_11  and  O2_12 
ROOT
HETATM    1  C2  UNL     1      22.267   5.037  51.707  1.00  0.00     0.152 A 
HETATM    2  C3  UNL     1      23.636   4.913  51.739  1.00  0.00     0.091 A 
HETATM    3  C4  UNL     1      23.770   3.601  52.105  1.00  0.00     0.105 A 
HETATM    4  C5  UNL     1      22.658   2.848  52.329  1.00  0.00     0.090 A 
HETATM    5  C6  UNL     1      22.129   1.630  52.641  1.00  0.00     0.151 A 
HETATM    6  N1  UNL     1      20.768   1.835  52.532  1.00  0.00    -0.242 NA
HETATM    7  C7  UNL     1      20.662   3.120  52.178  1.00  0.00     0.143 A 
HETATM    8  N2  UNL     1      21.792   3.837  52.043  1.00  0.00    -0.274 N 
HETATM    9  C8  UNL     1      19.477   3.836  51.610  1.00  0.00     0.212 C 
HETATM   10  C9  UNL     1      19.612   3.556  50.046  1.00  0.00     0.214 C 
HETATM   11  O3  UNL     1      20.858   4.001  49.630  1.00  0.00    -0.359 OA
HETATM   12  C10 UNL     1      21.789   3.507  48.786  1.00  0.00     0.143 C 
HETATM   13  C11 UNL     1      23.061   3.146  48.548  1.00  0.00     0.090 C 
HETATM   14  C12 UNL     1      24.099   3.241  49.485  1.00  0.00    -0.058 C 
HETATM   15  C13 UNL     1      24.961   3.321  50.291  1.00  0.00     0.007 C 
HETATM   16  N3  UNL     1      25.955   3.419  51.257  1.00  0.00    -0.139 NA
HETATM   17  N4  UNL     1      24.843   2.835  51.921  1.00  0.00    -0.187 NA
HETATM   18  H12 UNL     1      26.435   3.824  50.405  1.00  0.00     0.165 HD
ENDROOT
BRANCH   1  19
HETATM   19  O1  UNL     1      21.610   6.207  51.387  1.00  0.00    -0.340 OA
HETATM   20  C1  UNL     1      22.271   7.144  50.580  1.00  0.00     0.211 C 
ENDBRANCH   1  19
BRANCH   9  21
HETATM   21  O2  UNL     1      18.297   3.286  51.977  1.00  0.00    -0.386 OA
HETATM   22  H7  UNL     1      18.004   2.660  51.245  1.00  0.00     0.210 HD
ENDBRANCH   9  21
TORSDOF 2
ENDMDL
