MODEL 1
REMARK VINA RESULT:      -8.2      0.000      0.000
REMARK  3 active torsions:
REMARK  status: ('A' for Active; 'I' for Inactive)
REMARK    1  A    between atoms: C8_8  and  C9_9 
REMARK       I    between atoms: C9_9  and  N1_11 
REMARK    2  A    between atoms: N1_11  and  C10_12 
REMARK    3  A    between atoms: C16_18  and  S1_19 
ROOT
HETATM    1  C1  UNL     1      22.137   2.557  48.022  1.00  0.00     0.048 C 
HETATM    2  C2  UNL     1      21.633   1.846  49.243  1.00  0.00    -0.061 A 
HETATM    3  C3  UNL     1      20.290   1.553  49.322  1.00  0.00     0.009 A 
HETATM    4  C4  UNL     1      19.849   0.905  50.440  1.00  0.00     0.031 A 
HETATM    5  C5  UNL     1      20.712   0.555  51.454  1.00  0.00     0.046 A 
HETATM    6  C6  UNL     1      22.056   0.846  51.375  1.00  0.00     0.010 A 
HETATM    7  C7  UNL     1      22.496   1.498  50.249  1.00  0.00     0.021 A 
HETATM    8  C8  UNL     1      22.782   0.435  52.468  1.00  0.00     0.078 A 
HETATM    9  C16 UNL     1      21.778  -0.147  53.255  1.00  0.00     0.086 A 
HETATM   10  N2  UNL     1      20.614  -0.055  52.636  1.00  0.00    -0.344 N 
HETATM   11  C17 UNL     1      19.308  -0.537  53.110  1.00  0.00     0.157 C 
ENDROOT
BRANCH   8  12
HETATM   12  C9  UNL     1      24.147   0.450  52.885  1.00  0.00     0.259 C 
HETATM   13  O1  UNL     1      24.705   1.588  53.057  1.00  0.00    -0.267 OA
HETATM   14  N1  UNL     1      25.102  -0.529  53.177  1.00  0.00    -0.323 N 
HETATM   15  H7  UNL     1      24.713  -1.487  53.073  1.00  0.00     0.169 HD
BRANCH  14  16
HETATM   16  C10 UNL     1      26.451  -0.468  53.587  1.00  0.00     0.035 A 
HETATM   17  C11 UNL     1      26.987   0.227  54.643  1.00  0.00     0.029 A 
HETATM   18  C12 UNL     1      28.315   0.249  54.995  1.00  0.00     0.002 A 
HETATM   19  C13 UNL     1      29.186  -0.484  54.229  1.00  0.00     0.000 A 
HETATM   20  C14 UNL     1      28.728  -1.205  53.156  1.00  0.00     0.002 A 
HETATM   21  C15 UNL     1      27.400  -1.179  52.867  1.00  0.00     0.029 A 
ENDBRANCH  14  16
ENDBRANCH   8  12
BRANCH   9  22
HETATM   22  S1  UNL     1      21.912  -0.934  54.878  1.00  0.00    -0.124 SA
HETATM   23  H13 UNL     1      23.214  -1.449  54.987  1.00  0.00     0.108 HD
ENDBRANCH   9  22
TORSDOF 3
ENDMDL
MODEL 2
REMARK VINA RESULT:      -8.0      5.883      7.461
REMARK  3 active torsions:
REMARK  status: ('A' for Active; 'I' for Inactive)
REMARK    1  A    between atoms: C8_8  and  C9_9 
REMARK       I    between atoms: C9_9  and  N1_11 
REMARK    2  A    between atoms: N1_11  and  C10_12 
REMARK    3  A    between atoms: C16_18  and  S1_19 
ROOT
HETATM    1  C1  UNL     1      30.776   5.483  47.818  1.00  0.00     0.048 C 
HETATM    2  C2  UNL     1      29.379   6.027  47.882  1.00  0.00    -0.061 A 
HETATM    3  C3  UNL     1      29.121   7.240  47.285  1.00  0.00     0.009 A 
HETATM    4  C4  UNL     1      27.845   7.718  47.352  1.00  0.00     0.031 A 
HETATM    5  C5  UNL     1      26.848   7.018  47.993  1.00  0.00     0.046 A 
HETATM    6  C6  UNL     1      27.105   5.803  48.590  1.00  0.00     0.010 A 
HETATM    7  C7  UNL     1      28.390   5.324  48.520  1.00  0.00     0.021 A 
HETATM    8  C8  UNL     1      26.007   5.232  49.190  1.00  0.00     0.078 A 
HETATM    9  C16 UNL     1      25.023   6.194  48.923  1.00  0.00     0.086 A 
HETATM   10  N2  UNL     1      25.548   7.195  48.238  1.00  0.00    -0.344 N 
HETATM   11  C17 UNL     1      24.867   8.404  47.756  1.00  0.00     0.157 C 
ENDROOT
BRANCH   8  12
HETATM   12  C9  UNL     1      25.707   4.027  49.894  1.00  0.00     0.259 C 
HETATM   13  O1  UNL     1      24.950   3.172  49.317  1.00  0.00    -0.267 OA
HETATM   14  N1  UNL     1      26.052   3.500  51.143  1.00  0.00    -0.323 N 
HETATM   15  H7  UNL     1      26.682   4.138  51.667  1.00  0.00     0.169 HD
BRANCH  14  16
HETATM   16  C10 UNL     1      25.727   2.297  51.804  1.00  0.00     0.035 A 
HETATM   17  C11 UNL     1      24.607   2.011  52.546  1.00  0.00     0.029 A 
HETATM   18  C12 UNL     1      24.345   0.814  53.169  1.00  0.00     0.002 A 
HETATM   19  C13 UNL     1      25.278  -0.184  53.044  1.00  0.00     0.000 A 
HETATM   20  C14 UNL     1      26.424   0.024  52.319  1.00  0.00     0.002 A 
HETATM   21  C15 UNL     1      26.616   1.233  51.730  1.00  0.00     0.029 A 
ENDBRANCH  14  16
ENDBRANCH   8  12
BRANCH   9  22
HETATM   22  S1  UNL     1      23.274   6.195  49.383  1.00  0.00    -0.124 SA
HETATM   23  H13 UNL     1      23.192   6.626  50.716  1.00  0.00     0.108 HD
ENDBRANCH   9  22
TORSDOF 3
ENDMDL
MODEL 3
REMARK VINA RESULT:      -7.9      2.461      3.472
REMARK  3 active torsions:
REMARK  status: ('A' for Active; 'I' for Inactive)
REMARK    1  A    between atoms: C8_8  and  C9_9 
REMARK       I    between atoms: C9_9  and  N1_11 
REMARK    2  A    between atoms: N1_11  and  C10_12 
REMARK    3  A    between atoms: C16_18  and  S1_19 
ROOT
HETATM    1  C1  UNL     1      20.827  -1.643  54.311  1.00  0.00     0.048 C 
HETATM    2  C2  UNL     1      21.159  -0.368  53.595  1.00  0.00    -0.061 A 
HETATM    3  C3  UNL     1      20.129   0.479  53.253  1.00  0.00     0.009 A 
HETATM    4  C4  UNL     1      20.450   1.635  52.602  1.00  0.00     0.031 A 
HETATM    5  C5  UNL     1      21.755   1.948  52.295  1.00  0.00     0.046 A 
HETATM    6  C6  UNL     1      22.787   1.101  52.638  1.00  0.00     0.010 A 
HETATM    7  C7  UNL     1      22.460  -0.060  53.292  1.00  0.00     0.021 A 
HETATM    8  C8  UNL     1      24.029   1.554  52.258  1.00  0.00     0.078 A 
HETATM    9  C16 UNL     1      23.697   2.768  51.641  1.00  0.00     0.086 A 
HETATM   10  N2  UNL     1      22.389   2.951  51.685  1.00  0.00    -0.344 N 
HETATM   11  C17 UNL     1      21.626   4.090  51.156  1.00  0.00     0.157 C 
ENDROOT
BRANCH   8  12
HETATM   12  C9  UNL     1      25.383   1.118  52.377  1.00  0.00     0.259 C 
HETATM   13  O1  UNL     1      26.154   1.290  51.370  1.00  0.00    -0.267 OA
HETATM   14  N1  UNL     1      26.142   0.510  53.381  1.00  0.00    -0.323 N 
HETATM   15  H7  UNL     1      25.582   0.353  54.242  1.00  0.00     0.169 HD
BRANCH  14  16
HETATM   16  C10 UNL     1      27.488   0.093  53.454  1.00  0.00     0.035 A 
HETATM   17  C11 UNL     1      28.589   0.835  53.804  1.00  0.00     0.029 A 
HETATM   18  C12 UNL     1      29.883   0.371  53.856  1.00  0.00     0.002 A 
HETATM   19  C13 UNL     1      30.098  -0.945  53.532  1.00  0.00     0.000 A 
HETATM   20  C14 UNL     1      29.048  -1.752  53.171  1.00  0.00     0.002 A 
HETATM   21  C15 UNL     1      27.796  -1.224  53.142  1.00  0.00     0.029 A 
ENDBRANCH  14  16
ENDBRANCH   8  12
BRANCH   9  22
HETATM   22  S1  UNL     1      24.783   3.988  50.865  1.00  0.00    -0.124 SA
HETATM   23  H13 UNL     1      25.500   4.624  51.891  1.00  0.00     0.108 HD
ENDBRANCH   9  22
TORSDOF 3
ENDMDL
MODEL 4
REMARK VINA RESULT:      -7.8      2.331      2.587
REMARK  3 active torsions:
REMARK  status: ('A' for Active; 'I' for Inactive)
REMARK    1  A    between atoms: C8_8  and  C9_9 
REMARK       I    between atoms: C9_9  and  N1_11 
REMARK    2  A    between atoms: N1_11  and  C10_12 
REMARK    3  A    between atoms: C16_18  and  S1_19 
ROOT
HETATM    1  C1  UNL     1      24.076   6.354  51.192  1.00  0.00     0.048 C 
HETATM    2  C2  UNL     1      23.325   5.115  51.581  1.00  0.00    -0.061 A 
HETATM    3  C3  UNL     1      21.954   5.182  51.672  1.00  0.00     0.009 A 
HETATM    4  C4  UNL     1      21.287   4.044  52.026  1.00  0.00     0.031 A 
HETATM    5  C5  UNL     1      21.958   2.870  52.285  1.00  0.00     0.046 A 
HETATM    6  C6  UNL     1      23.331   2.801  52.193  1.00  0.00     0.010 A 
HETATM    7  C7  UNL     1      23.998   3.947  51.836  1.00  0.00     0.021 A 
HETATM    8  C8  UNL     1      23.849   1.562  52.485  1.00  0.00     0.078 A 
HETATM    9  C16 UNL     1      22.680   0.842  52.773  1.00  0.00     0.086 A 
HETATM   10  N2  UNL     1      21.627   1.629  52.646  1.00  0.00    -0.344 N 
HETATM   11  C17 UNL     1      20.216   1.275  52.854  1.00  0.00     0.157 C 
ENDROOT
BRANCH   8  12
HETATM   12  C9  UNL     1      25.136   0.946  52.518  1.00  0.00     0.259 C 
HETATM   13  O1  UNL     1      25.889   1.083  51.493  1.00  0.00    -0.267 OA
HETATM   14  N1  UNL     1      25.840   0.177  53.450  1.00  0.00    -0.323 N 
HETATM   15  H7  UNL     1      25.293   0.036  54.322  1.00  0.00     0.169 HD
BRANCH  14  16
HETATM   16  C10 UNL     1      27.120  -0.417  53.439  1.00  0.00     0.035 A 
HETATM   17  C11 UNL     1      28.314   0.130  53.840  1.00  0.00     0.029 A 
HETATM   18  C12 UNL     1      29.535  -0.500  53.806  1.00  0.00     0.002 A 
HETATM   19  C13 UNL     1      29.571  -1.787  53.331  1.00  0.00     0.000 A 
HETATM   20  C14 UNL     1      28.419  -2.404  52.911  1.00  0.00     0.002 A 
HETATM   21  C15 UNL     1      27.248  -1.718  52.974  1.00  0.00     0.029 A 
ENDBRANCH  14  16
ENDBRANCH   8  12
BRANCH   9  22
HETATM   22  S1  UNL     1      22.498  -0.891  53.255  1.00  0.00    -0.124 SA
HETATM   23  H13 UNL     1      23.707  -1.539  52.956  1.00  0.00     0.108 HD
ENDBRANCH   9  22
TORSDOF 3
ENDMDL
MODEL 5
REMARK VINA RESULT:      -7.8      3.952      6.139
REMARK  3 active torsions:
REMARK  status: ('A' for Active; 'I' for Inactive)
REMARK    1  A    between atoms: C8_8  and  C9_9 
REMARK       I    between atoms: C9_9  and  N1_11 
REMARK    2  A    between atoms: N1_11  and  C10_12 
REMARK    3  A    between atoms: C16_18  and  S1_19 
ROOT
HETATM    1  C1  UNL     1      27.600  -0.841  53.078  1.00  0.00     0.048 C 
HETATM    2  C2  UNL     1      26.195  -0.321  52.999  1.00  0.00    -0.061 A 
HETATM    3  C3  UNL     1      25.225  -0.938  53.756  1.00  0.00     0.009 A 
HETATM    4  C4  UNL     1      23.953  -0.450  53.672  1.00  0.00     0.031 A 
HETATM    5  C5  UNL     1      23.645   0.618  52.861  1.00  0.00     0.046 A 
HETATM    6  C6  UNL     1      24.616   1.237  52.103  1.00  0.00     0.010 A 
HETATM    7  C7  UNL     1      25.894   0.744  52.190  1.00  0.00     0.021 A 
HETATM    8  C8  UNL     1      24.149   2.284  51.345  1.00  0.00     0.078 A 
HETATM    9  C16 UNL     1      22.788   2.279  51.686  1.00  0.00     0.086 A 
HETATM   10  N2  UNL     1      22.548   1.312  52.553  1.00  0.00    -0.344 N 
HETATM   11  C17 UNL     1      21.259   0.960  53.167  1.00  0.00     0.157 C 
ENDROOT
BRANCH   8  12
HETATM   12  C9  UNL     1      24.692   3.248  50.442  1.00  0.00     0.259 C 
HETATM   13  O1  UNL     1      24.367   3.158  49.208  1.00  0.00    -0.267 OA
HETATM   14  N1  UNL     1      25.547   4.347  50.567  1.00  0.00    -0.323 N 
HETATM   15  H7  UNL     1      25.842   4.493  51.553  1.00  0.00     0.169 HD
BRANCH  14  16
HETATM   16  C10 UNL     1      26.062   5.277  49.640  1.00  0.00     0.035 A 
HETATM   17  C11 UNL     1      25.483   6.438  49.190  1.00  0.00     0.029 A 
HETATM   18  C12 UNL     1      26.036   7.309  48.281  1.00  0.00     0.002 A 
HETATM   19  C13 UNL     1      27.273   6.997  47.776  1.00  0.00     0.000 A 
HETATM   20  C14 UNL     1      27.918   5.854  48.177  1.00  0.00     0.002 A 
HETATM   21  C15 UNL     1      27.309   5.040  49.078  1.00  0.00     0.029 A 
ENDBRANCH  14  16
ENDBRANCH   8  12
BRANCH   9  22
HETATM   22  S1  UNL     1      21.463   3.365  51.107  1.00  0.00    -0.124 SA
HETATM   23  H13 UNL     1      21.670   3.584  49.736  1.00  0.00     0.108 HD
ENDBRANCH   9  22
TORSDOF 3
ENDMDL
MODEL 6
REMARK VINA RESULT:      -7.7      8.354      9.597
REMARK  3 active torsions:
REMARK  status: ('A' for Active; 'I' for Inactive)
REMARK    1  A    between atoms: C8_8  and  C9_9 
REMARK       I    between atoms: C9_9  and  N1_11 
REMARK    2  A    between atoms: N1_11  and  C10_12 
REMARK    3  A    between atoms: C16_18  and  S1_19 
ROOT
HETATM    1  C1  UNL     1      25.355   3.251  49.837  1.00  0.00     0.048 C 
HETATM    2  C2  UNL     1      25.822   4.542  49.232  1.00  0.00    -0.061 A 
HETATM    3  C3  UNL     1      24.886   5.513  48.960  1.00  0.00     0.009 A 
HETATM    4  C4  UNL     1      25.328   6.681  48.410  1.00  0.00     0.031 A 
HETATM    5  C5  UNL     1      26.662   6.885  48.134  1.00  0.00     0.046 A 
HETATM    6  C6  UNL     1      27.600   5.914  48.407  1.00  0.00     0.010 A 
HETATM    7  C7  UNL     1      27.151   4.740  48.960  1.00  0.00     0.021 A 
HETATM    8  C8  UNL     1      28.885   6.269  48.071  1.00  0.00     0.078 A 
HETATM    9  C16 UNL     1      28.683   7.558  47.557  1.00  0.00     0.086 A 
HETATM   10  N2  UNL     1      27.400   7.867  47.613  1.00  0.00    -0.344 N 
HETATM   11  C17 UNL     1      26.761   9.118  47.180  1.00  0.00     0.157 C 
ENDROOT
BRANCH   8  12
HETATM   12  C9  UNL     1      30.187   5.691  48.155  1.00  0.00     0.259 C 
HETATM   13  O1  UNL     1      30.676   5.490  49.321  1.00  0.00    -0.267 OA
HETATM   14  N1  UNL     1      31.137   5.253  47.227  1.00  0.00    -0.323 N 
HETATM   15  H7  UNL     1      30.801   5.371  46.251  1.00  0.00     0.169 HD
BRANCH  14  16
HETATM   16  C10 UNL     1      32.422   4.686  47.357  1.00  0.00     0.035 A 
HETATM   17  C11 UNL     1      33.609   5.323  47.621  1.00  0.00     0.029 A 
HETATM   18  C12 UNL     1      34.836   4.714  47.737  1.00  0.00     0.002 A 
HETATM   19  C13 UNL     1      34.886   3.353  47.575  1.00  0.00     0.000 A 
HETATM   20  C14 UNL     1      33.742   2.643  47.310  1.00  0.00     0.002 A 
HETATM   21  C15 UNL     1      32.564   3.313  47.209  1.00  0.00     0.029 A 
ENDBRANCH  14  16
ENDBRANCH   8  12
BRANCH   9  22
HETATM   22  S1  UNL     1      29.895   8.722  46.890  1.00  0.00    -0.124 SA
HETATM   23  H13 UNL     1      30.247   8.272  45.607  1.00  0.00     0.108 HD
ENDBRANCH   9  22
TORSDOF 3
ENDMDL
MODEL 7
REMARK VINA RESULT:      -7.6      4.092      5.207
REMARK  3 active torsions:
REMARK  status: ('A' for Active; 'I' for Inactive)
REMARK    1  A    between atoms: C8_8  and  C9_9 
REMARK       I    between atoms: C9_9  and  N1_11 
REMARK    2  A    between atoms: N1_11  and  C10_12 
REMARK    3  A    between atoms: C16_18  and  S1_19 
ROOT
HETATM    1  C1  UNL     1      27.340   7.802  47.913  1.00  0.00     0.048 C 
HETATM    2  C2  UNL     1      26.141   6.954  48.221  1.00  0.00    -0.061 A 
HETATM    3  C3  UNL     1      24.919   7.344  47.724  1.00  0.00     0.009 A 
HETATM    4  C4  UNL     1      23.839   6.561  48.013  1.00  0.00     0.031 A 
HETATM    5  C5  UNL     1      23.963   5.420  48.774  1.00  0.00     0.046 A 
HETATM    6  C6  UNL     1      25.186   5.028  49.271  1.00  0.00     0.010 A 
HETATM    7  C7  UNL     1      26.270   5.818  48.978  1.00  0.00     0.021 A 
HETATM    8  C8  UNL     1      25.143   3.871  50.013  1.00  0.00     0.078 A 
HETATM    9  C16 UNL     1      23.777   3.559  49.947  1.00  0.00     0.086 A 
HETATM   10  N2  UNL     1      23.144   4.471  49.229  1.00  0.00    -0.344 N 
HETATM   11  C17 UNL     1      21.710   4.521  48.912  1.00  0.00     0.157 C 
ENDROOT
BRANCH   8  12
HETATM   12  C9  UNL     1      26.070   3.035  50.706  1.00  0.00     0.259 C 
HETATM   13  O1  UNL     1      26.997   2.479  50.022  1.00  0.00    -0.267 OA
HETATM   14  N1  UNL     1      26.240   2.639  52.036  1.00  0.00    -0.323 N 
HETATM   15  H7  UNL     1      25.527   3.067  52.658  1.00  0.00     0.169 HD
BRANCH  14  16
HETATM   16  C10 UNL     1      27.177   1.803  52.680  1.00  0.00     0.035 A 
HETATM   17  C11 UNL     1      27.237   0.431  52.674  1.00  0.00     0.029 A 
HETATM   18  C12 UNL     1      28.178  -0.332  53.323  1.00  0.00     0.002 A 
HETATM   19  C13 UNL     1      29.142   0.327  54.042  1.00  0.00     0.000 A 
HETATM   20  C14 UNL     1      29.151   1.698  54.097  1.00  0.00     0.002 A 
HETATM   21  C15 UNL     1      28.189   2.387  53.430  1.00  0.00     0.029 A 
ENDBRANCH  14  16
ENDBRANCH   8  12
BRANCH   9  22
HETATM   22  S1  UNL     1      22.889   2.164  50.678  1.00  0.00    -0.124 SA
HETATM   23  H13 UNL     1      21.819   1.854  49.823  1.00  0.00     0.108 HD
ENDBRANCH   9  22
TORSDOF 3
ENDMDL
MODEL 8
REMARK VINA RESULT:      -7.4      4.813      6.489
REMARK  3 active torsions:
REMARK  status: ('A' for Active; 'I' for Inactive)
REMARK    1  A    between atoms: C8_8  and  C9_9 
REMARK       I    between atoms: C9_9  and  N1_11 
REMARK    2  A    between atoms: N1_11  and  C10_12 
REMARK    3  A    between atoms: C16_18  and  S1_19 
ROOT
HETATM    1  C1  UNL     1      28.874   5.102  48.205  1.00  0.00     0.048 C 
HETATM    2  C2  UNL     1      27.538   5.673  48.581  1.00  0.00    -0.061 A 
HETATM    3  C3  UNL     1      27.255   6.969  48.216  1.00  0.00     0.009 A 
HETATM    4  C4  UNL     1      26.035   7.472  48.566  1.00  0.00     0.031 A 
HETATM    5  C5  UNL     1      25.117   6.714  49.258  1.00  0.00     0.046 A 
HETATM    6  C6  UNL     1      25.400   5.415  49.622  1.00  0.00     0.010 A 
HETATM    7  C7  UNL     1      26.628   4.913  49.269  1.00  0.00     0.021 A 
HETATM    8  C8  UNL     1      24.384   4.795  50.311  1.00  0.00     0.078 A 
HETATM    9  C16 UNL     1      23.424   5.817  50.354  1.00  0.00     0.086 A 
HETATM   10  N2  UNL     1      23.887   6.892  49.741  1.00  0.00    -0.344 N 
HETATM   11  C17 UNL     1      23.204   8.181  49.560  1.00  0.00     0.157 C 
ENDROOT
BRANCH   8  12
HETATM   12  C9  UNL     1      24.135   3.508  50.876  1.00  0.00     0.259 C 
HETATM   13  O1  UNL     1      23.852   2.550  50.075  1.00  0.00    -0.267 OA
HETATM   14  N1  UNL     1      24.121   2.983  52.172  1.00  0.00    -0.323 N 
HETATM   15  H7  UNL     1      24.359   3.705  52.880  1.00  0.00     0.169 HD
BRANCH  14  16
HETATM   16  C10 UNL     1      23.865   1.695  52.687  1.00  0.00     0.035 A 
HETATM   17  C11 UNL     1      24.767   0.698  52.969  1.00  0.00     0.029 A 
HETATM   18  C12 UNL     1      24.457  -0.543  53.472  1.00  0.00     0.002 A 
HETATM   19  C13 UNL     1      23.135  -0.816  53.716  1.00  0.00     0.000 A 
HETATM   20  C14 UNL     1      22.173   0.128  53.460  1.00  0.00     0.002 A 
HETATM   21  C15 UNL     1      22.554   1.334  52.963  1.00  0.00     0.029 A 
ENDBRANCH  14  16
ENDBRANCH   8  12
BRANCH   9  22
HETATM   22  S1  UNL     1      21.776   5.802  51.098  1.00  0.00    -0.124 SA
HETATM   23  H13 UNL     1      21.812   6.653  52.214  1.00  0.00     0.108 HD
ENDBRANCH   9  22
TORSDOF 3
ENDMDL
MODEL 9
REMARK VINA RESULT:      -7.3      2.216      6.751
REMARK  3 active torsions:
REMARK  status: ('A' for Active; 'I' for Inactive)
REMARK    1  A    between atoms: C8_8  and  C9_9 
REMARK       I    between atoms: C9_9  and  N1_11 
REMARK    2  A    between atoms: N1_11  and  C10_12 
REMARK    3  A    between atoms: C16_18  and  S1_19 
ROOT
HETATM    1  C1  UNL     1      25.078   3.830  49.419  1.00  0.00     0.048 C 
HETATM    2  C2  UNL     1      25.054   2.846  50.551  1.00  0.00    -0.061 A 
HETATM    3  C3  UNL     1      26.246   2.505  51.148  1.00  0.00     0.009 A 
HETATM    4  C4  UNL     1      26.204   1.609  52.176  1.00  0.00     0.031 A 
HETATM    5  C5  UNL     1      25.016   1.061  52.605  1.00  0.00     0.046 A 
HETATM    6  C6  UNL     1      23.821   1.403  52.009  1.00  0.00     0.010 A 
HETATM    7  C7  UNL     1      23.867   2.305  50.974  1.00  0.00     0.021 A 
HETATM    8  C8  UNL     1      22.727   0.769  52.547  1.00  0.00     0.078 A 
HETATM    9  C16 UNL     1      23.331  -0.011  53.544  1.00  0.00     0.086 A 
HETATM   10  N2  UNL     1      24.637   0.189  53.540  1.00  0.00    -0.344 N 
HETATM   11  C17 UNL     1      25.639  -0.429  54.419  1.00  0.00     0.157 C 
ENDROOT
BRANCH   8  12
HETATM   12  C9  UNL     1      21.313   0.769  52.349  1.00  0.00     0.259 C 
HETATM   13  O1  UNL     1      20.607   1.532  53.093  1.00  0.00    -0.267 OA
HETATM   14  N1  UNL     1      20.437   0.103  51.486  1.00  0.00    -0.323 N 
HETATM   15  H7  UNL     1      20.945  -0.528  50.836  1.00  0.00     0.169 HD
BRANCH  14  16
HETATM   16  C10 UNL     1      19.035   0.132  51.325  1.00  0.00     0.035 A 
HETATM   17  C11 UNL     1      18.074  -0.402  52.149  1.00  0.00     0.029 A 
HETATM   18  C12 UNL     1      16.717  -0.341  51.939  1.00  0.00     0.002 A 
HETATM   19  C13 UNL     1      16.278   0.306  50.811  1.00  0.00     0.000 A 
HETATM   20  C14 UNL     1      17.177   0.866  49.938  1.00  0.00     0.002 A 
HETATM   21  C15 UNL     1      18.504   0.766  50.211  1.00  0.00     0.029 A 
ENDBRANCH  14  16
ENDBRANCH   8  12
BRANCH   9  22
HETATM   22  S1  UNL     1      22.565  -1.152  54.720  1.00  0.00    -0.124 SA
HETATM   23  H13 UNL     1      23.224  -2.386  54.597  1.00  0.00     0.108 HD
ENDBRANCH   9  22
TORSDOF 3
ENDMDL
