MODEL 1
REMARK VINA RESULT:      -8.6      0.000      0.000
REMARK  4 active torsions:
REMARK  status: ('A' for Active; 'I' for Inactive)
REMARK    1  A    between atoms: C2_2  and  C3_3 
REMARK    2  A    between atoms: C7_8  and  C8_9 
REMARK    3  A    between atoms: C8_9  and  N2_10 
REMARK    4  A    between atoms: N2_10  and  C9_11 
ROOT
HETATM    1  C3  UNL     1      23.595  -0.623  54.324  1.00  0.00    -0.055 C 
HETATM    2  C4  UNL     1      23.172   0.194  53.379  1.00  0.00     0.036 C 
HETATM    3  C5  UNL     1      23.700   1.306  52.611  1.00  0.00     0.060 A 
HETATM    4  N1  UNL     1      23.210   2.453  52.310  1.00  0.00    -0.285 NA
HETATM    5  C6  UNL     1      24.102   3.257  51.513  1.00  0.00     0.186 A 
HETATM    6  C7  UNL     1      25.283   2.371  51.366  1.00  0.00    -0.032 A 
HETATM    7  C15 UNL     1      25.014   1.252  52.014  1.00  0.00    -0.001 A 
HETATM    8  C16 UNL     1      26.072   0.194  52.029  1.00  0.00     0.209 C 
HETATM    9  O1  UNL     1      27.246   0.671  52.533  1.00  0.00    -0.384 OA
HETATM   10  C17 UNL     1      27.265   1.160  53.793  1.00  0.00     0.194 C 
HETATM   11  C18 UNL     1      26.926   0.191  54.909  1.00  0.00     0.194 C 
HETATM   12  O2  UNL     1      25.853  -0.411  55.046  1.00  0.00    -0.385 OA
HETATM   13  C19 UNL     1      24.765  -1.022  55.185  1.00  0.00     0.202 C 
ENDROOT
BRANCH   6  14
HETATM   14  C8  UNL     1      26.401   2.940  50.572  1.00  0.00     0.156 C 
BRANCH  14  15
HETATM   15  N2  UNL     1      25.793   3.769  49.549  1.00  0.00    -0.386 N 
HETATM   16  H11 UNL     1      24.846   3.621  49.164  1.00  0.00     0.160 HD
BRANCH  15  17
HETATM   17  C9  UNL     1      26.523   4.886  49.004  1.00  0.00     0.029 A 
HETATM   18  C10 UNL     1      25.932   6.132  48.769  1.00  0.00     0.032 A 
HETATM   19  C11 UNL     1      26.676   7.167  48.247  1.00  0.00     0.046 A 
HETATM   20  C12 UNL     1      28.004   6.997  47.950  1.00  0.00     0.138 A 
HETATM   21  F1  UNL     1      28.746   8.017  47.433  1.00  0.00    -0.204 F 
HETATM   22  C13 UNL     1      28.641   5.768  48.167  1.00  0.00     0.074 A 
HETATM   23 CL1  UNL     1      30.339   5.539  47.792  1.00  0.00    -0.081 Cl
HETATM   24  C14 UNL     1      27.880   4.719  48.698  1.00  0.00     0.056 A 
ENDBRANCH  15  17
ENDBRANCH  14  15
ENDBRANCH   6  14
BRANCH   1  25
HETATM   25  C2  UNL     1      22.524  -1.625  54.746  1.00  0.00     0.032 C 
HETATM   26  C1  UNL     1      21.148  -1.142  54.349  1.00  0.00     0.010 C 
ENDBRANCH   1  25
TORSDOF 4
ENDMDL
MODEL 2
REMARK VINA RESULT:      -8.5      4.865      6.440
REMARK  4 active torsions:
REMARK  status: ('A' for Active; 'I' for Inactive)
REMARK    1  A    between atoms: C2_2  and  C3_3 
REMARK    2  A    between atoms: C7_8  and  C8_9 
REMARK    3  A    between atoms: C8_9  and  N2_10 
REMARK    4  A    between atoms: N2_10  and  C9_11 
ROOT
HETATM    1  C3  UNL     1      18.947   0.151  51.684  1.00  0.00    -0.055 C 
HETATM    2  C4  UNL     1      19.742  -0.144  52.694  1.00  0.00     0.036 C 
HETATM    3  C5  UNL     1      21.161  -0.090  52.990  1.00  0.00     0.060 A 
HETATM    4  N1  UNL     1      21.961  -0.936  53.526  1.00  0.00    -0.285 NA
HETATM    5  C6  UNL     1      23.315  -0.451  53.626  1.00  0.00     0.186 A 
HETATM    6  C7  UNL     1      23.211   0.903  53.029  1.00  0.00    -0.032 A 
HETATM    7  C15 UNL     1      21.952   1.077  52.673  1.00  0.00    -0.001 A 
HETATM    8  C16 UNL     1      21.593   2.376  52.021  1.00  0.00     0.209 C 
HETATM    9  O1  UNL     1      22.354   2.602  50.912  1.00  0.00    -0.384 OA
HETATM   10  C17 UNL     1      22.307   1.712  49.896  1.00  0.00     0.194 C 
HETATM   11  C18 UNL     1      20.969   1.524  49.208  1.00  0.00     0.194 C 
HETATM   12  O2  UNL     1      19.928   1.124  49.746  1.00  0.00    -0.385 OA
HETATM   13  C19 UNL     1      18.872   0.719  50.290  1.00  0.00     0.202 C 
ENDROOT
BRANCH   6  14
HETATM   14  C8  UNL     1      24.481   1.671  52.988  1.00  0.00     0.156 C 
BRANCH  14  15
HETATM   15  N2  UNL     1      25.382   0.922  52.132  1.00  0.00    -0.386 N 
HETATM   16  H11 UNL     1      25.150   0.604  51.178  1.00  0.00     0.160 HD
BRANCH  15  17
HETATM   17  C9  UNL     1      26.700   0.579  52.605  1.00  0.00     0.029 A 
HETATM   18  C10 UNL     1      27.623   1.540  53.031  1.00  0.00     0.032 A 
HETATM   19  C11 UNL     1      28.869   1.157  53.474  1.00  0.00     0.046 A 
HETATM   20  C12 UNL     1      29.228  -0.165  53.507  1.00  0.00     0.138 A 
HETATM   21  F1  UNL     1      30.460  -0.551  53.944  1.00  0.00    -0.204 F 
HETATM   22  C13 UNL     1      28.339  -1.165  53.090  1.00  0.00     0.074 A 
HETATM   23 CL1  UNL     1      28.786  -2.860  53.127  1.00  0.00    -0.081 Cl
HETATM   24  C14 UNL     1      27.072  -0.771  52.640  1.00  0.00     0.056 A 
ENDBRANCH  15  17
ENDBRANCH  14  15
ENDBRANCH   6  14
BRANCH   1  25
HETATM   25  C2  UNL     1      17.482  -0.149  51.992  1.00  0.00     0.032 C 
HETATM   26  C1  UNL     1      17.358  -1.349  52.902  1.00  0.00     0.010 C 
ENDBRANCH   1  25
TORSDOF 4
ENDMDL
MODEL 3
REMARK VINA RESULT:      -8.2      6.443      9.807
REMARK  4 active torsions:
REMARK  status: ('A' for Active; 'I' for Inactive)
REMARK    1  A    between atoms: C2_2  and  C3_3 
REMARK    2  A    between atoms: C7_8  and  C8_9 
REMARK    3  A    between atoms: C8_9  and  N2_10 
REMARK    4  A    between atoms: N2_10  and  C9_11 
ROOT
HETATM    1  C3  UNL     1      25.546   0.841  52.755  1.00  0.00    -0.055 C 
HETATM    2  C4  UNL     1      24.797  -0.151  53.196  1.00  0.00     0.036 C 
HETATM    3  C5  UNL     1      23.401  -0.374  53.524  1.00  0.00     0.060 A 
HETATM    4  N1  UNL     1      22.833  -0.940  54.526  1.00  0.00    -0.285 NA
HETATM    5  C6  UNL     1      21.394  -0.935  54.436  1.00  0.00     0.186 A 
HETATM    6  C7  UNL     1      21.159  -0.237  53.148  1.00  0.00    -0.032 A 
HETATM    7  C15 UNL     1      22.342   0.073  52.650  1.00  0.00    -0.001 A 
HETATM    8  C16 UNL     1      22.369   0.809  51.348  1.00  0.00     0.209 C 
HETATM    9  O1  UNL     1      21.653   1.968  51.416  1.00  0.00    -0.384 OA
HETATM   10  C17 UNL     1      22.013   2.905  52.321  1.00  0.00     0.194 C 
HETATM   11  C18 UNL     1      23.395   3.511  52.168  1.00  0.00     0.194 C 
HETATM   12  O2  UNL     1      24.467   2.895  52.224  1.00  0.00    -0.385 OA
HETATM   13  C19 UNL     1      25.554   2.270  52.279  1.00  0.00     0.202 C 
ENDROOT
BRANCH   6  14
HETATM   14  C8  UNL     1      19.731  -0.074  52.773  1.00  0.00     0.156 C 
BRANCH  14  15
HETATM   15  N2  UNL     1      18.966  -0.829  53.748  1.00  0.00    -0.386 N 
HETATM   16  H11 UNL     1      19.191  -0.877  54.755  1.00  0.00     0.160 HD
BRANCH  15  17
HETATM   17  C9  UNL     1      17.806  -1.573  53.327  1.00  0.00     0.029 A 
HETATM   18  C10 UNL     1      16.780  -1.005  52.565  1.00  0.00     0.032 A 
HETATM   19  C11 UNL     1      15.693  -1.762  52.189  1.00  0.00     0.046 A 
HETATM   20  C12 UNL     1      15.595  -3.080  52.552  1.00  0.00     0.138 A 
HETATM   21  F1  UNL     1      14.522  -3.836  52.183  1.00  0.00    -0.204 F 
HETATM   22  C13 UNL     1      16.597  -3.694  53.316  1.00  0.00     0.074 A 
HETATM   23 CL1  UNL     1      16.483  -5.380  53.787  1.00  0.00    -0.081 Cl
HETATM   24  C14 UNL     1      17.700  -2.921  53.696  1.00  0.00     0.056 A 
ENDBRANCH  15  17
ENDBRANCH  14  15
ENDBRANCH   6  14
BRANCH   1  25
HETATM   25  C2  UNL     1      27.012   0.441  52.610  1.00  0.00     0.032 C 
HETATM   26  C1  UNL     1      27.211  -1.012  52.973  1.00  0.00     0.010 C 
ENDBRANCH   1  25
TORSDOF 4
ENDMDL
MODEL 4
REMARK VINA RESULT:      -7.9      4.698      8.816
REMARK  4 active torsions:
REMARK  status: ('A' for Active; 'I' for Inactive)
REMARK    1  A    between atoms: C2_2  and  C3_3 
REMARK    2  A    between atoms: C7_8  and  C8_9 
REMARK    3  A    between atoms: C8_9  and  N2_10 
REMARK    4  A    between atoms: N2_10  and  C9_11 
ROOT
HETATM    1  C3  UNL     1      27.334   6.921  48.454  1.00  0.00    -0.055 C 
HETATM    2  C4  UNL     1      27.379   5.607  48.557  1.00  0.00     0.036 C 
HETATM    3  C5  UNL     1      26.666   4.566  49.274  1.00  0.00     0.060 A 
HETATM    4  N1  UNL     1      27.073   3.545  49.936  1.00  0.00    -0.285 NA
HETATM    5  C6  UNL     1      25.995   2.767  50.493  1.00  0.00     0.186 A 
HETATM    6  C7  UNL     1      24.797   3.517  50.043  1.00  0.00    -0.032 A 
HETATM    7  C15 UNL     1      25.223   4.551  49.342  1.00  0.00    -0.001 A 
HETATM    8  C16 UNL     1      24.190   5.481  48.789  1.00  0.00     0.209 C 
HETATM    9  O1  UNL     1      23.388   5.976  49.775  1.00  0.00    -0.384 OA
HETATM   10  C17 UNL     1      23.950   6.683  50.781  1.00  0.00     0.194 C 
HETATM   11  C18 UNL     1      24.652   7.973  50.404  1.00  0.00     0.194 C 
HETATM   12  O2  UNL     1      25.628   8.073  49.648  1.00  0.00    -0.385 OA
HETATM   13  C19 UNL     1      26.616   8.175  48.881  1.00  0.00     0.202 C 
ENDROOT
BRANCH   6  14
HETATM   14  C8  UNL     1      23.497   2.942  50.476  1.00  0.00     0.156 C 
BRANCH  14  15
HETATM   15  N2  UNL     1      23.605   2.722  51.906  1.00  0.00    -0.386 N 
HETATM   16  H11 UNL     1      24.004   3.402  52.572  1.00  0.00     0.160 HD
BRANCH  15  17
HETATM   17  C9  UNL     1      23.136   1.484  52.477  1.00  0.00     0.029 A 
HETATM   18  C10 UNL     1      23.993   0.560  53.084  1.00  0.00     0.032 A 
HETATM   19  C11 UNL     1      23.493  -0.608  53.615  1.00  0.00     0.046 A 
HETATM   20  C12 UNL     1      22.152  -0.886  53.559  1.00  0.00     0.138 A 
HETATM   21  F1  UNL     1      21.649  -2.040  54.082  1.00  0.00    -0.204 F 
HETATM   22  C13 UNL     1      21.254   0.007  52.960  1.00  0.00     0.074 A 
HETATM   23 CL1  UNL     1      19.535  -0.338  52.883  1.00  0.00    -0.081 Cl
HETATM   24  C14 UNL     1      21.767   1.194  52.422  1.00  0.00     0.056 A 
ENDBRANCH  15  17
ENDBRANCH  14  15
ENDBRANCH   6  14
BRANCH   1  25
HETATM   25  C2  UNL     1      28.397   7.463  47.501  1.00  0.00     0.032 C 
HETATM   26  C1  UNL     1      29.627   6.587  47.511  1.00  0.00     0.010 C 
ENDBRANCH   1  25
TORSDOF 4
ENDMDL
MODEL 5
REMARK VINA RESULT:      -7.9      4.336      6.165
REMARK  4 active torsions:
REMARK  status: ('A' for Active; 'I' for Inactive)
REMARK    1  A    between atoms: C2_2  and  C3_3 
REMARK    2  A    between atoms: C7_8  and  C8_9 
REMARK    3  A    between atoms: C8_9  and  N2_10 
REMARK    4  A    between atoms: N2_10  and  C9_11 
ROOT
HETATM    1  C3  UNL     1      27.016   0.044  53.102  1.00  0.00    -0.055 C 
HETATM    2  C4  UNL     1      27.318   1.089  52.357  1.00  0.00     0.036 C 
HETATM    3  C5  UNL     1      26.613   2.067  51.549  1.00  0.00     0.060 A 
HETATM    4  N1  UNL     1      26.834   2.531  50.374  1.00  0.00    -0.285 NA
HETATM    5  C6  UNL     1      25.857   3.506  49.959  1.00  0.00     0.186 A 
HETATM    6  C7  UNL     1      24.952   3.568  51.133  1.00  0.00    -0.032 A 
HETATM    7  C15 UNL     1      25.420   2.722  52.032  1.00  0.00    -0.001 A 
HETATM    8  C16 UNL     1      24.659   2.588  53.314  1.00  0.00     0.209 C 
HETATM    9  O1  UNL     1      23.359   2.244  53.087  1.00  0.00    -0.384 OA
HETATM   10  C17 UNL     1      23.093   1.090  52.435  1.00  0.00     0.194 C 
HETATM   11  C18 UNL     1      23.545  -0.194  53.102  1.00  0.00     0.194 C 
HETATM   12  O2  UNL     1      24.714  -0.496  53.377  1.00  0.00    -0.385 OA
HETATM   13  C19 UNL     1      25.899  -0.802  53.656  1.00  0.00     0.202 C 
ENDROOT
BRANCH   6  14
HETATM   14  C8  UNL     1      23.813   4.513  51.000  1.00  0.00     0.156 C 
BRANCH  14  15
HETATM   15  N2  UNL     1      23.149   4.177  49.754  1.00  0.00    -0.386 N 
HETATM   16  H11 UNL     1      23.385   4.591  48.838  1.00  0.00     0.160 HD
BRANCH  15  17
HETATM   17  C9  UNL     1      22.084   3.206  49.750  1.00  0.00     0.029 A 
HETATM   18  C10 UNL     1      22.126   2.044  48.972  1.00  0.00     0.032 A 
HETATM   19  C11 UNL     1      21.081   1.148  49.005  1.00  0.00     0.046 A 
HETATM   20  C12 UNL     1      19.985   1.376  49.796  1.00  0.00     0.138 A 
HETATM   21  F1  UNL     1      18.947   0.493  49.833  1.00  0.00    -0.204 F 
HETATM   22  C13 UNL     1      19.896   2.525  50.591  1.00  0.00     0.074 A 
HETATM   23 CL1  UNL     1      18.498   2.829  51.607  1.00  0.00    -0.081 Cl
HETATM   24  C14 UNL     1      20.961   3.434  50.555  1.00  0.00     0.056 A 
ENDBRANCH  15  17
ENDBRANCH  14  15
ENDBRANCH   6  14
BRANCH   1  25
HETATM   25  C2  UNL     1      28.252  -0.607  53.717  1.00  0.00     0.032 C 
HETATM   26  C1  UNL     1      29.485   0.226  53.455  1.00  0.00     0.010 C 
ENDBRANCH   1  25
TORSDOF 4
ENDMDL
MODEL 6
REMARK VINA RESULT:      -7.8      2.538      3.490
REMARK  4 active torsions:
REMARK  status: ('A' for Active; 'I' for Inactive)
REMARK    1  A    between atoms: C2_2  and  C3_3 
REMARK    2  A    between atoms: C7_8  and  C8_9 
REMARK    3  A    between atoms: C8_9  and  N2_10 
REMARK    4  A    between atoms: N2_10  and  C9_11 
ROOT
HETATM    1  C3  UNL     1      22.524   0.107  53.152  1.00  0.00    -0.055 C 
HETATM    2  C4  UNL     1      23.744   0.609  53.172  1.00  0.00     0.036 C 
HETATM    3  C5  UNL     1      24.634   1.295  52.254  1.00  0.00     0.060 A 
HETATM    4  N1  UNL     1      25.876   1.133  51.978  1.00  0.00    -0.285 NA
HETATM    5  C6  UNL     1      26.359   2.058  50.984  1.00  0.00     0.186 A 
HETATM    6  C7  UNL     1      25.147   2.856  50.676  1.00  0.00    -0.032 A 
HETATM    7  C15 UNL     1      24.169   2.386  51.429  1.00  0.00    -0.001 A 
HETATM    8  C16 UNL     1      22.822   3.023  51.286  1.00  0.00     0.209 C 
HETATM    9  O1  UNL     1      22.385   2.975  49.995  1.00  0.00    -0.384 OA
HETATM   10  C17 UNL     1      22.234   1.771  49.400  1.00  0.00     0.194 C 
HETATM   11  C18 UNL     1      21.216   0.827  50.010  1.00  0.00     0.194 C 
HETATM   12  O2  UNL     1      21.247   0.373  51.161  1.00  0.00    -0.385 OA
HETATM   13  C19 UNL     1      21.278  -0.088  52.328  1.00  0.00     0.202 C 
ENDROOT
BRANCH   6  14
HETATM   14  C8  UNL     1      25.335   3.918  49.656  1.00  0.00     0.156 C 
BRANCH  14  15
HETATM   15  N2  UNL     1      26.720   4.338  49.756  1.00  0.00    -0.386 N 
HETATM   16  H11 UNL     1      27.409   3.926  50.406  1.00  0.00     0.160 HD
BRANCH  15  17
HETATM   17  C9  UNL     1      27.211   5.396  48.910  1.00  0.00     0.029 A 
HETATM   18  C10 UNL     1      28.522   5.427  48.422  1.00  0.00     0.032 A 
HETATM   19  C11 UNL     1      28.939   6.462  47.616  1.00  0.00     0.046 A 
HETATM   20  C12 UNL     1      28.084   7.478  47.279  1.00  0.00     0.138 A 
HETATM   21  F1  UNL     1      28.491   8.507  46.482  1.00  0.00    -0.204 F 
HETATM   22  C13 UNL     1      26.762   7.493  47.743  1.00  0.00     0.074 A 
HETATM   23 CL1  UNL     1      25.658   8.788  47.318  1.00  0.00    -0.081 Cl
HETATM   24  C14 UNL     1      26.342   6.438  48.563  1.00  0.00     0.056 A 
ENDBRANCH  15  17
ENDBRANCH  14  15
ENDBRANCH   6  14
BRANCH   1  25
HETATM   25  C2  UNL     1      22.134  -0.521  54.487  1.00  0.00     0.032 C 
HETATM   26  C1  UNL     1      21.121  -1.624  54.287  1.00  0.00     0.010 C 
ENDBRANCH   1  25
TORSDOF 4
ENDMDL
MODEL 7
REMARK VINA RESULT:      -7.7      4.608      9.083
REMARK  4 active torsions:
REMARK  status: ('A' for Active; 'I' for Inactive)
REMARK    1  A    between atoms: C2_2  and  C3_3 
REMARK    2  A    between atoms: C7_8  and  C8_9 
REMARK    3  A    between atoms: C8_9  and  N2_10 
REMARK    4  A    between atoms: N2_10  and  C9_11 
ROOT
HETATM    1  C3  UNL     1      29.624   8.173  47.730  1.00  0.00    -0.055 C 
HETATM    2  C4  UNL     1      29.257   6.916  47.575  1.00  0.00     0.036 C 
HETATM    3  C5  UNL     1      28.294   6.003  48.161  1.00  0.00     0.060 A 
HETATM    4  N1  UNL     1      28.394   4.788  48.561  1.00  0.00    -0.285 NA
HETATM    5  C6  UNL     1      27.159   4.262  49.086  1.00  0.00     0.186 A 
HETATM    6  C7  UNL     1      26.236   5.413  48.938  1.00  0.00    -0.032 A 
HETATM    7  C15 UNL     1      26.926   6.401  48.400  1.00  0.00    -0.001 A 
HETATM    8  C16 UNL     1      26.210   7.694  48.165  1.00  0.00     0.209 C 
HETATM    9  O1  UNL     1      25.662   8.176  49.317  1.00  0.00    -0.384 OA
HETATM   10  C17 UNL     1      26.475   8.446  50.364  1.00  0.00     0.194 C 
HETATM   11  C18 UNL     1      27.526   9.519  50.157  1.00  0.00     0.194 C 
HETATM   12  O2  UNL     1      28.438   9.488  49.321  1.00  0.00    -0.385 OA
HETATM   13  C19 UNL     1      29.364   9.458  48.473  1.00  0.00     0.202 C 
ENDROOT
BRANCH   6  14
HETATM   14  C8  UNL     1      24.848   5.170  49.407  1.00  0.00     0.156 C 
BRANCH  14  15
HETATM   15  N2  UNL     1      24.962   4.594  50.734  1.00  0.00    -0.386 N 
HETATM   16  H11 UNL     1      25.558   4.975  51.486  1.00  0.00     0.160 HD
BRANCH  15  17
HETATM   17  C9  UNL     1      24.211   3.410  51.068  1.00  0.00     0.029 A 
HETATM   18  C10 UNL     1      24.267   2.811  52.331  1.00  0.00     0.032 A 
HETATM   19  C11 UNL     1      23.528   1.680  52.598  1.00  0.00     0.046 A 
HETATM   20  C12 UNL     1      22.728   1.122  51.636  1.00  0.00     0.138 A 
HETATM   21  F1  UNL     1      21.993   0.002  51.892  1.00  0.00    -0.204 F 
HETATM   22  C13 UNL     1      22.638   1.684  50.355  1.00  0.00     0.074 A 
HETATM   23 CL1  UNL     1      21.617   0.979  49.116  1.00  0.00    -0.081 Cl
HETATM   24  C14 UNL     1      23.391   2.834  50.089  1.00  0.00     0.056 A 
ENDBRANCH  15  17
ENDBRANCH  14  15
ENDBRANCH   6  14
BRANCH   1  25
HETATM   25  C2  UNL     1      30.747   8.571  46.776  1.00  0.00     0.032 C 
HETATM   26  C1  UNL     1      31.353   7.352  46.120  1.00  0.00     0.010 C 
ENDBRANCH   1  25
TORSDOF 4
ENDMDL
MODEL 8
REMARK VINA RESULT:      -7.7      3.236      4.170
REMARK  4 active torsions:
REMARK  status: ('A' for Active; 'I' for Inactive)
REMARK    1  A    between atoms: C2_2  and  C3_3 
REMARK    2  A    between atoms: C7_8  and  C8_9 
REMARK    3  A    between atoms: C8_9  and  N2_10 
REMARK    4  A    between atoms: N2_10  and  C9_11 
ROOT
HETATM    1  C3  UNL     1      22.184   0.218  53.077  1.00  0.00    -0.055 C 
HETATM    2  C4  UNL     1      23.446   0.577  53.216  1.00  0.00     0.036 C 
HETATM    3  C5  UNL     1      24.495   1.141  52.387  1.00  0.00     0.060 A 
HETATM    4  N1  UNL     1      25.731   0.833  52.237  1.00  0.00    -0.285 NA
HETATM    5  C6  UNL     1      26.413   1.680  51.290  1.00  0.00     0.186 A 
HETATM    6  C7  UNL     1      25.337   2.606  50.860  1.00  0.00    -0.032 A 
HETATM    7  C15 UNL     1      24.243   2.264  51.514  1.00  0.00    -0.001 A 
HETATM    8  C16 UNL     1      22.999   3.049  51.235  1.00  0.00     0.209 C 
HETATM    9  O1  UNL     1      22.688   3.030  49.907  1.00  0.00    -0.384 OA
HETATM   10  C17 UNL     1      22.458   1.841  49.306  1.00  0.00     0.194 C 
HETATM   11  C18 UNL     1      21.282   1.031  49.816  1.00  0.00     0.194 C 
HETATM   12  O2  UNL     1      21.148   0.595  50.967  1.00  0.00    -0.385 OA
HETATM   13  C19 UNL     1      21.010   0.153  52.134  1.00  0.00     0.202 C 
ENDROOT
BRANCH   6  14
HETATM   14  C8  UNL     1      25.747   3.623  49.858  1.00  0.00     0.156 C 
BRANCH  14  15
HETATM   15  N2  UNL     1      25.798   4.891  50.562  1.00  0.00    -0.386 N 
HETATM   16  H11 UNL     1      26.393   5.077  51.384  1.00  0.00     0.160 HD
BRANCH  15  17
HETATM   17  C9  UNL     1      24.980   5.991  50.116  1.00  0.00     0.029 A 
HETATM   18  C10 UNL     1      24.604   7.042  50.959  1.00  0.00     0.032 A 
HETATM   19  C11 UNL     1      23.822   8.070  50.482  1.00  0.00     0.046 A 
HETATM   20  C12 UNL     1      23.397   8.082  49.178  1.00  0.00     0.138 A 
HETATM   21  F1  UNL     1      22.622   9.096  48.699  1.00  0.00    -0.204 F 
HETATM   22  C13 UNL     1      23.746   7.051  48.296  1.00  0.00     0.074 A 
HETATM   23 CL1  UNL     1      23.209   7.056  46.626  1.00  0.00    -0.081 Cl
HETATM   24  C14 UNL     1      24.542   6.008  48.785  1.00  0.00     0.056 A 
ENDBRANCH  15  17
ENDBRANCH  14  15
ENDBRANCH   6  14
BRANCH   1  25
HETATM   25  C2  UNL     1      21.595  -0.339  54.370  1.00  0.00     0.032 C 
HETATM   26  C1  UNL     1      22.605  -1.196  55.097  1.00  0.00     0.010 C 
ENDBRANCH   1  25
TORSDOF 4
ENDMDL
MODEL 9
REMARK VINA RESULT:      -7.6      4.356      6.621
REMARK  4 active torsions:
REMARK  status: ('A' for Active; 'I' for Inactive)
REMARK    1  A    between atoms: C2_2  and  C3_3 
REMARK    2  A    between atoms: C7_8  and  C8_9 
REMARK    3  A    between atoms: C8_9  and  N2_10 
REMARK    4  A    between atoms: N2_10  and  C9_11 
ROOT
HETATM    1  C3  UNL     1      20.518   3.353  49.873  1.00  0.00    -0.055 C 
HETATM    2  C4  UNL     1      20.742   2.536  50.884  1.00  0.00     0.036 C 
HETATM    3  C5  UNL     1      21.880   2.081  51.659  1.00  0.00     0.060 A 
HETATM    4  N1  UNL     1      22.244   0.914  52.049  1.00  0.00    -0.285 NA
HETATM    5  C6  UNL     1      23.467   0.928  52.812  1.00  0.00     0.186 A 
HETATM    6  C7  UNL     1      23.815   2.370  52.827  1.00  0.00    -0.032 A 
HETATM    7  C15 UNL     1      22.875   3.006  52.151  1.00  0.00    -0.001 A 
HETATM    8  C16 UNL     1      23.014   4.489  52.006  1.00  0.00     0.209 C 
HETATM    9  O1  UNL     1      24.207   4.824  51.436  1.00  0.00    -0.384 OA
HETATM   10  C17 UNL     1      24.495   4.354  50.202  1.00  0.00     0.194 C 
HETATM   11  C18 UNL     1      23.583   4.790  49.072  1.00  0.00     0.194 C 
HETATM   12  O2  UNL     1      22.370   4.561  48.990  1.00  0.00    -0.385 OA
HETATM   13  C19 UNL     1      21.139   4.329  48.907  1.00  0.00     0.202 C 
ENDROOT
BRANCH   6  14
HETATM   14  C8  UNL     1      25.063   2.709  53.558  1.00  0.00     0.156 C 
BRANCH  14  15
HETATM   15  N2  UNL     1      26.155   2.456  52.637  1.00  0.00    -0.386 N 
HETATM   16  H11 UNL     1      26.259   2.912  51.717  1.00  0.00     0.160 HD
BRANCH  15  17
HETATM   17  C9  UNL     1      27.186   1.512  52.991  1.00  0.00     0.029 A 
HETATM   18  C10 UNL     1      28.387   1.898  53.594  1.00  0.00     0.032 A 
HETATM   19  C11 UNL     1      29.340   0.956  53.912  1.00  0.00     0.046 A 
HETATM   20  C12 UNL     1      29.130  -0.372  53.645  1.00  0.00     0.138 A 
HETATM   21  F1  UNL     1      30.068  -1.311  53.957  1.00  0.00    -0.204 F 
HETATM   22  C13 UNL     1      27.943  -0.808  53.041  1.00  0.00     0.074 A 
HETATM   23 CL1  UNL     1      27.663  -2.505  52.695  1.00  0.00    -0.081 Cl
HETATM   24  C14 UNL     1      26.978   0.154  52.719  1.00  0.00     0.056 A 
ENDBRANCH  15  17
ENDBRANCH  14  15
ENDBRANCH   6  14
BRANCH   1  25
HETATM   25  C2  UNL     1      19.042   3.409  49.489  1.00  0.00     0.032 C 
HETATM   26  C1  UNL     1      18.254   2.350  50.223  1.00  0.00     0.010 C 
ENDBRANCH   1  25
TORSDOF 4
ENDMDL
