MODEL 1
REMARK VINA RESULT:      -8.6      0.000      0.000
REMARK  5 active torsions:
REMARK  status: ('A' for Active; 'I' for Inactive)
REMARK    1  A    between atoms: C2_2  and  C3_3 
REMARK    2  A    between atoms: C5_7  and  N3_8 
REMARK    3  A    between atoms: N3_8  and  C6_9 
REMARK    4  A    between atoms: C11_15  and  C12_16 
REMARK    5  A    between atoms: C12_16  and  C13_17 
ROOT
HETATM    1  C3  UNL     1      21.740   0.727  52.862  1.00  0.00     0.068 A 
HETATM    2  N1  UNL     1      20.488   1.173  53.067  1.00  0.00    -0.241 NA
HETATM    3  C4  UNL     1      20.219   2.428  52.642  1.00  0.00     0.235 A 
HETATM    4  N2  UNL     1      21.161   3.150  52.061  1.00  0.00    -0.224 NA
HETATM    5  C5  UNL     1      22.424   2.749  51.834  1.00  0.00     0.137 A 
HETATM    6  C11 UNL     1      22.723   1.474  52.258  1.00  0.00     0.039 A 
ENDROOT
BRANCH   6   7
HETATM    7  C12 UNL     1      23.930   1.044  52.060  1.00  0.00     0.029 C 
BRANCH   7   8
HETATM    8  C13 UNL     1      25.206   0.909  52.704  1.00  0.00    -0.032 A 
HETATM    9  C14 UNL     1      25.736  -0.353  53.002  1.00  0.00     0.014 A 
HETATM   10  C15 UNL     1      26.968  -0.579  53.628  1.00  0.00     0.040 A 
HETATM   11  C16 UNL     1      27.653   0.574  53.946  1.00  0.00     0.105 A 
HETATM   12  C17 UNL     1      27.233   1.851  53.703  1.00  0.00     0.105 A 
HETATM   13  O2  UNL     1      28.904   0.617  54.576  1.00  0.00    -0.323 OA
HETATM   14  C18 UNL     1      26.014   1.982  53.086  1.00  0.00     0.051 A 
HETATM   15  O1  UNL     1      28.226   2.690  54.184  1.00  0.00    -0.323 OA
HETATM   16  C19 UNL     1      29.407   1.931  54.405  1.00  0.00     0.352 C 
ENDBRANCH   7   8
ENDBRANCH   6   7
BRANCH   1  17
HETATM   17  C2  UNL     1      21.967  -0.502  53.288  1.00  0.00     0.002 C 
HETATM   18  C1  UNL     1      21.889  -0.818  54.738  1.00  0.00     0.038 C 
ENDBRANCH   1  17
BRANCH   5  19
HETATM   19  N3  UNL     1      23.269   3.694  51.189  1.00  0.00    -0.369 N 
HETATM   20  H6  UNL     1      23.675   4.483  51.757  1.00  0.00     0.161 HD
BRANCH  19  21
HETATM   21  C6  UNL     1      23.605   3.643  49.807  1.00  0.00     0.167 C 
HETATM   22  C7  UNL     1      24.851   4.217  49.453  1.00  0.00     0.000 A 
HETATM   23  C8  UNL     1      26.106   3.699  49.383  1.00  0.00     0.017 A 
HETATM   24  S1  UNL     1      25.061   5.894  48.975  1.00  0.00    -0.105 SA
HETATM   25  C9  UNL     1      27.211   4.389  49.017  1.00  0.00     0.008 A 
HETATM   26  C10 UNL     1      26.932   5.792  48.692  1.00  0.00     0.050 A 
ENDBRANCH  19  21
ENDBRANCH   5  19
TORSDOF 5
ENDMDL
MODEL 2
REMARK VINA RESULT:      -8.5      1.304      1.857
REMARK  5 active torsions:
REMARK  status: ('A' for Active; 'I' for Inactive)
REMARK    1  A    between atoms: C2_2  and  C3_3 
REMARK    2  A    between atoms: C5_7  and  N3_8 
REMARK    3  A    between atoms: N3_8  and  C6_9 
REMARK    4  A    between atoms: C11_15  and  C12_16 
REMARK    5  A    between atoms: C12_16  and  C13_17 
ROOT
HETATM    1  C3  UNL     1      22.614   0.123  52.934  1.00  0.00     0.068 A 
HETATM    2  N1  UNL     1      21.504  -0.143  52.223  1.00  0.00    -0.241 NA
HETATM    3  C4  UNL     1      21.278   0.639  51.145  1.00  0.00     0.235 A 
HETATM    4  N2  UNL     1      22.124   1.606  50.835  1.00  0.00    -0.224 NA
HETATM    5  C5  UNL     1      23.244   1.911  51.513  1.00  0.00     0.137 A 
HETATM    6  C11 UNL     1      23.497   1.127  52.616  1.00  0.00     0.039 A 
ENDROOT
BRANCH   6   7
HETATM    7  C12 UNL     1      24.567   1.383  53.301  1.00  0.00     0.029 C 
BRANCH   7   8
HETATM    8  C13 UNL     1      25.974   1.100  53.355  1.00  0.00    -0.032 A 
HETATM    9  C14 UNL     1      26.918   2.134  53.407  1.00  0.00     0.014 A 
HETATM   10  C15 UNL     1      28.306   1.953  53.460  1.00  0.00     0.040 A 
HETATM   11  C16 UNL     1      28.697   0.631  53.457  1.00  0.00     0.105 A 
HETATM   12  C17 UNL     1      27.866  -0.453  53.408  1.00  0.00     0.105 A 
HETATM   13  O2  UNL     1      30.025   0.185  53.502  1.00  0.00    -0.323 OA
HETATM   14  C18 UNL     1      26.521  -0.185  53.359  1.00  0.00     0.051 A 
HETATM   15  O1  UNL     1      28.680  -1.574  53.425  1.00  0.00    -0.323 OA
HETATM   16  C19 UNL     1      29.987  -1.193  53.833  1.00  0.00     0.352 C 
ENDBRANCH   7   8
ENDBRANCH   6   7
BRANCH   1  17
HETATM   17  C2  UNL     1      22.804  -0.662  53.979  1.00  0.00     0.002 C 
HETATM   18  C1  UNL     1      21.660  -1.392  54.585  1.00  0.00     0.038 C 
ENDBRANCH   1  17
BRANCH   5  19
HETATM   19  N3  UNL     1      24.009   2.993  50.996  1.00  0.00    -0.369 N 
HETATM   20  H6  UNL     1      24.393   3.710  51.665  1.00  0.00     0.161 HD
BRANCH  19  21
HETATM   21  C6  UNL     1      24.291   3.174  49.612  1.00  0.00     0.167 C 
HETATM   22  C7  UNL     1      25.339   4.077  49.309  1.00  0.00     0.000 A 
HETATM   23  C8  UNL     1      26.680   3.902  49.166  1.00  0.00     0.017 A 
HETATM   24  S1  UNL     1      25.105   5.794  49.019  1.00  0.00    -0.105 SA
HETATM   25  C9  UNL     1      27.563   4.883  48.866  1.00  0.00     0.008 A 
HETATM   26  C10 UNL     1      26.931   6.196  48.703  1.00  0.00     0.050 A 
ENDBRANCH  19  21
ENDBRANCH   5  19
TORSDOF 5
ENDMDL
MODEL 3
REMARK VINA RESULT:      -8.2      2.089      4.653
REMARK  5 active torsions:
REMARK  status: ('A' for Active; 'I' for Inactive)
REMARK    1  A    between atoms: C2_2  and  C3_3 
REMARK    2  A    between atoms: C5_7  and  N3_8 
REMARK    3  A    between atoms: N3_8  and  C6_9 
REMARK    4  A    between atoms: C11_15  and  C12_16 
REMARK    5  A    between atoms: C12_16  and  C13_17 
ROOT
HETATM    1  C3  UNL     1      25.794   4.734  49.907  1.00  0.00     0.068 A 
HETATM    2  N1  UNL     1      25.552   6.046  49.740  1.00  0.00    -0.241 NA
HETATM    3  C4  UNL     1      24.532   6.566  50.459  1.00  0.00     0.235 A 
HETATM    4  N2  UNL     1      23.831   5.796  51.273  1.00  0.00    -0.224 NA
HETATM    5  C5  UNL     1      24.034   4.482  51.473  1.00  0.00     0.137 A 
HETATM    6  C11 UNL     1      25.068   3.929  50.751  1.00  0.00     0.039 A 
ENDROOT
BRANCH   6   7
HETATM    7  C12 UNL     1      25.301   2.664  50.913  1.00  0.00     0.029 C 
BRANCH   7   8
HETATM    8  C13 UNL     1      25.967   1.736  51.782  1.00  0.00    -0.032 A 
HETATM    9  C14 UNL     1      25.324   0.573  52.229  1.00  0.00     0.014 A 
HETATM   10  C15 UNL     1      25.894  -0.384  53.077  1.00  0.00     0.040 A 
HETATM   11  C16 UNL     1      27.186  -0.094  53.459  1.00  0.00     0.105 A 
HETATM   12  C17 UNL     1      27.907   1.005  53.086  1.00  0.00     0.105 A 
HETATM   13  O2  UNL     1      27.973  -0.891  54.302  1.00  0.00    -0.323 OA
HETATM   14  C18 UNL     1      27.273   1.892  52.253  1.00  0.00     0.051 A 
HETATM   15  O1  UNL     1      29.145   0.890  53.698  1.00  0.00    -0.323 OA
HETATM   16  C19 UNL     1      29.310  -0.443  54.164  1.00  0.00     0.352 C 
ENDBRANCH   7   8
ENDBRANCH   6   7
BRANCH   1  17
HETATM   17  C2  UNL     1      26.797   4.260  49.191  1.00  0.00     0.002 C 
HETATM   18  C1  UNL     1      27.777   5.189  48.569  1.00  0.00     0.038 C 
ENDBRANCH   1  17
BRANCH   5  19
HETATM   19  N3  UNL     1      23.157   3.852  52.399  1.00  0.00    -0.369 N 
HETATM   20  H6  UNL     1      23.509   3.643  53.370  1.00  0.00     0.161 HD
BRANCH  19  21
HETATM   21  C6  UNL     1      21.817   3.479  52.095  1.00  0.00     0.167 C 
HETATM   22  C7  UNL     1      21.634   2.767  50.885  1.00  0.00     0.000 A 
HETATM   23  C8  UNL     1      21.662   1.437  50.597  1.00  0.00     0.017 A 
HETATM   24  S1  UNL     1      21.292   3.525  49.338  1.00  0.00    -0.105 SA
HETATM   25  C9  UNL     1      21.460   0.906  49.369  1.00  0.00     0.008 A 
HETATM   26  C10 UNL     1      21.201   1.917  48.339  1.00  0.00     0.050 A 
ENDBRANCH  19  21
ENDBRANCH   5  19
TORSDOF 5
ENDMDL
MODEL 4
REMARK VINA RESULT:      -8.2      1.961      4.868
REMARK  5 active torsions:
REMARK  status: ('A' for Active; 'I' for Inactive)
REMARK    1  A    between atoms: C2_2  and  C3_3 
REMARK    2  A    between atoms: C5_7  and  N3_8 
REMARK    3  A    between atoms: N3_8  and  C6_9 
REMARK    4  A    between atoms: C11_15  and  C12_16 
REMARK    5  A    between atoms: C12_16  and  C13_17 
ROOT
HETATM    1  C3  UNL     1      24.195   3.416  50.090  1.00  0.00     0.068 A 
HETATM    2  N1  UNL     1      23.602   3.742  48.929  1.00  0.00    -0.241 NA
HETATM    3  C4  UNL     1      22.268   3.954  48.973  1.00  0.00     0.235 A 
HETATM    4  N2  UNL     1      21.613   3.837  50.115  1.00  0.00    -0.224 NA
HETATM    5  C5  UNL     1      22.160   3.513  51.299  1.00  0.00     0.137 A 
HETATM    6  C11 UNL     1      23.519   3.293  51.280  1.00  0.00     0.039 A 
ENDROOT
BRANCH   6   7
HETATM    7  C12 UNL     1      24.091   2.979  52.401  1.00  0.00     0.029 C 
BRANCH   7   8
HETATM    8  C13 UNL     1      24.983   2.020  52.989  1.00  0.00    -0.032 A 
HETATM    9  C14 UNL     1      24.642   0.662  53.059  1.00  0.00     0.014 A 
HETATM   10  C15 UNL     1      25.446  -0.340  53.615  1.00  0.00     0.040 A 
HETATM   11  C16 UNL     1      26.649   0.119  54.109  1.00  0.00     0.105 A 
HETATM   12  C17 UNL     1      27.082   1.414  54.093  1.00  0.00     0.105 A 
HETATM   13  O2  UNL     1      27.627  -0.682  54.714  1.00  0.00    -0.323 OA
HETATM   14  C18 UNL     1      26.232   2.332  53.530  1.00  0.00     0.051 A 
HETATM   15  O1  UNL     1      28.334   1.418  54.689  1.00  0.00    -0.323 OA
HETATM   16  C19 UNL     1      28.819   0.084  54.757  1.00  0.00     0.352 C 
ENDBRANCH   7   8
ENDBRANCH   6   7
BRANCH   1  17
HETATM   17  C2  UNL     1      25.499   3.218  50.010  1.00  0.00     0.002 C 
HETATM   18  C1  UNL     1      26.380   4.262  49.426  1.00  0.00     0.038 C 
ENDBRANCH   1  17
BRANCH   5  19
HETATM   19  N3  UNL     1      21.262   3.446  52.400  1.00  0.00    -0.369 N 
HETATM   20  H6  UNL     1      21.316   4.189  53.146  1.00  0.00     0.161 HD
BRANCH  19  21
HETATM   21  C6  UNL     1      20.283   2.426  52.565  1.00  0.00     0.167 C 
HETATM   22  C7  UNL     1      20.757   1.191  53.069  1.00  0.00     0.000 A 
HETATM   23  C8  UNL     1      20.902   0.720  54.337  1.00  0.00     0.017 A 
HETATM   24  S1  UNL     1      21.311  -0.137  52.061  1.00  0.00    -0.105 SA
HETATM   25  C9  UNL     1      21.374  -0.506  54.659  1.00  0.00     0.008 A 
HETATM   26  C10 UNL     1      21.728  -1.313  53.488  1.00  0.00     0.050 A 
ENDBRANCH  19  21
ENDBRANCH   5  19
TORSDOF 5
ENDMDL
MODEL 5
REMARK VINA RESULT:      -8.0      2.176      2.738
REMARK  5 active torsions:
REMARK  status: ('A' for Active; 'I' for Inactive)
REMARK    1  A    between atoms: C2_2  and  C3_3 
REMARK    2  A    between atoms: C5_7  and  N3_8 
REMARK    3  A    between atoms: N3_8  and  C6_9 
REMARK    4  A    between atoms: C11_15  and  C12_16 
REMARK    5  A    between atoms: C12_16  and  C13_17 
ROOT
HETATM    1  C3  UNL     1      22.428   0.041  52.560  1.00  0.00     0.068 A 
HETATM    2  N1  UNL     1      21.363  -0.054  51.746  1.00  0.00    -0.241 NA
HETATM    3  C4  UNL     1      21.149   0.985  50.910  1.00  0.00     0.235 A 
HETATM    4  N2  UNL     1      21.965   2.024  50.918  1.00  0.00    -0.224 NA
HETATM    5  C5  UNL     1      23.041   2.166  51.711  1.00  0.00     0.137 A 
HETATM    6  C11 UNL     1      23.280   1.119  52.572  1.00  0.00     0.039 A 
ENDROOT
BRANCH   6   7
HETATM    7  C12 UNL     1      24.309   1.211  53.356  1.00  0.00     0.029 C 
BRANCH   7   8
HETATM    8  C13 UNL     1      25.728   0.994  53.395  1.00  0.00    -0.032 A 
HETATM    9  C14 UNL     1      26.623   2.069  53.471  1.00  0.00     0.014 A 
HETATM   10  C15 UNL     1      28.017   1.952  53.512  1.00  0.00     0.040 A 
HETATM   11  C16 UNL     1      28.470   0.651  53.471  1.00  0.00     0.105 A 
HETATM   12  C17 UNL     1      27.691  -0.469  53.397  1.00  0.00     0.105 A 
HETATM   13  O2  UNL     1      29.818   0.268  53.498  1.00  0.00    -0.323 OA
HETATM   14  C18 UNL     1      26.335  -0.264  53.362  1.00  0.00     0.051 A 
HETATM   15  O1  UNL     1      28.558  -1.551  53.379  1.00  0.00    -0.323 OA
HETATM   16  C19 UNL     1      29.847  -1.119  53.791  1.00  0.00     0.352 C 
ENDBRANCH   7   8
ENDBRANCH   6   7
BRANCH   1  17
HETATM   17  C2  UNL     1      22.607  -0.993  53.362  1.00  0.00     0.002 C 
HETATM   18  C1  UNL     1      21.645  -1.262  54.462  1.00  0.00     0.038 C 
ENDBRANCH   1  17
BRANCH   5  19
HETATM   19  N3  UNL     1      23.780   3.370  51.546  1.00  0.00    -0.369 N 
HETATM   20  H6  UNL     1      24.551   3.400  50.829  1.00  0.00     0.161 HD
BRANCH  19  21
HETATM   21  C6  UNL     1      23.543   4.555  52.300  1.00  0.00     0.167 C 
HETATM   22  C7  UNL     1      23.163   5.696  51.552  1.00  0.00     0.000 A 
HETATM   23  C8  UNL     1      21.948   6.164  51.158  1.00  0.00     0.017 A 
HETATM   24  S1  UNL     1      24.296   6.876  50.912  1.00  0.00    -0.105 SA
HETATM   25  C9  UNL     1      21.748   7.293  50.439  1.00  0.00     0.008 A 
HETATM   26  C10 UNL     1      22.993   7.993  50.107  1.00  0.00     0.050 A 
ENDBRANCH  19  21
ENDBRANCH   5  19
TORSDOF 5
ENDMDL
MODEL 6
REMARK VINA RESULT:      -7.9      2.994      5.737
REMARK  5 active torsions:
REMARK  status: ('A' for Active; 'I' for Inactive)
REMARK    1  A    between atoms: C2_2  and  C3_3 
REMARK    2  A    between atoms: C5_7  and  N3_8 
REMARK    3  A    between atoms: N3_8  and  C6_9 
REMARK    4  A    between atoms: C11_15  and  C12_16 
REMARK    5  A    between atoms: C12_16  and  C13_17 
ROOT
HETATM    1  C3  UNL     1      23.389   2.544  49.537  1.00  0.00     0.068 A 
HETATM    2  N1  UNL     1      22.812   2.452  48.327  1.00  0.00    -0.241 NA
HETATM    3  C4  UNL     1      21.738   1.638  48.232  1.00  0.00     0.235 A 
HETATM    4  N2  UNL     1      21.305   0.981  49.294  1.00  0.00    -0.224 NA
HETATM    5  C5  UNL     1      21.847   1.039  50.523  1.00  0.00     0.137 A 
HETATM    6  C11 UNL     1      22.943   1.863  50.645  1.00  0.00     0.039 A 
ENDROOT
BRANCH   6   7
HETATM    7  C12 UNL     1      23.499   1.952  51.813  1.00  0.00     0.029 C 
BRANCH   7   8
HETATM    8  C13 UNL     1      24.494   1.337  52.645  1.00  0.00    -0.032 A 
HETATM    9  C14 UNL     1      24.311   0.045  53.158  1.00  0.00     0.014 A 
HETATM   10  C15 UNL     1      25.223  -0.631  53.976  1.00  0.00     0.040 A 
HETATM   11  C16 UNL     1      26.365   0.090  54.255  1.00  0.00     0.105 A 
HETATM   12  C17 UNL     1      26.647   1.351  53.811  1.00  0.00     0.105 A 
HETATM   13  O2  UNL     1      27.427  -0.362  55.050  1.00  0.00    -0.323 OA
HETATM   14  C18 UNL     1      25.698   1.940  53.014  1.00  0.00     0.051 A 
HETATM   15  O1  UNL     1      27.889   1.682  54.330  1.00  0.00    -0.323 OA
HETATM   16  C19 UNL     1      28.523   0.502  54.804  1.00  0.00     0.352 C 
ENDBRANCH   7   8
ENDBRANCH   6   7
BRANCH   1  17
HETATM   17  C2  UNL     1      24.435   3.349  49.593  1.00  0.00     0.002 C 
HETATM   18  C1  UNL     1      24.288   4.791  49.266  1.00  0.00     0.038 C 
ENDBRANCH   1  17
BRANCH   5  19
HETATM   19  N3  UNL     1      21.213   0.248  51.520  1.00  0.00    -0.369 N 
HETATM   20  H6  UNL     1      21.518  -0.753  51.645  1.00  0.00     0.161 HD
BRANCH  19  21
HETATM   21  C6  UNL     1      20.177   0.727  52.372  1.00  0.00     0.167 C 
HETATM   22  C7  UNL     1      19.044  -0.114  52.498  1.00  0.00     0.000 A 
HETATM   23  C8  UNL     1      18.753  -1.129  53.355  1.00  0.00     0.017 A 
HETATM   24  S1  UNL     1      17.623  -0.010  51.470  1.00  0.00    -0.105 SA
HETATM   25  C9  UNL     1      17.604  -1.843  53.348  1.00  0.00     0.008 A 
HETATM   26  C10 UNL     1      16.667  -1.418  52.304  1.00  0.00     0.050 A 
ENDBRANCH  19  21
ENDBRANCH   5  19
TORSDOF 5
ENDMDL
MODEL 7
REMARK VINA RESULT:      -7.8      1.533      1.627
REMARK  5 active torsions:
REMARK  status: ('A' for Active; 'I' for Inactive)
REMARK    1  A    between atoms: C2_2  and  C3_3 
REMARK    2  A    between atoms: C5_7  and  N3_8 
REMARK    3  A    between atoms: N3_8  and  C6_9 
REMARK    4  A    between atoms: C11_15  and  C12_16 
REMARK    5  A    between atoms: C12_16  and  C13_17 
ROOT
HETATM    1  C3  UNL     1      21.240   0.708  51.970  1.00  0.00     0.068 A 
HETATM    2  N1  UNL     1      20.337   0.478  51.001  1.00  0.00    -0.241 NA
HETATM    3  C4  UNL     1      20.613   1.001  49.785  1.00  0.00     0.235 A 
HETATM    4  N2  UNL     1      21.720   1.696  49.595  1.00  0.00    -0.224 NA
HETATM    5  C5  UNL     1      22.651   1.954  50.530  1.00  0.00     0.137 A 
HETATM    6  C11 UNL     1      22.393   1.431  51.778  1.00  0.00     0.039 A 
ENDROOT
BRANCH   6   7
HETATM    7  C12 UNL     1      23.264   1.653  52.712  1.00  0.00     0.029 C 
BRANCH   7   8
HETATM    8  C13 UNL     1      24.478   1.136  53.276  1.00  0.00    -0.032 A 
HETATM    9  C14 UNL     1      24.580  -0.206  53.669  1.00  0.00     0.014 A 
HETATM   10  C15 UNL     1      25.720  -0.795  54.229  1.00  0.00     0.040 A 
HETATM   11  C16 UNL     1      26.783   0.071  54.372  1.00  0.00     0.105 A 
HETATM   12  C17 UNL     1      26.795   1.392  54.025  1.00  0.00     0.105 A 
HETATM   13  O2  UNL     1      28.032  -0.272  54.906  1.00  0.00    -0.323 OA
HETATM   14  C18 UNL     1      25.636   1.888  53.484  1.00  0.00     0.051 A 
HETATM   15  O1  UNL     1      28.057   1.870  54.343  1.00  0.00    -0.323 OA
HETATM   16  C19 UNL     1      28.929   0.770  54.560  1.00  0.00     0.352 C 
ENDBRANCH   7   8
ENDBRANCH   6   7
BRANCH   1  17
HETATM   17  C2  UNL     1      20.939   0.182  53.143  1.00  0.00     0.002 C 
HETATM   18  C1  UNL     1      19.664  -0.559  53.327  1.00  0.00     0.038 C 
ENDBRANCH   1  17
BRANCH   5  19
HETATM   19  N3  UNL     1      23.767   2.723  50.101  1.00  0.00    -0.369 N 
HETATM   20  H6  UNL     1      24.713   2.526  50.522  1.00  0.00     0.161 HD
BRANCH  19  21
HETATM   21  C6  UNL     1      23.689   3.758  49.126  1.00  0.00     0.167 C 
HETATM   22  C7  UNL     1      24.526   4.879  49.347  1.00  0.00     0.000 A 
HETATM   23  C8  UNL     1      25.805   5.149  48.972  1.00  0.00     0.017 A 
HETATM   24  S1  UNL     1      24.038   6.309  50.242  1.00  0.00    -0.105 SA
HETATM   25  C9  UNL     1      26.474   6.289  49.264  1.00  0.00     0.008 A 
HETATM   26  C10 UNL     1      25.678   7.240  50.046  1.00  0.00     0.050 A 
ENDBRANCH  19  21
ENDBRANCH   5  19
TORSDOF 5
ENDMDL
MODEL 8
REMARK VINA RESULT:      -7.7      2.523      4.574
REMARK  5 active torsions:
REMARK  status: ('A' for Active; 'I' for Inactive)
REMARK    1  A    between atoms: C2_2  and  C3_3 
REMARK    2  A    between atoms: C5_7  and  N3_8 
REMARK    3  A    between atoms: N3_8  and  C6_9 
REMARK    4  A    between atoms: C11_15  and  C12_16 
REMARK    5  A    between atoms: C12_16  and  C13_17 
ROOT
HETATM    1  C3  UNL     1      24.241   0.340  53.406  1.00  0.00     0.068 A 
HETATM    2  N1  UNL     1      23.772  -0.900  53.625  1.00  0.00    -0.241 NA
HETATM    3  C4  UNL     1      22.461  -1.103  53.361  1.00  0.00     0.235 A 
HETATM    4  N2  UNL     1      21.712  -0.111  52.914  1.00  0.00    -0.224 NA
HETATM    5  C5  UNL     1      22.134   1.144  52.681  1.00  0.00     0.137 A 
HETATM    6  C11 UNL     1      23.466   1.375  52.941  1.00  0.00     0.039 A 
ENDROOT
BRANCH   6   7
HETATM    7  C12 UNL     1      23.919   2.571  52.730  1.00  0.00     0.029 C 
BRANCH   7   8
HETATM    8  C13 UNL     1      24.511   3.397  51.716  1.00  0.00    -0.032 A 
HETATM    9  C14 UNL     1      23.980   4.656  51.405  1.00  0.00     0.014 A 
HETATM   10  C15 UNL     1      24.489   5.525  50.433  1.00  0.00     0.040 A 
HETATM   11  C16 UNL     1      25.598   5.038  49.774  1.00  0.00     0.105 A 
HETATM   12  C17 UNL     1      26.197   3.830  49.994  1.00  0.00     0.105 A 
HETATM   13  O2  UNL     1      26.291   5.713  48.760  1.00  0.00    -0.323 OA
HETATM   14  C18 UNL     1      25.633   3.040  50.964  1.00  0.00     0.051 A 
HETATM   15  O1  UNL     1      27.266   3.756  49.115  1.00  0.00    -0.323 OA
HETATM   16  C19 UNL     1      27.535   5.053  48.600  1.00  0.00     0.352 C 
ENDBRANCH   7   8
ENDBRANCH   6   7
BRANCH   1  17
HETATM   17  C2  UNL     1      25.525   0.501  53.673  1.00  0.00     0.002 C 
HETATM   18  C1  UNL     1      26.554  -0.129  52.806  1.00  0.00     0.038 C 
ENDBRANCH   1  17
BRANCH   5  19
HETATM   19  N3  UNL     1      21.151   2.050  52.197  1.00  0.00    -0.369 N 
HETATM   20  H6  UNL     1      20.859   2.858  52.808  1.00  0.00     0.161 HD
BRANCH  19  21
HETATM   21  C6  UNL     1      20.526   1.936  50.922  1.00  0.00     0.167 C 
HETATM   22  C7  UNL     1      21.244   2.483  49.832  1.00  0.00     0.000 A 
HETATM   23  C8  UNL     1      22.175   1.951  48.994  1.00  0.00     0.017 A 
HETATM   24  S1  UNL     1      21.065   4.136  49.265  1.00  0.00    -0.105 SA
HETATM   25  C9  UNL     1      22.775   2.615  47.980  1.00  0.00     0.008 A 
HETATM   26  C10 UNL     1      22.324   4.004  47.854  1.00  0.00     0.050 A 
ENDBRANCH  19  21
ENDBRANCH   5  19
TORSDOF 5
ENDMDL
MODEL 9
REMARK VINA RESULT:      -7.6      3.075      5.945
REMARK  5 active torsions:
REMARK  status: ('A' for Active; 'I' for Inactive)
REMARK    1  A    between atoms: C2_2  and  C3_3 
REMARK    2  A    between atoms: C5_7  and  N3_8 
REMARK    3  A    between atoms: N3_8  and  C6_9 
REMARK    4  A    between atoms: C11_15  and  C12_16 
REMARK    5  A    between atoms: C12_16  and  C13_17 
ROOT
HETATM    1  C3  UNL     1      26.408   0.023  54.106  1.00  0.00     0.068 A 
HETATM    2  N1  UNL     1      26.285  -0.520  55.329  1.00  0.00    -0.241 NA
HETATM    3  C4  UNL     1      25.048  -0.935  55.683  1.00  0.00     0.235 A 
HETATM    4  N2  UNL     1      24.036  -0.797  54.845  1.00  0.00    -0.224 NA
HETATM    5  C5  UNL     1      24.108  -0.260  53.614  1.00  0.00     0.137 A 
HETATM    6  C11 UNL     1      25.359   0.169  53.231  1.00  0.00     0.039 A 
ENDROOT
BRANCH   6   7
HETATM    7  C12 UNL     1      25.477   0.693  52.051  1.00  0.00     0.029 C 
BRANCH   7   8
HETATM    8  C13 UNL     1      25.506   1.955  51.368  1.00  0.00    -0.032 A 
HETATM    9  C14 UNL     1      24.473   2.888  51.528  1.00  0.00     0.014 A 
HETATM   10  C15 UNL     1      24.417   4.140  50.902  1.00  0.00     0.040 A 
HETATM   11  C16 UNL     1      25.494   4.403  50.083  1.00  0.00     0.105 A 
HETATM   12  C17 UNL     1      26.553   3.570  49.854  1.00  0.00     0.105 A 
HETATM   13  O2  UNL     1      25.674   5.582  49.346  1.00  0.00    -0.323 OA
HETATM   14  C18 UNL     1      26.528   2.364  50.508  1.00  0.00     0.051 A 
HETATM   15  O1  UNL     1      27.392   4.234  48.974  1.00  0.00    -0.323 OA
HETATM   16  C19 UNL     1      27.029   5.607  48.932  1.00  0.00     0.352 C 
ENDBRANCH   7   8
ENDBRANCH   6   7
BRANCH   1  17
HETATM   17  C2  UNL     1      27.630   0.415  53.794  1.00  0.00     0.002 C 
HETATM   18  C1  UNL     1      28.710  -0.586  53.595  1.00  0.00     0.038 C 
ENDBRANCH   1  17
BRANCH   5  19
HETATM   19  N3  UNL     1      22.888  -0.215  52.884  1.00  0.00    -0.369 N 
HETATM   20  H6  UNL     1      22.717  -0.936  52.135  1.00  0.00     0.161 HD
BRANCH  19  21
HETATM   21  C6  UNL     1      21.870   0.756  53.101  1.00  0.00     0.167 C 
HETATM   22  C7  UNL     1      20.733   0.654  52.262  1.00  0.00     0.000 A 
HETATM   23  C8  UNL     1      19.567  -0.035  52.387  1.00  0.00     0.017 A 
HETATM   24  S1  UNL     1      20.566   1.488  50.725  1.00  0.00    -0.105 SA
HETATM   25  C9  UNL     1      18.559  -0.023  51.485  1.00  0.00     0.008 A 
HETATM   26  C10 UNL     1      18.838   0.822  50.320  1.00  0.00     0.050 A 
ENDBRANCH  19  21
ENDBRANCH   5  19
TORSDOF 5
ENDMDL
