MODEL 1
REMARK VINA RESULT:      -9.0      0.000      0.000
REMARK  1 active torsions:
REMARK  status: ('A' for Active; 'I' for Inactive)
REMARK    1  A    between atoms: C8_12  and  C9_13 
ROOT
HETATM    1  C1  UNL     1      20.126   0.055  53.492  1.00  0.00     0.048 C 
HETATM    2  C2  UNL     1      21.612   0.110  53.651  1.00  0.00    -0.064 C 
HETATM    3  C3  UNL     1      22.372  -0.646  54.422  1.00  0.00     0.006 C 
HETATM    4  C4  UNL     1      23.655  -1.102  55.003  1.00  0.00     0.202 C 
HETATM    5  O1  UNL     1      24.772  -0.368  54.514  1.00  0.00    -0.359 OA
HETATM    6  C5  UNL     1      26.073  -0.672  54.956  1.00  0.00     0.141 C 
HETATM    7  C6  UNL     1      27.069   0.136  54.635  1.00  0.00     0.070 C 
HETATM    8  S1  UNL     1      26.610   1.550  53.651  1.00  0.00    -0.118 SA
HETATM    9  C7  UNL     1      26.389   1.004  51.947  1.00  0.00     0.223 C 
HETATM   10  N1  UNL     1      26.006   2.141  51.138  1.00  0.00    -0.290 N 
HETATM   11  N2  UNL     1      26.736   3.266  50.760  1.00  0.00    -0.180 NA
HETATM   12  C8  UNL     1      26.170   3.809  49.714  1.00  0.00     0.066 C 
HETATM   13  C15 UNL     1      24.944   3.052  49.277  1.00  0.00     0.089 C 
HETATM   14  C16 UNL     1      24.668   2.278  50.545  1.00  0.00     0.114 C 
HETATM   15  C17 UNL     1      23.690   2.956  51.442  1.00  0.00     0.054 C 
HETATM   16  C18 UNL     1      22.964   1.935  52.238  1.00  0.00    -0.024 C 
HETATM   17  C19 UNL     1      22.066   1.159  52.793  1.00  0.00     0.002 C 
ENDROOT
BRANCH  12  18
HETATM   18  C9  UNL     1      26.651   5.005  49.036  1.00  0.00    -0.010 A 
HETATM   19  C10 UNL     1      27.951   5.173  48.612  1.00  0.00     0.015 A 
HETATM   20  C11 UNL     1      28.327   6.354  47.970  1.00  0.00     0.020 A 
HETATM   21  C12 UNL     1      27.441   7.385  47.732  1.00  0.00     0.011 A 
HETATM   22 BR1  UNL     1      27.925   8.996  46.863  1.00  0.00    -0.051 Br
HETATM   23  C13 UNL     1      26.133   7.241  48.147  1.00  0.00     0.020 A 
HETATM   24  C14 UNL     1      25.803   6.058  48.778  1.00  0.00     0.015 A 
ENDBRANCH  12  18
TORSDOF 1
ENDMDL
MODEL 2
REMARK VINA RESULT:      -8.6      2.751      4.089
REMARK  1 active torsions:
REMARK  status: ('A' for Active; 'I' for Inactive)
REMARK    1  A    between atoms: C8_12  and  C9_13 
ROOT
HETATM    1  C1  UNL     1      21.889  -1.675  54.983  1.00  0.00     0.048 C 
HETATM    2  C2  UNL     1      21.327  -0.880  53.848  1.00  0.00    -0.064 C 
HETATM    3  C3  UNL     1      20.081  -0.860  53.413  1.00  0.00     0.006 C 
HETATM    4  C4  UNL     1      18.980  -0.422  52.525  1.00  0.00     0.202 C 
HETATM    5  O1  UNL     1      19.404   0.519  51.544  1.00  0.00    -0.359 OA
HETATM    6  C5  UNL     1      18.486   1.046  50.619  1.00  0.00     0.141 C 
HETATM    7  C6  UNL     1      18.932   1.770  49.606  1.00  0.00     0.070 C 
HETATM    8  S1  UNL     1      20.701   1.985  49.551  1.00  0.00    -0.118 SA
HETATM    9  C7  UNL     1      21.156   3.240  50.762  1.00  0.00     0.223 C 
HETATM   10  N1  UNL     1      22.591   3.418  50.736  1.00  0.00    -0.290 N 
HETATM   11  N2  UNL     1      23.414   3.963  49.753  1.00  0.00    -0.180 NA
HETATM   12  C8  UNL     1      24.552   4.311  50.295  1.00  0.00     0.066 C 
HETATM   13  C15 UNL     1      24.590   4.012  51.771  1.00  0.00     0.089 C 
HETATM   14  C16 UNL     1      23.461   3.011  51.848  1.00  0.00     0.114 C 
HETATM   15  C17 UNL     1      23.926   1.599  51.749  1.00  0.00     0.054 C 
HETATM   16  C18 UNL     1      22.985   0.719  52.487  1.00  0.00    -0.024 C 
HETATM   17  C19 UNL     1      22.417  -0.127  53.311  1.00  0.00     0.002 C 
ENDROOT
BRANCH  12  18
HETATM   18  C9  UNL     1      25.665   4.917  49.577  1.00  0.00    -0.010 A 
HETATM   19  C10 UNL     1      26.824   4.243  49.257  1.00  0.00     0.015 A 
HETATM   20  C11 UNL     1      27.843   4.902  48.567  1.00  0.00     0.020 A 
HETATM   21  C12 UNL     1      27.746   6.223  48.179  1.00  0.00     0.011 A 
HETATM   22 BR1  UNL     1      29.113   7.139  47.242  1.00  0.00    -0.051 Br
HETATM   23  C13 UNL     1      26.595   6.918  48.489  1.00  0.00     0.020 A 
HETATM   24  C14 UNL     1      25.612   6.230  49.172  1.00  0.00     0.015 A 
ENDBRANCH  12  18
TORSDOF 1
ENDMDL
MODEL 3
REMARK VINA RESULT:      -8.5      5.069      7.063
REMARK  1 active torsions:
REMARK  status: ('A' for Active; 'I' for Inactive)
REMARK    1  A    between atoms: C8_12  and  C9_13 
ROOT
HETATM    1  C1  UNL     1      16.732  -0.149  50.066  1.00  0.00     0.048 C 
HETATM    2  C2  UNL     1      17.637   1.040  50.130  1.00  0.00    -0.064 C 
HETATM    3  C3  UNL     1      17.345   2.296  49.844  1.00  0.00     0.006 C 
HETATM    4  C4  UNL     1      17.641   3.738  49.694  1.00  0.00     0.202 C 
HETATM    5  O1  UNL     1      18.989   4.060  50.022  1.00  0.00    -0.359 OA
HETATM    6  C5  UNL     1      19.444   5.389  49.941  1.00  0.00     0.141 C 
HETATM    7  C6  UNL     1      20.736   5.638  50.069  1.00  0.00     0.070 C 
HETATM    8  S1  UNL     1      21.761   4.204  50.336  1.00  0.00    -0.118 SA
HETATM    9  C7  UNL     1      21.597   3.707  52.061  1.00  0.00     0.223 C 
HETATM   10  N1  UNL     1      22.416   2.537  52.290  1.00  0.00    -0.290 N 
HETATM   11  N2  UNL     1      23.802   2.394  52.305  1.00  0.00    -0.180 NA
HETATM   12  C8  UNL     1      24.111   1.302  52.953  1.00  0.00     0.066 C 
HETATM   13  C15 UNL     1      22.891   0.578  53.457  1.00  0.00     0.089 C 
HETATM   14  C16 UNL     1      21.846   1.211  52.568  1.00  0.00     0.114 C 
HETATM   15  C17 UNL     1      21.568   0.417  51.338  1.00  0.00     0.054 C 
HETATM   16  C18 UNL     1      20.169   0.657  50.904  1.00  0.00    -0.024 C 
HETATM   17  C19 UNL     1      18.907   0.551  50.567  1.00  0.00     0.002 C 
ENDROOT
BRANCH  12  18
HETATM   18  C9  UNL     1      25.469   0.822  53.174  1.00  0.00    -0.010 A 
HETATM   19  C10 UNL     1      26.430   1.536  53.856  1.00  0.00     0.015 A 
HETATM   20  C11 UNL     1      27.709   1.000  54.021  1.00  0.00     0.020 A 
HETATM   21  C12 UNL     1      28.066  -0.237  53.524  1.00  0.00     0.011 A 
HETATM   22 BR1  UNL     1      29.792  -0.987  53.734  1.00  0.00    -0.051 Br
HETATM   23  C13 UNL     1      27.121  -0.970  52.836  1.00  0.00     0.020 A 
HETATM   24  C14 UNL     1      25.869  -0.405  52.696  1.00  0.00     0.015 A 
ENDBRANCH  12  18
TORSDOF 1
ENDMDL
MODEL 4
REMARK VINA RESULT:      -8.1      4.944      8.992
REMARK  1 active torsions:
REMARK  status: ('A' for Active; 'I' for Inactive)
REMARK    1  A    between atoms: C8_12  and  C9_13 
ROOT
HETATM    1  C1  UNL     1      28.574   5.113  48.291  1.00  0.00     0.048 C 
HETATM    2  C2  UNL     1      27.240   5.722  48.583  1.00  0.00    -0.064 C 
HETATM    3  C3  UNL     1      26.858   6.970  48.382  1.00  0.00     0.006 C 
HETATM    4  C4  UNL     1      25.899   8.098  48.409  1.00  0.00     0.202 C 
HETATM    5  O1  UNL     1      24.630   7.728  48.938  1.00  0.00    -0.359 OA
HETATM    6  C5  UNL     1      23.595   8.676  49.034  1.00  0.00     0.141 C 
HETATM    7  C6  UNL     1      22.493   8.364  49.695  1.00  0.00     0.070 C 
HETATM    8  S1  UNL     1      22.470   6.727  50.400  1.00  0.00    -0.118 SA
HETATM    9  C7  UNL     1      22.116   5.550  49.081  1.00  0.00     0.223 C 
HETATM   10  N1  UNL     1      22.105   4.215  49.637  1.00  0.00    -0.290 N 
HETATM   11  N2  UNL     1      21.208   3.611  50.516  1.00  0.00    -0.180 NA
HETATM   12  C8  UNL     1      21.327   2.313  50.422  1.00  0.00     0.066 C 
HETATM   13  C15 UNL     1      22.373   1.912  49.415  1.00  0.00     0.089 C 
HETATM   14  C16 UNL     1      23.134   3.214  49.321  1.00  0.00     0.114 C 
HETATM   15  C17 UNL     1      24.312   3.269  50.231  1.00  0.00     0.054 C 
HETATM   16  C18 UNL     1      25.346   4.159  49.644  1.00  0.00    -0.024 C 
HETATM   17  C19 UNL     1      26.437   4.676  49.134  1.00  0.00     0.002 C 
ENDROOT
BRANCH  12  18
HETATM   18  C9  UNL     1      20.552   1.348  51.191  1.00  0.00    -0.010 A 
HETATM   19  C10 UNL     1      20.966   0.823  52.396  1.00  0.00     0.015 A 
HETATM   20  C11 UNL     1      20.159  -0.099  53.066  1.00  0.00     0.020 A 
HETATM   21  C12 UNL     1      18.941  -0.519  52.572  1.00  0.00     0.011 A 
HETATM   22 BR1  UNL     1      17.830  -1.767  53.462  1.00  0.00    -0.051 Br
HETATM   23  C13 UNL     1      18.507  -0.008  51.367  1.00  0.00     0.020 A 
HETATM   24  C14 UNL     1      19.333   0.900  50.736  1.00  0.00     0.015 A 
ENDBRANCH  12  18
TORSDOF 1
ENDMDL
MODEL 5
REMARK VINA RESULT:      -7.8      4.525      9.072
REMARK  1 active torsions:
REMARK  status: ('A' for Active; 'I' for Inactive)
REMARK    1  A    between atoms: C8_12  and  C9_13 
ROOT
HETATM    1  C1  UNL     1      28.919   7.512  46.967  1.00  0.00     0.048 C 
HETATM    2  C2  UNL     1      27.516   7.740  47.429  1.00  0.00    -0.064 C 
HETATM    3  C3  UNL     1      26.732   8.768  47.162  1.00  0.00     0.006 C 
HETATM    4  C4  UNL     1      25.478   9.551  47.238  1.00  0.00     0.202 C 
HETATM    5  O1  UNL     1      24.480   8.916  48.031  1.00  0.00    -0.359 OA
HETATM    6  C5  UNL     1      23.221   9.518  48.208  1.00  0.00     0.141 C 
HETATM    7  C6  UNL     1      22.380   9.009  49.092  1.00  0.00     0.070 C 
HETATM    8  S1  UNL     1      22.979   7.578  49.970  1.00  0.00    -0.118 SA
HETATM    9  C7  UNL     1      22.838   6.148  48.881  1.00  0.00     0.223 C 
HETATM   10  N1  UNL     1      23.331   4.980  49.578  1.00  0.00    -0.290 N 
HETATM   11  N2  UNL     1      22.805   4.292  50.670  1.00  0.00    -0.180 NA
HETATM   12  C8  UNL     1      23.318   3.090  50.703  1.00  0.00     0.066 C 
HETATM   13  C15 UNL     1      24.284   2.855  49.573  1.00  0.00     0.089 C 
HETATM   14  C16 UNL     1      24.570   4.290  49.192  1.00  0.00     0.114 C 
HETATM   15  C17 UNL     1      25.784   4.840  49.857  1.00  0.00     0.054 C 
HETATM   16  C18 UNL     1      26.387   5.884  48.992  1.00  0.00    -0.024 C 
HETATM   17  C19 UNL     1      27.173   6.609  48.234  1.00  0.00     0.002 C 
ENDROOT
BRANCH  12  18
HETATM   18  C9  UNL     1      23.006   2.080  51.706  1.00  0.00    -0.010 A 
HETATM   19  C10 UNL     1      21.741   1.870  52.210  1.00  0.00     0.015 A 
HETATM   20  C11 UNL     1      21.531   0.880  53.172  1.00  0.00     0.020 A 
HETATM   21  C12 UNL     1      22.550   0.083  53.653  1.00  0.00     0.011 A 
HETATM   22 BR1  UNL     1      22.292  -1.267  54.956  1.00  0.00    -0.051 Br
HETATM   23  C13 UNL     1      23.825   0.276  53.164  1.00  0.00     0.020 A 
HETATM   24  C14 UNL     1      23.990   1.265  52.215  1.00  0.00     0.015 A 
ENDBRANCH  12  18
TORSDOF 1
ENDMDL
MODEL 6
REMARK VINA RESULT:      -7.8      5.661      9.900
REMARK  1 active torsions:
REMARK  status: ('A' for Active; 'I' for Inactive)
REMARK    1  A    between atoms: C8_12  and  C9_13 
ROOT
HETATM    1  C1  UNL     1      22.891   3.887  48.325  1.00  0.00     0.048 C 
HETATM    2  C2  UNL     1      23.144   3.036  49.528  1.00  0.00    -0.064 C 
HETATM    3  C3  UNL     1      24.218   3.019  50.297  1.00  0.00     0.006 C 
HETATM    4  C4  UNL     1      25.042   2.552  51.435  1.00  0.00     0.202 C 
HETATM    5  O1  UNL     1      24.398   1.542  52.204  1.00  0.00    -0.359 OA
HETATM    6  C5  UNL     1      25.037   0.986  53.327  1.00  0.00     0.141 C 
HETATM    7  C6  UNL     1      24.506  -0.073  53.914  1.00  0.00     0.070 C 
HETATM    8  S1  UNL     1      23.000  -0.673  53.173  1.00  0.00    -0.118 SA
HETATM    9  C7  UNL     1      21.648   0.400  53.693  1.00  0.00     0.223 C 
HETATM   10  N1  UNL     1      20.420  -0.070  53.090  1.00  0.00    -0.290 N 
HETATM   11  N2  UNL     1      19.686  -1.230  53.326  1.00  0.00    -0.180 NA
HETATM   12  C8  UNL     1      18.465  -1.057  52.892  1.00  0.00     0.066 C 
HETATM   13  C15 UNL     1      18.264   0.311  52.295  1.00  0.00     0.089 C 
HETATM   14  C16 UNL     1      19.707   0.685  52.049  1.00  0.00     0.114 C 
HETATM   15  C17 UNL     1      20.166   0.364  50.668  1.00  0.00     0.054 C 
HETATM   16  C18 UNL     1      21.239   1.312  50.275  1.00  0.00    -0.024 C 
HETATM   17  C19 UNL     1      21.979   2.224  49.694  1.00  0.00     0.002 C 
ENDROOT
BRANCH  12  18
HETATM   18  C9  UNL     1      17.406  -2.056  52.966  1.00  0.00    -0.010 A 
HETATM   19  C10 UNL     1      16.162  -1.892  52.398  1.00  0.00     0.015 A 
HETATM   20  C11 UNL     1      15.205  -2.902  52.517  1.00  0.00     0.020 A 
HETATM   21  C12 UNL     1      15.448  -4.082  53.190  1.00  0.00     0.011 A 
HETATM   22 BR1  UNL     1      14.168  -5.466  53.366  1.00  0.00    -0.051 Br
HETATM   23  C13 UNL     1      16.687  -4.268  53.768  1.00  0.00     0.020 A 
HETATM   24  C14 UNL     1      17.605  -3.246  53.626  1.00  0.00     0.015 A 
ENDBRANCH  12  18
TORSDOF 1
ENDMDL
MODEL 7
REMARK VINA RESULT:      -7.8      4.667      7.098
REMARK  1 active torsions:
REMARK  status: ('A' for Active; 'I' for Inactive)
REMARK    1  A    between atoms: C8_12  and  C9_13 
ROOT
HETATM    1  C1  UNL     1      17.973   3.019  48.443  1.00  0.00     0.048 C 
HETATM    2  C2  UNL     1      19.047   3.904  48.988  1.00  0.00    -0.064 C 
HETATM    3  C3  UNL     1      19.046   5.223  49.069  1.00  0.00     0.006 C 
HETATM    4  C4  UNL     1      19.620   6.543  49.412  1.00  0.00     0.202 C 
HETATM    5  O1  UNL     1      20.915   6.445  49.997  1.00  0.00    -0.359 OA
HETATM    6  C5  UNL     1      21.608   7.604  50.390  1.00  0.00     0.141 C 
HETATM    7  C6  UNL     1      22.875   7.505  50.756  1.00  0.00     0.070 C 
HETATM    8  S1  UNL     1      23.554   5.858  50.698  1.00  0.00    -0.118 SA
HETATM    9  C7  UNL     1      22.975   4.957  52.148  1.00  0.00     0.223 C 
HETATM   10  N1  UNL     1      23.511   3.614  52.109  1.00  0.00    -0.290 N 
HETATM   11  N2  UNL     1      24.819   3.161  52.259  1.00  0.00    -0.180 NA
HETATM   12  C8  UNL     1      24.797   1.892  52.572  1.00  0.00     0.066 C 
HETATM   13  C15 UNL     1      23.392   1.356  52.665  1.00  0.00     0.089 C 
HETATM   14  C16 UNL     1      22.669   2.430  51.886  1.00  0.00     0.114 C 
HETATM   15  C17 UNL     1      22.495   2.091  50.446  1.00  0.00     0.054 C 
HETATM   16  C18 UNL     1      21.271   2.754  49.929  1.00  0.00    -0.024 C 
HETATM   17  C19 UNL     1      20.100   3.037  49.414  1.00  0.00     0.002 C 
ENDROOT
BRANCH  12  18
HETATM   18  C9  UNL     1      25.978   1.072  52.808  1.00  0.00    -0.010 A 
HETATM   19  C10 UNL     1      26.020  -0.288  52.587  1.00  0.00     0.015 A 
HETATM   20  C11 UNL     1      27.195  -0.998  52.841  1.00  0.00     0.020 A 
HETATM   21  C12 UNL     1      28.342  -0.393  53.313  1.00  0.00     0.011 A 
HETATM   22 BR1  UNL     1      29.948  -1.333  53.665  1.00  0.00    -0.051 Br
HETATM   23  C13 UNL     1      28.324   0.967  53.543  1.00  0.00     0.020 A 
HETATM   24  C14 UNL     1      27.143   1.632  53.279  1.00  0.00     0.015 A 
ENDBRANCH  12  18
TORSDOF 1
ENDMDL
MODEL 8
REMARK VINA RESULT:      -7.4      4.550      8.616
REMARK  1 active torsions:
REMARK  status: ('A' for Active; 'I' for Inactive)
REMARK    1  A    between atoms: C8_12  and  C9_13 
ROOT
HETATM    1  C1  UNL     1      21.908   7.920  44.828  1.00  0.00     0.048 C 
HETATM    2  C2  UNL     1      23.106   7.637  45.677  1.00  0.00    -0.064 C 
HETATM    3  C3  UNL     1      24.286   8.227  45.635  1.00  0.00     0.006 C 
HETATM    4  C4  UNL     1      25.686   8.454  46.062  1.00  0.00     0.202 C 
HETATM    5  O1  UNL     1      26.085   7.592  47.122  1.00  0.00    -0.359 OA
HETATM    6  C5  UNL     1      27.383   7.674  47.656  1.00  0.00     0.141 C 
HETATM    7  C6  UNL     1      27.791   6.747  48.506  1.00  0.00     0.070 C 
HETATM    8  S1  UNL     1      26.597   5.474  48.870  1.00  0.00    -0.118 SA
HETATM    9  C7  UNL     1      25.399   6.143  50.040  1.00  0.00     0.223 C 
HETATM   10  N1  UNL     1      24.417   5.123  50.337  1.00  0.00    -0.290 N 
HETATM   11  N2  UNL     1      24.543   3.926  51.038  1.00  0.00    -0.180 NA
HETATM   12  C8  UNL     1      23.359   3.533  51.427  1.00  0.00     0.066 C 
HETATM   13  C15 UNL     1      22.276   4.487  50.995  1.00  0.00     0.089 C 
HETATM   14  C16 UNL     1      23.017   5.219  49.901  1.00  0.00     0.114 C 
HETATM   15  C17 UNL     1      22.778   4.644  48.548  1.00  0.00     0.054 C 
HETATM   16  C18 UNL     1      22.912   5.714  47.528  1.00  0.00    -0.024 C 
HETATM   17  C19 UNL     1      22.725   6.583  46.564  1.00  0.00     0.002 C 
ENDROOT
BRANCH  12  18
HETATM   18  C9  UNL     1      23.093   2.319  52.187  1.00  0.00    -0.010 A 
HETATM   19  C10 UNL     1      24.080   1.469  52.638  1.00  0.00     0.015 A 
HETATM   20  C11 UNL     1      23.735   0.325  53.360  1.00  0.00     0.020 A 
HETATM   21  C12 UNL     1      22.427  -0.005  53.652  1.00  0.00     0.011 A 
HETATM   22 BR1  UNL     1      21.934  -1.550  54.629  1.00  0.00    -0.051 Br
HETATM   23  C13 UNL     1      21.422   0.830  53.210  1.00  0.00     0.020 A 
HETATM   24  C14 UNL     1      21.805   1.951  52.500  1.00  0.00     0.015 A 
ENDBRANCH  12  18
TORSDOF 1
ENDMDL
MODEL 9
REMARK VINA RESULT:      -7.4      5.822     10.924
REMARK  1 active torsions:
REMARK  status: ('A' for Active; 'I' for Inactive)
REMARK    1  A    between atoms: C8_12  and  C9_13 
ROOT
HETATM    1  C1  UNL     1      35.431   8.489  48.197  1.00  0.00     0.048 C 
HETATM    2  C2  UNL     1      34.126   8.989  47.667  1.00  0.00    -0.064 C 
HETATM    3  C3  UNL     1      33.922   9.988  46.828  1.00  0.00     0.006 C 
HETATM    4  C4  UNL     1      33.092  10.898  46.006  1.00  0.00     0.202 C 
HETATM    5  O1  UNL     1      31.700  10.617  46.109  1.00  0.00    -0.359 OA
HETATM    6  C5  UNL     1      30.764  11.381  45.389  1.00  0.00     0.141 C 
HETATM    7  C6  UNL     1      29.475  11.227  45.640  1.00  0.00     0.070 C 
HETATM    8  S1  UNL     1      29.087  10.029  46.901  1.00  0.00    -0.118 SA
HETATM    9  C7  UNL     1      29.232   8.383  46.181  1.00  0.00     0.223 C 
HETATM   10  N1  UNL     1      28.929   7.399  47.197  1.00  0.00    -0.290 N 
HETATM   11  N2  UNL     1      27.725   7.096  47.829  1.00  0.00    -0.180 NA
HETATM   12  C8  UNL     1      27.805   5.898  48.346  1.00  0.00     0.066 C 
HETATM   13  C15 UNL     1      29.145   5.260  48.091  1.00  0.00     0.089 C 
HETATM   14  C16 UNL     1      29.946   6.496  47.755  1.00  0.00     0.114 C 
HETATM   15  C17 UNL     1      30.661   7.066  48.932  1.00  0.00     0.054 C 
HETATM   16  C18 UNL     1      31.887   7.764  48.471  1.00  0.00    -0.024 C 
HETATM   17  C19 UNL     1      33.116   8.164  48.253  1.00  0.00     0.002 C 
ENDROOT
BRANCH  12  18
HETATM   18  C9  UNL     1      26.738   5.239  49.087  1.00  0.00    -0.010 A 
HETATM   19  C10 UNL     1      25.630   5.895  49.577  1.00  0.00     0.015 A 
HETATM   20  C11 UNL     1      24.654   5.185  50.278  1.00  0.00     0.020 A 
HETATM   21  C12 UNL     1      24.745   3.827  50.510  1.00  0.00     0.011 A 
HETATM   22 BR1  UNL     1      23.435   2.841  51.457  1.00  0.00    -0.051 Br
HETATM   23  C13 UNL     1      25.846   3.148  50.029  1.00  0.00     0.020 A 
HETATM   24  C14 UNL     1      26.788   3.888  49.342  1.00  0.00     0.015 A 
ENDBRANCH  12  18
TORSDOF 1
ENDMDL
