MODEL 1
REMARK VINA RESULT:      -7.1      0.000      0.000
REMARK  5 active torsions:
REMARK  status: ('A' for Active; 'I' for Inactive)
REMARK    1  A    between atoms: C2_2  and  C3_3 
REMARK    2  A    between atoms: C4_4  and  C5_5 
REMARK    3  A    between atoms: C6_6  and  C7_7 
REMARK    4  A    between atoms: C7_7  and  N1_8 
REMARK    5  A    between atoms: N1_8  and  C8_9 
ROOT
HETATM    1  C8  UNL     1      22.889   0.186  53.288  1.00  0.00     0.133 A 
HETATM    2  N2  UNL     1      22.303  -0.541  54.276  1.00  0.00    -0.224 NA
HETATM    3  C9  UNL     1      21.006  -0.828  54.155  1.00  0.00     0.235 A 
HETATM    4  N3  UNL     1      20.426  -0.355  53.051  1.00  0.00    -0.246 NA
HETATM    5  C10 UNL     1      20.979   0.361  52.063  1.00  0.00     0.048 A 
HETATM    6  C11 UNL     1      22.304   0.699  52.107  1.00  0.00     0.014 A 
HETATM    7  C12 UNL     1      23.372   1.411  51.398  1.00  0.00     0.071 C 
HETATM    8  C13 UNL     1      23.465   2.862  51.906  1.00  0.00     0.172 C 
HETATM    9  O1  UNL     1      22.520   3.646  51.338  1.00  0.00    -0.389 OA
HETATM   10  C14 UNL     1      21.233   3.332  51.306  1.00  0.00     0.193 C 
HETATM   11  C15 UNL     1      20.343   3.212  52.477  1.00  0.00     0.193 C 
HETATM   12  O2  UNL     1      19.106   2.810  52.007  1.00  0.00    -0.389 OA
HETATM   13  C16 UNL     1      18.829   1.523  51.817  1.00  0.00     0.173 C 
HETATM   14  C17 UNL     1      19.792   0.602  51.170  1.00  0.00     0.086 C 
ENDROOT
BRANCH   1  15
HETATM   15  N1  UNL     1      24.256   0.389  53.696  1.00  0.00    -0.371 N 
HETATM   16  H12 UNL     1      24.661   1.302  53.888  1.00  0.00     0.161 HD
BRANCH  15  17
HETATM   17  C7  UNL     1      25.262  -0.629  53.918  1.00  0.00     0.148 C 
BRANCH  17  18
HETATM   18  C6  UNL     1      26.003  -0.926  52.690  1.00  0.00    -0.007 C 
HETATM   19  C5  UNL     1      26.776  -0.124  51.978  1.00  0.00    -0.003 C 
BRANCH  19  20
HETATM   20  C4  UNL     1      27.004   1.251  52.351  1.00  0.00    -0.004 C 
HETATM   21  C3  UNL     1      28.064   1.610  53.056  1.00  0.00    -0.027 C 
BRANCH  21  22
HETATM   22  C2  UNL     1      29.163   0.783  53.582  1.00  0.00     0.022 C 
HETATM   23  C1  UNL     1      28.741   0.258  54.947  1.00  0.00     0.009 C 
ENDBRANCH  21  22
ENDBRANCH  19  20
ENDBRANCH  17  18
ENDBRANCH  15  17
ENDBRANCH   1  15
TORSDOF 5
ENDMDL
MODEL 2
REMARK VINA RESULT:      -7.0      0.988      1.315
REMARK  5 active torsions:
REMARK  status: ('A' for Active; 'I' for Inactive)
REMARK    1  A    between atoms: C2_2  and  C3_3 
REMARK    2  A    between atoms: C4_4  and  C5_5 
REMARK    3  A    between atoms: C6_6  and  C7_7 
REMARK    4  A    between atoms: C7_7  and  N1_8 
REMARK    5  A    between atoms: N1_8  and  C8_9 
ROOT
HETATM    1  C8  UNL     1      23.074   0.316  52.938  1.00  0.00     0.133 A 
HETATM    2  N2  UNL     1      22.575  -0.489  53.913  1.00  0.00    -0.224 NA
HETATM    3  C9  UNL     1      21.285  -0.820  53.850  1.00  0.00     0.235 A 
HETATM    4  N3  UNL     1      20.622  -0.307  52.812  1.00  0.00    -0.246 NA
HETATM    5  C10 UNL     1      21.089   0.487  51.839  1.00  0.00     0.048 A 
HETATM    6  C11 UNL     1      22.400   0.873  51.826  1.00  0.00     0.014 A 
HETATM    7  C12 UNL     1      23.397   1.668  51.100  1.00  0.00     0.071 C 
HETATM    8  C13 UNL     1      23.469   3.089  51.690  1.00  0.00     0.172 C 
HETATM    9  O1  UNL     1      22.464   3.867  51.226  1.00  0.00    -0.389 OA
HETATM   10  C14 UNL     1      21.189   3.505  51.250  1.00  0.00     0.193 C 
HETATM   11  C15 UNL     1      20.377   3.281  52.461  1.00  0.00     0.193 C 
HETATM   12  O2  UNL     1      19.129   2.859  52.040  1.00  0.00    -0.389 OA
HETATM   13  C16 UNL     1      18.887   1.576  51.790  1.00  0.00     0.173 C 
HETATM   14  C17 UNL     1      19.842   0.732  51.033  1.00  0.00     0.086 C 
ENDROOT
BRANCH   1  15
HETATM   15  N1  UNL     1      24.455   0.548  53.277  1.00  0.00    -0.371 N 
HETATM   16  H12 UNL     1      24.861   1.474  53.400  1.00  0.00     0.161 HD
BRANCH  15  17
HETATM   17  C7  UNL     1      25.476  -0.450  53.516  1.00  0.00     0.148 C 
BRANCH  17  18
HETATM   18  C6  UNL     1      26.223  -0.169  54.742  1.00  0.00    -0.007 C 
HETATM   19  C5  UNL     1      27.429   0.358  54.874  1.00  0.00    -0.003 C 
BRANCH  19  20
HETATM   20  C4  UNL     1      28.220   0.752  53.734  1.00  0.00    -0.004 C 
HETATM   21  C3  UNL     1      29.252   0.033  53.326  1.00  0.00    -0.027 C 
BRANCH  21  22
HETATM   22  C2  UNL     1      29.796  -1.221  53.876  1.00  0.00     0.022 C 
HETATM   23  C1  UNL     1      29.116  -2.379  53.161  1.00  0.00     0.009 C 
ENDBRANCH  21  22
ENDBRANCH  19  20
ENDBRANCH  17  18
ENDBRANCH  15  17
ENDBRANCH   1  15
TORSDOF 5
ENDMDL
MODEL 3
REMARK VINA RESULT:      -6.9      1.114      1.877
REMARK  5 active torsions:
REMARK  status: ('A' for Active; 'I' for Inactive)
REMARK    1  A    between atoms: C2_2  and  C3_3 
REMARK    2  A    between atoms: C4_4  and  C5_5 
REMARK    3  A    between atoms: C6_6  and  C7_7 
REMARK    4  A    between atoms: C7_7  and  N1_8 
REMARK    5  A    between atoms: N1_8  and  C8_9 
ROOT
HETATM    1  C8  UNL     1      22.770   0.371  53.138  1.00  0.00     0.133 A 
HETATM    2  N2  UNL     1      22.258  -0.331  54.182  1.00  0.00    -0.224 NA
HETATM    3  C9  UNL     1      20.970  -0.676  54.132  1.00  0.00     0.235 A 
HETATM    4  N3  UNL     1      20.324  -0.277  53.035  1.00  0.00    -0.246 NA
HETATM    5  C10 UNL     1      20.804   0.414  51.993  1.00  0.00     0.048 A 
HETATM    6  C11 UNL     1      22.114   0.806  51.962  1.00  0.00     0.014 A 
HETATM    7  C12 UNL     1      23.119   1.527  51.175  1.00  0.00     0.071 C 
HETATM    8  C13 UNL     1      23.174   3.002  51.615  1.00  0.00     0.172 C 
HETATM    9  O1  UNL     1      22.173   3.721  51.055  1.00  0.00    -0.389 OA
HETATM   10  C14 UNL     1      20.900   3.355  51.095  1.00  0.00     0.193 C 
HETATM   11  C15 UNL     1      20.067   3.253  52.309  1.00  0.00     0.193 C 
HETATM   12  O2  UNL     1      18.829   2.781  51.913  1.00  0.00    -0.389 OA
HETATM   13  C16 UNL     1      18.598   1.477  51.793  1.00  0.00     0.173 C 
HETATM   14  C17 UNL     1      19.570   0.566  51.144  1.00  0.00     0.086 C 
ENDROOT
BRANCH   1  15
HETATM   15  N1  UNL     1      24.144   0.647  53.474  1.00  0.00    -0.371 N 
HETATM   16  H12 UNL     1      24.528   1.585  53.564  1.00  0.00     0.161 HD
BRANCH  15  17
HETATM   17  C7  UNL     1      25.185  -0.319  53.755  1.00  0.00     0.148 C 
BRANCH  17  18
HETATM   18  C6  UNL     1      25.992  -0.597  52.566  1.00  0.00    -0.007 C 
HETATM   19  C5  UNL     1      26.809   0.213  51.913  1.00  0.00    -0.003 C 
BRANCH  19  20
HETATM   20  C4  UNL     1      27.022   1.581  52.325  1.00  0.00    -0.004 C 
HETATM   21  C3  UNL     1      26.865   2.588  51.483  1.00  0.00    -0.027 C 
BRANCH  21  22
HETATM   22  C2  UNL     1      26.476   2.571  50.063  1.00  0.00     0.022 C 
HETATM   23  C1  UNL     1      26.563   3.996  49.536  1.00  0.00     0.009 C 
ENDBRANCH  21  22
ENDBRANCH  19  20
ENDBRANCH  17  18
ENDBRANCH  15  17
ENDBRANCH   1  15
TORSDOF 5
ENDMDL
MODEL 4
REMARK VINA RESULT:      -6.8      2.676      6.269
REMARK  5 active torsions:
REMARK  status: ('A' for Active; 'I' for Inactive)
REMARK    1  A    between atoms: C2_2  and  C3_3 
REMARK    2  A    between atoms: C4_4  and  C5_5 
REMARK    3  A    between atoms: C6_6  and  C7_7 
REMARK    4  A    between atoms: C7_7  and  N1_8 
REMARK    5  A    between atoms: N1_8  and  C8_9 
ROOT
HETATM    1  C8  UNL     1      23.023   1.445  52.918  1.00  0.00     0.133 A 
HETATM    2  N2  UNL     1      22.797   2.767  52.696  1.00  0.00    -0.224 NA
HETATM    3  C9  UNL     1      23.772   3.482  52.134  1.00  0.00     0.235 A 
HETATM    4  N3  UNL     1      24.882   2.797  51.853  1.00  0.00    -0.246 NA
HETATM    5  C10 UNL     1      25.130   1.497  52.061  1.00  0.00     0.048 A 
HETATM    6  C11 UNL     1      24.184   0.690  52.630  1.00  0.00     0.014 A 
HETATM    7  C12 UNL     1      23.904  -0.678  53.079  1.00  0.00     0.071 C 
HETATM    8  C13 UNL     1      24.256  -0.824  54.572  1.00  0.00     0.172 C 
HETATM    9  O1  UNL     1      25.585  -1.003  54.751  1.00  0.00    -0.389 OA
HETATM   10  C14 UNL     1      26.507  -0.216  54.215  1.00  0.00     0.193 C 
HETATM   11  C15 UNL     1      26.717   1.210  54.532  1.00  0.00     0.193 C 
HETATM   12  O2  UNL     1      27.732   1.663  53.709  1.00  0.00    -0.389 OA
HETATM   13  C16 UNL     1      27.475   2.101  52.480  1.00  0.00     0.173 C 
HETATM   14  C17 UNL     1      26.549   1.384  51.571  1.00  0.00     0.086 C 
ENDROOT
BRANCH   1  15
HETATM   15  N1  UNL     1      21.841   0.939  53.569  1.00  0.00    -0.371 N 
HETATM   16  H12 UNL     1      21.856   0.396  54.429  1.00  0.00     0.161 HD
BRANCH  15  17
HETATM   17  C7  UNL     1      20.468   1.118  53.147  1.00  0.00     0.148 C 
BRANCH  17  18
HETATM   18  C6  UNL     1      20.153   0.288  51.984  1.00  0.00    -0.007 C 
HETATM   19  C5  UNL     1      19.956   0.660  50.730  1.00  0.00    -0.003 C 
BRANCH  19  20
HETATM   20  C4  UNL     1      20.033   2.043  50.322  1.00  0.00    -0.004 C 
HETATM   21  C3  UNL     1      21.071   2.508  49.648  1.00  0.00    -0.027 C 
BRANCH  21  22
HETATM   22  C2  UNL     1      22.284   1.805  49.194  1.00  0.00     0.022 C 
HETATM   23  C1  UNL     1      22.422   2.032  47.696  1.00  0.00     0.009 C 
ENDBRANCH  21  22
ENDBRANCH  19  20
ENDBRANCH  17  18
ENDBRANCH  15  17
ENDBRANCH   1  15
TORSDOF 5
ENDMDL
MODEL 5
REMARK VINA RESULT:      -6.8      3.225      4.898
REMARK  5 active torsions:
REMARK  status: ('A' for Active; 'I' for Inactive)
REMARK    1  A    between atoms: C2_2  and  C3_3 
REMARK    2  A    between atoms: C4_4  and  C5_5 
REMARK    3  A    between atoms: C6_6  and  C7_7 
REMARK    4  A    between atoms: C7_7  and  N1_8 
REMARK    5  A    between atoms: N1_8  and  C8_9 
ROOT
HETATM    1  C8  UNL     1      23.090   2.092  51.326  1.00  0.00     0.133 A 
HETATM    2  N2  UNL     1      24.129   2.654  51.999  1.00  0.00    -0.224 NA
HETATM    3  C9  UNL     1      24.667   1.964  53.006  1.00  0.00     0.235 A 
HETATM    4  N3  UNL     1      24.105   0.776  53.238  1.00  0.00    -0.246 NA
HETATM    5  C10 UNL     1      23.083   0.200  52.591  1.00  0.00     0.048 A 
HETATM    6  C11 UNL     1      22.475   0.837  51.545  1.00  0.00     0.014 A 
HETATM    7  C12 UNL     1      21.402   0.729  50.551  1.00  0.00     0.071 C 
HETATM    8  C13 UNL     1      20.116   1.384  51.090  1.00  0.00     0.172 C 
HETATM    9  O1  UNL     1      19.459   0.557  51.936  1.00  0.00    -0.389 OA
HETATM   10  C14 UNL     1      20.039  -0.051  52.961  1.00  0.00     0.193 C 
HETATM   11  C15 UNL     1      20.612   0.612  54.148  1.00  0.00     0.193 C 
HETATM   12  O2  UNL     1      21.167  -0.379  54.937  1.00  0.00    -0.389 OA
HETATM   13  C16 UNL     1      22.409  -0.806  54.729  1.00  0.00     0.173 C 
HETATM   14  C17 UNL     1      22.925  -1.080  53.366  1.00  0.00     0.086 C 
ENDROOT
BRANCH   1  15
HETATM   15  N1  UNL     1      22.680   3.060  50.341  1.00  0.00    -0.371 N 
HETATM   16  H12 UNL     1      21.875   3.673  50.449  1.00  0.00     0.161 HD
BRANCH  15  17
HETATM   17  C7  UNL     1      23.322   3.342  49.074  1.00  0.00     0.148 C 
BRANCH  17  18
HETATM   18  C6  UNL     1      23.831   4.714  49.026  1.00  0.00    -0.007 C 
HETATM   19  C5  UNL     1      25.081   5.136  49.110  1.00  0.00    -0.003 C 
BRANCH  19  20
HETATM   20  C4  UNL     1      26.188   4.223  49.272  1.00  0.00    -0.004 C 
HETATM   21  C3  UNL     1      27.419   4.560  48.926  1.00  0.00    -0.027 C 
BRANCH  21  22
HETATM   22  C2  UNL     1      27.917   5.819  48.348  1.00  0.00     0.022 C 
HETATM   23  C1  UNL     1      29.416   5.672  48.128  1.00  0.00     0.009 C 
ENDBRANCH  21  22
ENDBRANCH  19  20
ENDBRANCH  17  18
ENDBRANCH  15  17
ENDBRANCH   1  15
TORSDOF 5
ENDMDL
MODEL 6
REMARK VINA RESULT:      -6.7      2.062      3.221
REMARK  5 active torsions:
REMARK  status: ('A' for Active; 'I' for Inactive)
REMARK    1  A    between atoms: C2_2  and  C3_3 
REMARK    2  A    between atoms: C4_4  and  C5_5 
REMARK    3  A    between atoms: C6_6  and  C7_7 
REMARK    4  A    between atoms: C7_7  and  N1_8 
REMARK    5  A    between atoms: N1_8  and  C8_9 
ROOT
HETATM    1  C8  UNL     1      22.764   1.280  51.603  1.00  0.00     0.133 A 
HETATM    2  N2  UNL     1      21.794   0.565  50.974  1.00  0.00    -0.224 NA
HETATM    3  C9  UNL     1      21.506   0.881  49.710  1.00  0.00     0.235 A 
HETATM    4  N3  UNL     1      22.220   1.888  49.205  1.00  0.00    -0.246 NA
HETATM    5  C10 UNL     1      23.180   2.607  49.802  1.00  0.00     0.048 A 
HETATM    6  C11 UNL     1      23.539   2.349  51.096  1.00  0.00     0.014 A 
HETATM    7  C12 UNL     1      24.425   2.765  52.188  1.00  0.00     0.071 C 
HETATM    8  C13 UNL     1      23.709   3.794  53.084  1.00  0.00     0.172 C 
HETATM    9  O1  UNL     1      23.745   5.032  52.540  1.00  0.00    -0.389 OA
HETATM   10  C14 UNL     1      23.382   5.291  51.291  1.00  0.00     0.193 C 
HETATM   11  C15 UNL     1      22.021   5.153  50.739  1.00  0.00     0.193 C 
HETATM   12  O2  UNL     1      22.095   5.465  49.394  1.00  0.00    -0.389 OA
HETATM   13  C16 UNL     1      22.422   4.543  48.493  1.00  0.00     0.173 C 
HETATM   14  C17 UNL     1      23.533   3.588  48.717  1.00  0.00     0.086 C 
ENDROOT
BRANCH   1  15
HETATM   15  N1  UNL     1      22.831   0.768  52.948  1.00  0.00    -0.371 N 
HETATM   16  H12 UNL     1      22.650   1.328  53.778  1.00  0.00     0.161 HD
BRANCH  15  17
HETATM   17  C7  UNL     1      23.138  -0.589  53.352  1.00  0.00     0.148 C 
BRANCH  17  18
HETATM   18  C6  UNL     1      24.255  -0.626  54.297  1.00  0.00    -0.007 C 
HETATM   19  C5  UNL     1      25.552  -0.675  54.043  1.00  0.00    -0.003 C 
BRANCH  19  20
HETATM   20  C4  UNL     1      26.068  -0.700  52.695  1.00  0.00    -0.004 C 
HETATM   21  C3  UNL     1      27.072   0.076  52.325  1.00  0.00    -0.027 C 
BRANCH  21  22
HETATM   22  C2  UNL     1      27.836   1.059  53.112  1.00  0.00     0.022 C 
HETATM   23  C1  UNL     1      29.095   0.373  53.623  1.00  0.00     0.009 C 
ENDBRANCH  21  22
ENDBRANCH  19  20
ENDBRANCH  17  18
ENDBRANCH  15  17
ENDBRANCH   1  15
TORSDOF 5
ENDMDL
MODEL 7
REMARK VINA RESULT:      -6.6      2.721      5.086
REMARK  5 active torsions:
REMARK  status: ('A' for Active; 'I' for Inactive)
REMARK    1  A    between atoms: C2_2  and  C3_3 
REMARK    2  A    between atoms: C4_4  and  C5_5 
REMARK    3  A    between atoms: C6_6  and  C7_7 
REMARK    4  A    between atoms: C7_7  and  N1_8 
REMARK    5  A    between atoms: N1_8  and  C8_9 
ROOT
HETATM    1  C8  UNL     1      22.890   2.445  52.271  1.00  0.00     0.133 A 
HETATM    2  N2  UNL     1      23.739   3.322  52.867  1.00  0.00    -0.224 NA
HETATM    3  C9  UNL     1      24.804   2.827  53.501  1.00  0.00     0.235 A 
HETATM    4  N3  UNL     1      24.908   1.498  53.473  1.00  0.00    -0.246 NA
HETATM    5  C10 UNL     1      24.088   0.613  52.892  1.00  0.00     0.048 A 
HETATM    6  C11 UNL     1      22.973   1.034  52.220  1.00  0.00     0.014 A 
HETATM    7  C12 UNL     1      21.801   0.581  51.464  1.00  0.00     0.071 C 
HETATM    8  C13 UNL     1      20.597   0.414  52.410  1.00  0.00     0.172 C 
HETATM    9  O1  UNL     1      20.656  -0.760  53.081  1.00  0.00    -0.389 OA
HETATM   10  C14 UNL     1      21.727  -1.166  53.748  1.00  0.00     0.193 C 
HETATM   11  C15 UNL     1      22.297  -0.520  54.946  1.00  0.00     0.193 C 
HETATM   12  O2  UNL     1      23.439  -1.225  55.282  1.00  0.00    -0.389 OA
HETATM   13  C16 UNL     1      24.611  -0.942  54.721  1.00  0.00     0.173 C 
HETATM   14  C17 UNL     1      24.743  -0.690  53.267  1.00  0.00     0.086 C 
ENDROOT
BRANCH   1  15
HETATM   15  N1  UNL     1      21.821   3.236  51.716  1.00  0.00    -0.371 N 
HETATM   16  H12 UNL     1      20.850   3.164  52.011  1.00  0.00     0.161 HD
BRANCH  15  17
HETATM   17  C7  UNL     1      21.929   4.252  50.690  1.00  0.00     0.148 C 
BRANCH  17  18
HETATM   18  C6  UNL     1      22.556   3.725  49.478  1.00  0.00    -0.007 C 
HETATM   19  C5  UNL     1      23.706   4.069  48.925  1.00  0.00    -0.003 C 
BRANCH  19  20
HETATM   20  C4  UNL     1      24.554   5.090  49.494  1.00  0.00    -0.004 C 
HETATM   21  C3  UNL     1      25.851   4.896  49.663  1.00  0.00    -0.027 C 
BRANCH  21  22
HETATM   22  C2  UNL     1      26.671   3.714  49.347  1.00  0.00     0.022 C 
HETATM   23  C1  UNL     1      26.535   2.729  50.500  1.00  0.00     0.009 C 
ENDBRANCH  21  22
ENDBRANCH  19  20
ENDBRANCH  17  18
ENDBRANCH  15  17
ENDBRANCH   1  15
TORSDOF 5
ENDMDL
MODEL 8
REMARK VINA RESULT:      -6.6      3.815      4.981
REMARK  5 active torsions:
REMARK  status: ('A' for Active; 'I' for Inactive)
REMARK    1  A    between atoms: C2_2  and  C3_3 
REMARK    2  A    between atoms: C4_4  and  C5_5 
REMARK    3  A    between atoms: C6_6  and  C7_7 
REMARK    4  A    between atoms: C7_7  and  N1_8 
REMARK    5  A    between atoms: N1_8  and  C8_9 
ROOT
HETATM    1  C8  UNL     1      24.447   3.609  51.433  1.00  0.00     0.133 A 
HETATM    2  N2  UNL     1      23.782   3.912  52.579  1.00  0.00    -0.224 NA
HETATM    3  C9  UNL     1      22.948   4.953  52.560  1.00  0.00     0.235 A 
HETATM    4  N3  UNL     1      22.867   5.588  51.389  1.00  0.00    -0.246 NA
HETATM    5  C10 UNL     1      23.509   5.310  50.247  1.00  0.00     0.048 A 
HETATM    6  C11 UNL     1      24.381   4.258  50.178  1.00  0.00     0.014 A 
HETATM    7  C12 UNL     1      25.302   3.536  49.295  1.00  0.00     0.071 C 
HETATM    8  C13 UNL     1      26.727   4.103  49.443  1.00  0.00     0.172 C 
HETATM    9  O1  UNL     1      26.882   5.241  48.727  1.00  0.00    -0.389 OA
HETATM   10  C14 UNL     1      26.049   6.270  48.802  1.00  0.00     0.193 C 
HETATM   11  C15 UNL     1      25.826   7.117  49.989  1.00  0.00     0.193 C 
HETATM   12  O2  UNL     1      24.840   8.028  49.657  1.00  0.00    -0.389 OA
HETATM   13  C16 UNL     1      23.552   7.722  49.784  1.00  0.00     0.173 C 
HETATM   14  C17 UNL     1      23.011   6.412  49.351  1.00  0.00     0.086 C 
ENDROOT
BRANCH   1  15
HETATM   15  N1  UNL     1      25.301   2.492  51.748  1.00  0.00    -0.371 N 
HETATM   16  H12 UNL     1      25.947   2.067  51.087  1.00  0.00     0.161 HD
BRANCH  15  17
HETATM   17  C7  UNL     1      25.407   1.806  53.019  1.00  0.00     0.148 C 
BRANCH  17  18
HETATM   18  C6  UNL     1      25.669   0.377  52.835  1.00  0.00    -0.007 C 
HETATM   19  C5  UNL     1      26.391  -0.435  53.589  1.00  0.00    -0.003 C 
BRANCH  19  20
HETATM   20  C4  UNL     1      27.065   0.024  54.781  1.00  0.00    -0.004 C 
HETATM   21  C3  UNL     1      28.348   0.341  54.771  1.00  0.00    -0.027 C 
BRANCH  21  22
HETATM   22  C2  UNL     1      29.313   0.308  53.659  1.00  0.00     0.022 C 
HETATM   23  C1  UNL     1      29.995  -1.053  53.672  1.00  0.00     0.009 C 
ENDBRANCH  21  22
ENDBRANCH  19  20
ENDBRANCH  17  18
ENDBRANCH  15  17
ENDBRANCH   1  15
TORSDOF 5
ENDMDL
MODEL 9
REMARK VINA RESULT:      -6.5      4.329      5.656
REMARK  5 active torsions:
REMARK  status: ('A' for Active; 'I' for Inactive)
REMARK    1  A    between atoms: C2_2  and  C3_3 
REMARK    2  A    between atoms: C4_4  and  C5_5 
REMARK    3  A    between atoms: C6_6  and  C7_7 
REMARK    4  A    between atoms: C7_7  and  N1_8 
REMARK    5  A    between atoms: N1_8  and  C8_9 
ROOT
HETATM    1  C8  UNL     1      24.629   2.851  51.307  1.00  0.00     0.133 A 
HETATM    2  N2  UNL     1      23.970   2.721  50.126  1.00  0.00    -0.224 NA
HETATM    3  C9  UNL     1      22.817   2.049  50.124  1.00  0.00     0.235 A 
HETATM    4  N3  UNL     1      22.442   1.573  51.312  1.00  0.00    -0.246 NA
HETATM    5  C10 UNL     1      23.071   1.687  52.489  1.00  0.00     0.048 A 
HETATM    6  C11 UNL     1      24.258   2.361  52.581  1.00  0.00     0.014 A 
HETATM    7  C12 UNL     1      25.323   2.771  53.503  1.00  0.00     0.071 C 
HETATM    8  C13 UNL     1      26.453   1.724  53.499  1.00  0.00     0.172 C 
HETATM    9  O1  UNL     1      26.144   0.662  54.278  1.00  0.00    -0.389 OA
HETATM   10  C14 UNL     1      25.003  -0.005  54.183  1.00  0.00     0.193 C 
HETATM   11  C15 UNL     1      24.561  -0.803  53.023  1.00  0.00     0.193 C 
HETATM   12  O2  UNL     1      23.295  -1.276  53.314  1.00  0.00    -0.389 OA
HETATM   13  C16 UNL     1      22.214  -0.541  53.066  1.00  0.00     0.173 C 
HETATM   14  C17 UNL     1      22.157   0.903  53.392  1.00  0.00     0.086 C 
ENDROOT
BRANCH   1  15
HETATM   15  N1  UNL     1      25.846   3.565  51.011  1.00  0.00    -0.371 N 
HETATM   16  H12 UNL     1      26.388   4.073  51.706  1.00  0.00     0.161 HD
BRANCH  15  17
HETATM   17  C7  UNL     1      26.505   3.671  49.727  1.00  0.00     0.148 C 
BRANCH  17  18
HETATM   18  C6  UNL     1      26.367   5.015  49.164  1.00  0.00    -0.007 C 
HETATM   19  C5  UNL     1      27.279   5.754  48.555  1.00  0.00    -0.003 C 
BRANCH  19  20
HETATM   20  C4  UNL     1      28.631   5.291  48.355  1.00  0.00    -0.004 C 
HETATM   21  C3  UNL     1      29.584   6.102  47.926  1.00  0.00    -0.027 C 
BRANCH  21  22
HETATM   22  C2  UNL     1      29.511   7.531  47.580  1.00  0.00     0.022 C 
HETATM   23  C1  UNL     1      30.020   8.327  48.774  1.00  0.00     0.009 C 
ENDBRANCH  21  22
ENDBRANCH  19  20
ENDBRANCH  17  18
ENDBRANCH  15  17
ENDBRANCH   1  15
TORSDOF 5
ENDMDL
