MODEL 1
REMARK VINA RESULT:      -7.4      0.000      0.000
REMARK  8 active torsions:
REMARK  status: ('A' for Active; 'I' for Inactive)
REMARK    1  A    between atoms: C2_3  and  C3_4 
REMARK    2  A    between atoms: C3_4  and  C4_5 
REMARK    3  A    between atoms: C7_8  and  N2_9 
REMARK    4  A    between atoms: N2_9  and  C8_10 
REMARK    5  A    between atoms: C8_10  and  C9_11 
REMARK    6  A    between atoms: C11_14  and  C12_15 
REMARK    7  A    between atoms: C12_15  and  N3_16 
REMARK    8  A    between atoms: N3_16  and  C13_17 
ROOT
HETATM    1  N1  UNL     1      19.775   3.042  52.302  1.00  0.00    -0.197 NA
HETATM    2  C1  UNL     1      20.223   2.082  52.736  1.00  0.00     0.059 C 
HETATM    3  C2  UNL     1      20.790   0.857  53.286  1.00  0.00     0.128 C 
ENDROOT
BRANCH   3   4
HETATM    4  C3  UNL     1      21.894   0.341  52.390  1.00  0.00     0.053 C 
BRANCH   4   5
HETATM    5  C4  UNL     1      23.213   0.277  52.997  1.00  0.00    -0.049 A 
HETATM    6  C5  UNL     1      23.397  -0.661  54.000  1.00  0.00     0.010 A 
HETATM    7  C6  UNL     1      24.595  -0.864  54.661  1.00  0.00     0.029 A 
HETATM    8  C7  UNL     1      25.701  -0.110  54.332  1.00  0.00     0.028 A 
HETATM    9  C10 UNL     1      25.493   0.818  53.331  1.00  0.00     0.038 A 
HETATM   10  C11 UNL     1      24.300   1.043  52.651  1.00  0.00    -0.032 A 
BRANCH   8  11
HETATM   11  N2  UNL     1      26.970  -0.254  54.952  1.00  0.00    -0.384 N 
HETATM   12  H7  UNL     1      27.045  -0.901  55.767  1.00  0.00     0.160 HD
BRANCH  11  13
HETATM   13  C8  UNL     1      28.113   0.471  54.472  1.00  0.00     0.189 C 
BRANCH  13  14
HETATM   14  C9  UNL     1      29.271  -0.417  54.152  1.00  0.00     0.250 C 
HETATM   15  O1  UNL     1      30.178  -0.824  53.435  1.00  0.00    -0.305 OA
ENDBRANCH  13  14
ENDBRANCH  11  13
ENDBRANCH   8  11
BRANCH  10  16
HETATM   16  C12 UNL     1      24.193   2.060  51.625  1.00  0.00     0.159 C 
BRANCH  16  17
HETATM   17  N3  UNL     1      25.486   2.331  50.972  1.00  0.00    -0.386 N 
HETATM   18  H14 UNL     1      26.181   1.568  51.008  1.00  0.00     0.160 HD
BRANCH  17  19
HETATM   19  C13 UNL     1      25.774   3.562  50.328  1.00  0.00     0.029 A 
HETATM   20  C14 UNL     1      26.778   3.730  49.412  1.00  0.00     0.029 A 
HETATM   21  C15 UNL     1      26.986   4.980  48.825  1.00  0.00     0.004 A 
HETATM   22  C16 UNL     1      26.202   6.063  49.143  1.00  0.00     0.019 A 
HETATM   23  C17 UNL     1      25.188   5.902  50.064  1.00  0.00     0.013 A 
HETATM   24 BR1  UNL     1      24.023   7.333  50.592  1.00  0.00    -0.051 Br
HETATM   25  C18 UNL     1      25.004   4.658  50.630  1.00  0.00     0.048 A 
ENDBRANCH  17  19
ENDBRANCH  16  17
ENDBRANCH  10  16
ENDBRANCH   4   5
ENDBRANCH   3   4
TORSDOF 8
ENDMDL
MODEL 2
REMARK VINA RESULT:      -7.1      2.400      2.684
REMARK  8 active torsions:
REMARK  status: ('A' for Active; 'I' for Inactive)
REMARK    1  A    between atoms: C2_3  and  C3_4 
REMARK    2  A    between atoms: C3_4  and  C4_5 
REMARK    3  A    between atoms: C7_8  and  N2_9 
REMARK    4  A    between atoms: N2_9  and  C8_10 
REMARK    5  A    between atoms: C8_10  and  C9_11 
REMARK    6  A    between atoms: C11_14  and  C12_15 
REMARK    7  A    between atoms: C12_15  and  N3_16 
REMARK    8  A    between atoms: N3_16  and  C13_17 
ROOT
HETATM    1  N1  UNL     1      21.205  -1.572  54.835  1.00  0.00    -0.197 NA
HETATM    2  C1  UNL     1      21.311  -0.591  54.253  1.00  0.00     0.059 C 
HETATM    3  C2  UNL     1      21.449   0.659  53.517  1.00  0.00     0.128 C 
ENDROOT
BRANCH   3   4
HETATM    4  C3  UNL     1      22.599   0.568  52.538  1.00  0.00     0.053 C 
BRANCH   4   5
HETATM    5  C4  UNL     1      23.924   0.520  53.133  1.00  0.00    -0.049 A 
HETATM    6  C5  UNL     1      24.422  -0.733  53.454  1.00  0.00     0.010 A 
HETATM    7  C6  UNL     1      25.672  -0.952  54.003  1.00  0.00     0.029 A 
HETATM    8  C7  UNL     1      26.508   0.113  54.263  1.00  0.00     0.028 A 
HETATM    9  C10 UNL     1      25.990   1.350  53.936  1.00  0.00     0.038 A 
HETATM   10  C11 UNL     1      24.737   1.598  53.383  1.00  0.00    -0.032 A 
BRANCH   8  11
HETATM   11  N2  UNL     1      27.808  -0.018  54.819  1.00  0.00    -0.384 N 
HETATM   12  H7  UNL     1      27.890  -0.408  55.784  1.00  0.00     0.160 HD
BRANCH  11  13
HETATM   13  C8  UNL     1      28.973   0.376  54.076  1.00  0.00     0.189 C 
BRANCH  13  14
HETATM   14  C9  UNL     1      29.483   1.724  54.470  1.00  0.00     0.250 C 
HETATM   15  O1  UNL     1      30.060   2.503  55.219  1.00  0.00    -0.305 OA
ENDBRANCH  13  14
ENDBRANCH  11  13
ENDBRANCH   8  11
BRANCH  10  16
HETATM   16  C12 UNL     1      24.289   2.946  53.096  1.00  0.00     0.159 C 
BRANCH  16  17
HETATM   17  N3  UNL     1      25.031   3.552  51.976  1.00  0.00    -0.386 N 
HETATM   18  H14 UNL     1      26.033   3.736  52.142  1.00  0.00     0.160 HD
BRANCH  17  19
HETATM   19  C13 UNL     1      24.418   3.870  50.737  1.00  0.00     0.029 A 
HETATM   20  C14 UNL     1      24.613   5.048  50.066  1.00  0.00     0.029 A 
HETATM   21  C15 UNL     1      23.969   5.274  48.848  1.00  0.00     0.004 A 
HETATM   22  C16 UNL     1      23.134   4.335  48.291  1.00  0.00     0.019 A 
HETATM   23  C17 UNL     1      22.932   3.146  48.960  1.00  0.00     0.013 A 
HETATM   24 BR1  UNL     1      21.792   1.754  48.290  1.00  0.00    -0.051 Br
HETATM   25  C18 UNL     1      23.579   2.948  50.161  1.00  0.00     0.048 A 
ENDBRANCH  17  19
ENDBRANCH  16  17
ENDBRANCH  10  16
ENDBRANCH   4   5
ENDBRANCH   3   4
TORSDOF 8
ENDMDL
MODEL 3
REMARK VINA RESULT:      -7.1      3.694      5.846
REMARK  8 active torsions:
REMARK  status: ('A' for Active; 'I' for Inactive)
REMARK    1  A    between atoms: C2_3  and  C3_4 
REMARK    2  A    between atoms: C3_4  and  C4_5 
REMARK    3  A    between atoms: C7_8  and  N2_9 
REMARK    4  A    between atoms: N2_9  and  C8_10 
REMARK    5  A    between atoms: C8_10  and  C9_11 
REMARK    6  A    between atoms: C11_14  and  C12_15 
REMARK    7  A    between atoms: C12_15  and  N3_16 
REMARK    8  A    between atoms: N3_16  and  C13_17 
ROOT
HETATM    1  N1  UNL     1      21.736  -1.812  54.801  1.00  0.00    -0.197 NA
HETATM    2  C1  UNL     1      21.273  -0.858  54.368  1.00  0.00     0.059 C 
HETATM    3  C2  UNL     1      20.688   0.359  53.821  1.00  0.00     0.128 C 
ENDROOT
BRANCH   3   4
HETATM    4  C3  UNL     1      21.347   0.713  52.506  1.00  0.00     0.053 C 
BRANCH   4   5
HETATM    5  C4  UNL     1      22.071   1.973  52.488  1.00  0.00    -0.049 A 
HETATM    6  C5  UNL     1      21.351   3.105  52.140  1.00  0.00     0.010 A 
HETATM    7  C6  UNL     1      21.885   4.380  52.098  1.00  0.00     0.029 A 
HETATM    8  C7  UNL     1      23.211   4.584  52.416  1.00  0.00     0.028 A 
HETATM    9  C10 UNL     1      23.908   3.442  52.758  1.00  0.00     0.038 A 
HETATM   10  C11 UNL     1      23.395   2.149  52.808  1.00  0.00    -0.032 A 
BRANCH   8  11
HETATM   11  N2  UNL     1      23.841   5.857  52.405  1.00  0.00    -0.384 N 
HETATM   12  H7  UNL     1      23.975   6.343  53.319  1.00  0.00     0.160 HD
BRANCH  11  13
HETATM   13  C8  UNL     1      24.279   6.454  51.174  1.00  0.00     0.189 C 
BRANCH  13  14
HETATM   14  C9  UNL     1      24.483   5.452  50.085  1.00  0.00     0.250 C 
HETATM   15  O1  UNL     1      24.102   4.741  49.163  1.00  0.00    -0.305 OA
ENDBRANCH  13  14
ENDBRANCH  11  13
ENDBRANCH   8  11
BRANCH  10  16
HETATM   16  C12 UNL     1      24.227   1.018  53.166  1.00  0.00     0.159 C 
BRANCH  16  17
HETATM   17  N3  UNL     1      25.404   0.893  52.287  1.00  0.00    -0.386 N 
HETATM   18  H14 UNL     1      25.208   0.755  51.283  1.00  0.00     0.160 HD
BRANCH  17  19
HETATM   19  C13 UNL     1      26.733   0.955  52.778  1.00  0.00     0.029 A 
HETATM   20  C14 UNL     1      27.350   2.111  53.175  1.00  0.00     0.029 A 
HETATM   21  C15 UNL     1      28.663   2.077  53.650  1.00  0.00     0.004 A 
HETATM   22  C16 UNL     1      29.367   0.899  53.733  1.00  0.00     0.019 A 
HETATM   23  C17 UNL     1      28.753  -0.271  53.335  1.00  0.00     0.013 A 
HETATM   24 BR1  UNL     1      29.625  -1.979  53.403  1.00  0.00    -0.051 Br
HETATM   25  C18 UNL     1      27.457  -0.210  52.870  1.00  0.00     0.048 A 
ENDBRANCH  17  19
ENDBRANCH  16  17
ENDBRANCH  10  16
ENDBRANCH   4   5
ENDBRANCH   3   4
TORSDOF 8
ENDMDL
MODEL 4
REMARK VINA RESULT:      -7.0      4.080      7.973
REMARK  8 active torsions:
REMARK  status: ('A' for Active; 'I' for Inactive)
REMARK    1  A    between atoms: C2_3  and  C3_4 
REMARK    2  A    between atoms: C3_4  and  C4_5 
REMARK    3  A    between atoms: C7_8  and  N2_9 
REMARK    4  A    between atoms: N2_9  and  C8_10 
REMARK    5  A    between atoms: C8_10  and  C9_11 
REMARK    6  A    between atoms: C11_14  and  C12_15 
REMARK    7  A    between atoms: C12_15  and  N3_16 
REMARK    8  A    between atoms: N3_16  and  C13_17 
ROOT
HETATM    1  N1  UNL     1      30.966   5.890  48.108  1.00  0.00    -0.197 NA
HETATM    2  C1  UNL     1      29.824   5.970  48.136  1.00  0.00     0.059 C 
HETATM    3  C2  UNL     1      28.371   6.070  48.167  1.00  0.00     0.128 C 
ENDROOT
BRANCH   3   4
HETATM    4  C3  UNL     1      27.763   4.762  48.624  1.00  0.00     0.053 C 
BRANCH   4   5
HETATM    5  C4  UNL     1      26.393   4.841  49.100  1.00  0.00    -0.049 A 
HETATM    6  C5  UNL     1      25.644   5.928  48.678  1.00  0.00     0.010 A 
HETATM    7  C6  UNL     1      24.321   6.138  49.021  1.00  0.00     0.029 A 
HETATM    8  C7  UNL     1      23.666   5.234  49.830  1.00  0.00     0.028 A 
HETATM    9  C10 UNL     1      24.433   4.160  50.239  1.00  0.00     0.038 A 
HETATM   10  C11 UNL     1      25.764   3.926  49.909  1.00  0.00    -0.032 A 
BRANCH   8  11
HETATM   11  N2  UNL     1      22.309   5.365  50.229  1.00  0.00    -0.384 N 
HETATM   12  H7  UNL     1      21.579   5.359  49.483  1.00  0.00     0.160 HD
BRANCH  11  13
HETATM   13  C8  UNL     1      21.956   5.503  51.614  1.00  0.00     0.189 C 
BRANCH  13  14
HETATM   14  C9  UNL     1      21.191   4.330  52.136  1.00  0.00     0.250 C 
HETATM   15  O1  UNL     1      20.211   3.598  52.195  1.00  0.00    -0.305 OA
ENDBRANCH  13  14
ENDBRANCH  11  13
ENDBRANCH   8  11
BRANCH  10  16
HETATM   16  C12 UNL     1      26.476   2.769  50.412  1.00  0.00     0.159 C 
BRANCH  16  17
HETATM   17  N3  UNL     1      26.540   2.751  51.884  1.00  0.00    -0.386 N 
HETATM   18  H14 UNL     1      25.941   3.435  52.373  1.00  0.00     0.160 HD
BRANCH  17  19
HETATM   19  C13 UNL     1      27.370   1.852  52.602  1.00  0.00     0.029 A 
HETATM   20  C14 UNL     1      28.358   2.245  53.465  1.00  0.00     0.029 A 
HETATM   21  C15 UNL     1      29.126   1.288  54.132  1.00  0.00     0.004 A 
HETATM   22  C16 UNL     1      28.917  -0.058  53.947  1.00  0.00     0.019 A 
HETATM   23  C17 UNL     1      27.924  -0.462  53.080  1.00  0.00     0.013 A 
HETATM   24 BR1  UNL     1      27.531  -2.309  52.735  1.00  0.00    -0.051 Br
HETATM   25  C18 UNL     1      27.181   0.502  52.433  1.00  0.00     0.048 A 
ENDBRANCH  17  19
ENDBRANCH  16  17
ENDBRANCH  10  16
ENDBRANCH   4   5
ENDBRANCH   3   4
TORSDOF 8
ENDMDL
MODEL 5
REMARK VINA RESULT:      -6.9      3.048      5.549
REMARK  8 active torsions:
REMARK  status: ('A' for Active; 'I' for Inactive)
REMARK    1  A    between atoms: C2_3  and  C3_4 
REMARK    2  A    between atoms: C3_4  and  C4_5 
REMARK    3  A    between atoms: C7_8  and  N2_9 
REMARK    4  A    between atoms: N2_9  and  C8_10 
REMARK    5  A    between atoms: C8_10  and  C9_11 
REMARK    6  A    between atoms: C11_14  and  C12_15 
REMARK    7  A    between atoms: C12_15  and  N3_16 
REMARK    8  A    between atoms: N3_16  and  C13_17 
ROOT
HETATM    1  N1  UNL     1      29.889  -0.508  53.792  1.00  0.00    -0.197 NA
HETATM    2  C1  UNL     1      28.816  -0.713  53.444  1.00  0.00     0.059 C 
HETATM    3  C2  UNL     1      27.451  -0.971  53.006  1.00  0.00     0.128 C 
ENDROOT
BRANCH   3   4
HETATM    4  C3  UNL     1      26.910   0.218  52.243  1.00  0.00     0.053 C 
BRANCH   4   5
HETATM    5  C4  UNL     1      25.491   0.478  52.413  1.00  0.00    -0.049 A 
HETATM    6  C5  UNL     1      24.799  -0.361  53.273  1.00  0.00     0.010 A 
HETATM    7  C6  UNL     1      23.452  -0.234  53.561  1.00  0.00     0.029 A 
HETATM    8  C7  UNL     1      22.714   0.774  52.980  1.00  0.00     0.028 A 
HETATM    9  C10 UNL     1      23.424   1.596  52.127  1.00  0.00     0.038 A 
HETATM   10  C11 UNL     1      24.777   1.490  51.820  1.00  0.00    -0.032 A 
BRANCH   8  11
HETATM   11  N2  UNL     1      21.330   0.983  53.222  1.00  0.00    -0.384 N 
HETATM   12  H7  UNL     1      21.021   1.113  54.210  1.00  0.00     0.160 HD
BRANCH  11  13
HETATM   13  C8  UNL     1      20.387   1.013  52.138  1.00  0.00     0.189 C 
BRANCH  13  14
HETATM   14  C9  UNL     1      19.786   2.364  51.930  1.00  0.00     0.250 C 
HETATM   15  O1  UNL     1      19.380   3.455  52.312  1.00  0.00    -0.305 OA
ENDBRANCH  13  14
ENDBRANCH  11  13
ENDBRANCH   8  11
BRANCH  10  16
HETATM   16  C12 UNL     1      25.417   2.402  50.893  1.00  0.00     0.159 C 
BRANCH  16  17
HETATM   17  N3  UNL     1      24.560   3.556  50.566  1.00  0.00    -0.386 N 
HETATM   18  H14 UNL     1      23.605   3.538  50.958  1.00  0.00     0.160 HD
BRANCH  17  19
HETATM   19  C13 UNL     1      25.006   4.634  49.760  1.00  0.00     0.029 A 
HETATM   20  C14 UNL     1      24.189   5.627  49.289  1.00  0.00     0.029 A 
HETATM   21  C15 UNL     1      24.717   6.654  48.503  1.00  0.00     0.004 A 
HETATM   22  C16 UNL     1      26.053   6.701  48.185  1.00  0.00     0.019 A 
HETATM   23  C17 UNL     1      26.883   5.705  48.656  1.00  0.00     0.013 A 
HETATM   24 BR1  UNL     1      28.766   5.655  48.284  1.00  0.00    -0.051 Br
HETATM   25  C18 UNL     1      26.337   4.702  49.428  1.00  0.00     0.048 A 
ENDBRANCH  17  19
ENDBRANCH  16  17
ENDBRANCH  10  16
ENDBRANCH   4   5
ENDBRANCH   3   4
TORSDOF 8
ENDMDL
MODEL 6
REMARK VINA RESULT:      -6.8      2.822      5.995
REMARK  8 active torsions:
REMARK  status: ('A' for Active; 'I' for Inactive)
REMARK    1  A    between atoms: C2_3  and  C3_4 
REMARK    2  A    between atoms: C3_4  and  C4_5 
REMARK    3  A    between atoms: C7_8  and  N2_9 
REMARK    4  A    between atoms: N2_9  and  C8_10 
REMARK    5  A    between atoms: C8_10  and  C9_11 
REMARK    6  A    between atoms: C11_14  and  C12_15 
REMARK    7  A    between atoms: C12_15  and  N3_16 
REMARK    8  A    between atoms: N3_16  and  C13_17 
ROOT
HETATM    1  N1  UNL     1      24.767   6.753  49.027  1.00  0.00    -0.197 NA
HETATM    2  C1  UNL     1      25.297   5.751  49.193  1.00  0.00     0.059 C 
HETATM    3  C2  UNL     1      25.974   4.479  49.409  1.00  0.00     0.128 C 
ENDROOT
BRANCH   3   4
HETATM    4  C3  UNL     1      25.000   3.450  49.940  1.00  0.00     0.053 C 
BRANCH   4   5
HETATM    5  C4  UNL     1      25.505   2.604  51.009  1.00  0.00    -0.049 A 
HETATM    6  C5  UNL     1      26.849   2.725  51.322  1.00  0.00     0.010 A 
HETATM    7  C6  UNL     1      27.478   2.011  52.326  1.00  0.00     0.029 A 
HETATM    8  C7  UNL     1      26.761   1.112  53.087  1.00  0.00     0.028 A 
HETATM    9  C10 UNL     1      25.424   1.008  52.755  1.00  0.00     0.038 A 
HETATM   10  C11 UNL     1      24.768   1.714  51.751  1.00  0.00    -0.032 A 
BRANCH   8  11
HETATM   11  N2  UNL     1      27.321   0.341  54.139  1.00  0.00    -0.384 N 
HETATM   12  H7  UNL     1      26.691   0.046  54.917  1.00  0.00     0.160 HD
BRANCH  11  13
HETATM   13  C8  UNL     1      28.711  -0.019  54.132  1.00  0.00     0.189 C 
BRANCH  13  14
HETATM   14  C9  UNL     1      28.962  -1.350  53.500  1.00  0.00     0.250 C 
HETATM   15  O1  UNL     1      28.683  -2.517  53.252  1.00  0.00    -0.305 OA
ENDBRANCH  13  14
ENDBRANCH  11  13
ENDBRANCH   8  11
BRANCH  10  16
HETATM   16  C12 UNL     1      23.360   1.510  51.479  1.00  0.00     0.159 C 
BRANCH  16  17
HETATM   17  N3  UNL     1      22.538   1.596  52.699  1.00  0.00    -0.386 N 
HETATM   18  H14 UNL     1      22.548   2.505  53.189  1.00  0.00     0.160 HD
BRANCH  17  19
HETATM   19  C13 UNL     1      21.775   0.504  53.185  1.00  0.00     0.029 A 
HETATM   20  C14 UNL     1      22.252  -0.434  54.062  1.00  0.00     0.029 A 
HETATM   21  C15 UNL     1      21.426  -1.475  54.490  1.00  0.00     0.004 A 
HETATM   22  C16 UNL     1      20.128  -1.590  54.053  1.00  0.00     0.019 A 
HETATM   23  C17 UNL     1      19.640  -0.650  53.170  1.00  0.00     0.013 A 
HETATM   24 BR1  UNL     1      17.847  -0.696  52.485  1.00  0.00    -0.051 Br
HETATM   25  C18 UNL     1      20.475   0.368  52.762  1.00  0.00     0.048 A 
ENDBRANCH  17  19
ENDBRANCH  16  17
ENDBRANCH  10  16
ENDBRANCH   4   5
ENDBRANCH   3   4
TORSDOF 8
ENDMDL
MODEL 7
REMARK VINA RESULT:      -6.8      2.264      2.717
REMARK  8 active torsions:
REMARK  status: ('A' for Active; 'I' for Inactive)
REMARK    1  A    between atoms: C2_3  and  C3_4 
REMARK    2  A    between atoms: C3_4  and  C4_5 
REMARK    3  A    between atoms: C7_8  and  N2_9 
REMARK    4  A    between atoms: N2_9  and  C8_10 
REMARK    5  A    between atoms: C8_10  and  C9_11 
REMARK    6  A    between atoms: C11_14  and  C12_15 
REMARK    7  A    between atoms: C12_15  and  N3_16 
REMARK    8  A    between atoms: N3_16  and  C13_17 
ROOT
HETATM    1  N1  UNL     1      21.489   1.557  48.224  1.00  0.00    -0.197 NA
HETATM    2  C1  UNL     1      21.531   1.167  49.301  1.00  0.00     0.059 C 
HETATM    3  C2  UNL     1      21.589   0.670  50.669  1.00  0.00     0.128 C 
ENDROOT
BRANCH   3   4
HETATM    4  C3  UNL     1      21.632   1.825  51.646  1.00  0.00     0.053 C 
BRANCH   4   5
HETATM    5  C4  UNL     1      22.913   2.050  52.293  1.00  0.00    -0.049 A 
HETATM    6  C5  UNL     1      23.654   0.926  52.623  1.00  0.00     0.010 A 
HETATM    7  C6  UNL     1      24.901   0.968  53.220  1.00  0.00     0.029 A 
HETATM    8  C7  UNL     1      25.480   2.181  53.524  1.00  0.00     0.028 A 
HETATM    9  C10 UNL     1      24.723   3.286  53.187  1.00  0.00     0.038 A 
HETATM   10  C11 UNL     1      23.468   3.271  52.587  1.00  0.00    -0.032 A 
BRANCH   8  11
HETATM   11  N2  UNL     1      26.756   2.320  54.131  1.00  0.00    -0.384 N 
HETATM   12  H7  UNL     1      26.806   2.794  55.059  1.00  0.00     0.160 HD
BRANCH  11  13
HETATM   13  C8  UNL     1      27.940   1.823  53.486  1.00  0.00     0.189 C 
BRANCH  13  14
HETATM   14  C9  UNL     1      28.563   0.680  54.219  1.00  0.00     0.250 C 
HETATM   15  O1  UNL     1      28.558  -0.442  54.711  1.00  0.00    -0.305 OA
ENDBRANCH  13  14
ENDBRANCH  11  13
ENDBRANCH   8  11
BRANCH  10  16
HETATM   16  C12 UNL     1      22.755   4.498  52.293  1.00  0.00     0.159 C 
BRANCH  16  17
HETATM   17  N3  UNL     1      23.663   5.650  52.149  1.00  0.00    -0.386 N 
HETATM   18  H14 UNL     1      23.887   6.162  53.017  1.00  0.00     0.160 HD
BRANCH  17  19
HETATM   19  C13 UNL     1      24.203   6.044  50.899  1.00  0.00     0.029 A 
HETATM   20  C14 UNL     1      23.857   5.476  49.701  1.00  0.00     0.029 A 
HETATM   21  C15 UNL     1      24.440   5.932  48.517  1.00  0.00     0.004 A 
HETATM   22  C16 UNL     1      25.364   6.950  48.515  1.00  0.00     0.019 A 
HETATM   23  C17 UNL     1      25.718   7.527  49.716  1.00  0.00     0.013 A 
HETATM   24 BR1  UNL     1      26.994   8.955  49.850  1.00  0.00    -0.051 Br
HETATM   25  C18 UNL     1      25.129   7.058  50.872  1.00  0.00     0.048 A 
ENDBRANCH  17  19
ENDBRANCH  16  17
ENDBRANCH  10  16
ENDBRANCH   4   5
ENDBRANCH   3   4
TORSDOF 8
ENDMDL
MODEL 8
REMARK VINA RESULT:      -6.8      3.188      5.245
REMARK  8 active torsions:
REMARK  status: ('A' for Active; 'I' for Inactive)
REMARK    1  A    between atoms: C2_3  and  C3_4 
REMARK    2  A    between atoms: C3_4  and  C4_5 
REMARK    3  A    between atoms: C7_8  and  N2_9 
REMARK    4  A    between atoms: N2_9  and  C8_10 
REMARK    5  A    between atoms: C8_10  and  C9_11 
REMARK    6  A    between atoms: C11_14  and  C12_15 
REMARK    7  A    between atoms: C12_15  and  N3_16 
REMARK    8  A    between atoms: N3_16  and  C13_17 
ROOT
HETATM    1  N1  UNL     1      23.475   6.138  50.831  1.00  0.00    -0.197 NA
HETATM    2  C1  UNL     1      23.625   5.301  51.598  1.00  0.00     0.059 C 
HETATM    3  C2  UNL     1      23.812   4.237  52.576  1.00  0.00     0.128 C 
ENDROOT
BRANCH   3   4
HETATM    4  C3  UNL     1      23.394   2.906  51.990  1.00  0.00     0.053 C 
BRANCH   4   5
HETATM    5  C4  UNL     1      24.307   1.802  52.230  1.00  0.00    -0.049 A 
HETATM    6  C5  UNL     1      25.586   1.922  51.710  1.00  0.00     0.010 A 
HETATM    7  C6  UNL     1      26.579   0.973  51.870  1.00  0.00     0.029 A 
HETATM    8  C7  UNL     1      26.326  -0.179  52.583  1.00  0.00     0.028 A 
HETATM    9  C10 UNL     1      25.045  -0.276  53.091  1.00  0.00     0.038 A 
HETATM   10  C11 UNL     1      24.028   0.663  52.945  1.00  0.00    -0.032 A 
BRANCH   8  11
HETATM   11  N2  UNL     1      27.285  -1.203  52.802  1.00  0.00    -0.384 N 
HETATM   12  H7  UNL     1      26.998  -2.189  52.617  1.00  0.00     0.160 HD
BRANCH  11  13
HETATM   13  C8  UNL     1      28.608  -0.889  53.265  1.00  0.00     0.189 C 
BRANCH  13  14
HETATM   14  C9  UNL     1      28.606  -0.026  54.484  1.00  0.00     0.250 C 
HETATM   15  O1  UNL     1      28.185   0.891  55.179  1.00  0.00    -0.305 OA
ENDBRANCH  13  14
ENDBRANCH  11  13
ENDBRANCH   8  11
BRANCH  10  16
HETATM   16  C12 UNL     1      22.711   0.446  53.509  1.00  0.00     0.159 C 
BRANCH  16  17
HETATM   17  N3  UNL     1      21.890  -0.451  52.676  1.00  0.00    -0.386 N 
HETATM   18  H14 UNL     1      22.064  -1.462  52.790  1.00  0.00     0.160 HD
BRANCH  17  19
HETATM   19  C13 UNL     1      20.914   0.032  51.767  1.00  0.00     0.029 A 
HETATM   20  C14 UNL     1      21.209   0.606  50.559  1.00  0.00     0.029 A 
HETATM   21  C15 UNL     1      20.181   1.050  49.726  1.00  0.00     0.004 A 
HETATM   22  C16 UNL     1      18.860   0.927  50.085  1.00  0.00     0.019 A 
HETATM   23  C17 UNL     1      18.553   0.350  51.299  1.00  0.00     0.013 A 
HETATM   24 BR1  UNL     1      16.751   0.118  51.917  1.00  0.00    -0.051 Br
HETATM   25  C18 UNL     1      19.587  -0.080  52.105  1.00  0.00     0.048 A 
ENDBRANCH  17  19
ENDBRANCH  16  17
ENDBRANCH  10  16
ENDBRANCH   4   5
ENDBRANCH   3   4
TORSDOF 8
ENDMDL
MODEL 9
REMARK VINA RESULT:      -6.8      3.843      7.336
REMARK  8 active torsions:
REMARK  status: ('A' for Active; 'I' for Inactive)
REMARK    1  A    between atoms: C2_3  and  C3_4 
REMARK    2  A    between atoms: C3_4  and  C4_5 
REMARK    3  A    between atoms: C7_8  and  N2_9 
REMARK    4  A    between atoms: N2_9  and  C8_10 
REMARK    5  A    between atoms: C8_10  and  C9_11 
REMARK    6  A    between atoms: C11_14  and  C12_15 
REMARK    7  A    between atoms: C12_15  and  N3_16 
REMARK    8  A    between atoms: N3_16  and  C13_17 
ROOT
HETATM    1  N1  UNL     1      22.282   4.872  46.754  1.00  0.00    -0.197 NA
HETATM    2  C1  UNL     1      22.765   5.496  47.585  1.00  0.00     0.059 C 
HETATM    3  C2  UNL     1      23.375   6.288  48.644  1.00  0.00     0.128 C 
ENDROOT
BRANCH   3   4
HETATM    4  C3  UNL     1      24.373   5.454  49.416  1.00  0.00     0.053 C 
BRANCH   4   5
HETATM    5  C4  UNL     1      25.755   5.574  48.986  1.00  0.00    -0.049 A 
HETATM    6  C5  UNL     1      26.140   6.791  48.446  1.00  0.00     0.010 A 
HETATM    7  C6  UNL     1      27.423   7.074  48.012  1.00  0.00     0.029 A 
HETATM    8  C7  UNL     1      28.410   6.117  48.102  1.00  0.00     0.028 A 
HETATM    9  C10 UNL     1      28.002   4.912  48.641  1.00  0.00     0.038 A 
HETATM   10  C11 UNL     1      26.720   4.602  49.086  1.00  0.00    -0.032 A 
BRANCH   8  11
HETATM   11  N2  UNL     1      29.752   6.321  47.686  1.00  0.00    -0.384 N 
HETATM   12  H7  UNL     1      30.036   5.949  46.754  1.00  0.00     0.160 HD
BRANCH  11  13
HETATM   13  C8  UNL     1      30.688   7.016  48.526  1.00  0.00     0.189 C 
BRANCH  13  14
HETATM   14  C9  UNL     1      31.838   6.159  48.944  1.00  0.00     0.250 C 
HETATM   15  O1  UNL     1      33.018   5.958  49.207  1.00  0.00    -0.305 OA
ENDBRANCH  13  14
ENDBRANCH  11  13
ENDBRANCH   8  11
BRANCH  10  16
HETATM   16  C12 UNL     1      26.401   3.293  49.620  1.00  0.00     0.159 C 
BRANCH  16  17
HETATM   17  N3  UNL     1      26.636   3.213  51.073  1.00  0.00    -0.386 N 
HETATM   18  H14 UNL     1      26.941   4.085  51.533  1.00  0.00     0.160 HD
BRANCH  17  19
HETATM   19  C13 UNL     1      26.458   2.014  51.810  1.00  0.00     0.029 A 
HETATM   20  C14 UNL     1      25.248   1.398  51.991  1.00  0.00     0.029 A 
HETATM   21  C15 UNL     1      25.168   0.217  52.730  1.00  0.00     0.004 A 
HETATM   22  C16 UNL     1      26.285  -0.358  53.291  1.00  0.00     0.019 A 
HETATM   23  C17 UNL     1      27.507   0.255  53.113  1.00  0.00     0.013 A 
HETATM   24 BR1  UNL     1      29.139  -0.445  53.841  1.00  0.00    -0.051 Br
HETATM   25  C18 UNL     1      27.559   1.422  52.380  1.00  0.00     0.048 A 
ENDBRANCH  17  19
ENDBRANCH  16  17
ENDBRANCH  10  16
ENDBRANCH   4   5
ENDBRANCH   3   4
TORSDOF 8
ENDMDL
