MODEL 1
REMARK VINA RESULT:     -10.7      0.000      0.000
REMARK  4 active torsions:
REMARK  status: ('A' for Active; 'I' for Inactive)
REMARK    1  A    between atoms: C7_8  and  N1_9 
REMARK    2  A    between atoms: N1_9  and  C8_10 
REMARK    3  A    between atoms: C9_12  and  N3_13 
REMARK    4  A    between atoms: C13_18  and  C14_19 
ROOT
HETATM    1  C8  UNL     1      22.713   1.929  52.200  1.00  0.00     0.157 A 
HETATM    2  N2  UNL     1      22.236   3.150  51.941  1.00  0.00    -0.045 NA
HETATM    3  C9  UNL     1      22.786   4.315  52.302  1.00  0.00     0.724 A 
HETATM    4  N4  UNL     1      23.938   4.264  52.997  1.00  0.00    -0.045 NA
HETATM    5  C10 UNL     1      24.518   3.088  53.320  1.00  0.00     0.153 A 
HETATM    6  C11 UNL     1      23.896   1.927  52.915  1.00  0.00     0.037 A 
HETATM    7  C12 UNL     1      24.737   0.788  53.397  1.00  0.00     0.072 C 
HETATM    8  C13 UNL     1      26.003   1.413  53.872  1.00  0.00     0.099 C 
HETATM    9  N5  UNL     1      25.701   2.822  54.029  1.00  0.00    -0.368 N 
HETATM   10  H20 UNL     1      26.255   3.529  54.571  1.00  0.00     0.161 HD
ENDROOT
BRANCH   1  11
HETATM   11  N1  UNL     1      22.132   0.701  51.820  1.00  0.00    -0.339 N 
HETATM   12  H7  UNL     1      22.760  -0.012  51.371  1.00  0.00     0.167 HD
BRANCH  11  13
HETATM   13  C7  UNL     1      20.786   0.298  51.966  1.00  0.00     0.039 A 
HETATM   14  C2  UNL     1      20.362  -0.392  53.106  1.00  0.00    -0.034 A 
HETATM   15  C1  UNL     1      21.369  -0.689  54.160  1.00  0.00     0.050 C 
HETATM   16  C3  UNL     1      19.053  -0.794  53.268  1.00  0.00     0.032 A 
HETATM   17  C4  UNL     1      18.093  -0.538  52.314  1.00  0.00     0.034 A 
HETATM   18 CL1  UNL     1      16.472  -1.102  52.644  1.00  0.00    -0.084 Cl
HETATM   19  C5  UNL     1      18.464   0.139  51.173  1.00  0.00     0.026 A 
HETATM   20  C6  UNL     1      19.782   0.522  51.051  1.00  0.00     0.032 A 
ENDBRANCH  11  13
ENDBRANCH   1  11
BRANCH   3  21
HETATM   21  N3  UNL     1      22.106   5.510  51.920  1.00  0.00    -0.231 N 
HETATM   22  H8  UNL     1      21.570   6.142  52.568  1.00  0.00     0.174 HD
HETATM   23  H9  UNL     1      22.200   5.693  50.891  1.00  0.00     0.174 HD
ENDBRANCH   3  21
BRANCH   8  24
HETATM   24  C14 UNL     1      27.140   1.222  52.882  1.00  0.00     0.065 A 
HETATM   25  C15 UNL     1      28.307   2.012  53.355  1.00  0.00    -0.014 A 
HETATM   26  C16 UNL     1      29.303   1.182  53.628  1.00  0.00     0.009 A 
HETATM   27  C17 UNL     1      28.943  -0.209  53.382  1.00  0.00    -0.029 A 
HETATM   28  C18 UNL     1      29.598  -1.418  53.505  1.00  0.00     0.012 A 
HETATM   29  C22 UNL     1      27.640  -0.180  52.933  1.00  0.00    -0.038 A 
HETATM   30  C19 UNL     1      28.895  -2.577  53.160  1.00  0.00     0.001 A 
HETATM   31  C20 UNL     1      27.583  -2.515  52.710  1.00  0.00     0.001 A 
HETATM   32  C21 UNL     1      26.924  -1.318  52.586  1.00  0.00     0.009 A 
ENDBRANCH   8  24
TORSDOF 4
ENDMDL
MODEL 2
REMARK VINA RESULT:     -10.2      4.186      7.742
REMARK  4 active torsions:
REMARK  status: ('A' for Active; 'I' for Inactive)
REMARK    1  A    between atoms: C7_8  and  N1_9 
REMARK    2  A    between atoms: N1_9  and  C8_10 
REMARK    3  A    between atoms: C9_12  and  N3_13 
REMARK    4  A    between atoms: C13_18  and  C14_19 
ROOT
HETATM    1  C8  UNL     1      26.442   2.680  51.238  1.00  0.00     0.157 A 
HETATM    2  N2  UNL     1      27.626   2.596  51.853  1.00  0.00    -0.045 NA
HETATM    3  C9  UNL     1      27.841   2.237  53.124  1.00  0.00     0.724 A 
HETATM    4  N4  UNL     1      26.764   1.927  53.868  1.00  0.00    -0.045 NA
HETATM    5  C10 UNL     1      25.514   1.976  53.358  1.00  0.00     0.153 A 
HETATM    6  C11 UNL     1      25.367   2.354  52.041  1.00  0.00     0.037 A 
HETATM    7  C12 UNL     1      23.902   2.324  51.738  1.00  0.00     0.072 C 
HETATM    8  C13 UNL     1      23.275   1.651  52.911  1.00  0.00     0.099 C 
HETATM    9  N5  UNL     1      24.275   1.696  53.959  1.00  0.00    -0.368 N 
HETATM   10  H20 UNL     1      24.119   1.549  54.986  1.00  0.00     0.161 HD
ENDROOT
BRANCH   1  11
HETATM   11  N1  UNL     1      26.217   3.061  49.899  1.00  0.00    -0.339 N 
HETATM   12  H7  UNL     1      25.759   2.355  49.267  1.00  0.00     0.167 HD
BRANCH  11  13
HETATM   13  C7  UNL     1      26.534   4.291  49.281  1.00  0.00     0.039 A 
HETATM   14  C2  UNL     1      25.550   5.261  49.065  1.00  0.00    -0.034 A 
HETATM   15  C1  UNL     1      24.161   4.960  49.504  1.00  0.00     0.050 C 
HETATM   16  C3  UNL     1      25.839   6.468  48.465  1.00  0.00     0.032 A 
HETATM   17  C4  UNL     1      27.113   6.783  48.045  1.00  0.00     0.034 A 
HETATM   18 CL1  UNL     1      27.343   8.346  47.299  1.00  0.00    -0.084 Cl
HETATM   19  C5  UNL     1      28.115   5.857  48.237  1.00  0.00     0.026 A 
HETATM   20  C6  UNL     1      27.783   4.663  48.840  1.00  0.00     0.032 A 
ENDBRANCH  11  13
ENDBRANCH   1  11
BRANCH   3  21
HETATM   21  N3  UNL     1      29.193   2.214  53.580  1.00  0.00    -0.231 N 
HETATM   22  H8  UNL     1      29.499   2.123  54.582  1.00  0.00     0.174 HD
HETATM   23  H9  UNL     1      29.870   2.301  52.782  1.00  0.00     0.174 HD
ENDBRANCH   3  21
BRANCH   8  24
HETATM   24  C14 UNL     1      22.893   0.212  52.605  1.00  0.00     0.065 A 
HETATM   25  C15 UNL     1      23.108  -0.597  53.833  1.00  0.00    -0.014 A 
HETATM   26  C16 UNL     1      21.943  -1.082  54.236  1.00  0.00     0.009 A 
HETATM   27  C17 UNL     1      20.847  -0.674  53.365  1.00  0.00    -0.029 A 
HETATM   28  C18 UNL     1      19.486  -0.902  53.346  1.00  0.00     0.012 A 
HETATM   29  C22 UNL     1      21.423   0.105  52.384  1.00  0.00    -0.038 A 
HETATM   30  C19 UNL     1      18.743  -0.320  52.313  1.00  0.00     0.001 A 
HETATM   31  C20 UNL     1      19.353   0.459  51.339  1.00  0.00     0.001 A 
HETATM   32  C21 UNL     1      20.706   0.691  51.351  1.00  0.00     0.009 A 
ENDBRANCH   8  24
TORSDOF 4
ENDMDL
MODEL 3
REMARK VINA RESULT:      -9.5      2.556      4.529
REMARK  4 active torsions:
REMARK  status: ('A' for Active; 'I' for Inactive)
REMARK    1  A    between atoms: C7_8  and  N1_9 
REMARK    2  A    between atoms: N1_9  and  C8_10 
REMARK    3  A    between atoms: C9_12  and  N3_13 
REMARK    4  A    between atoms: C13_18  and  C14_19 
ROOT
HETATM    1  C8  UNL     1      24.382   3.882  50.145  1.00  0.00     0.157 A 
HETATM    2  N2  UNL     1      25.387   4.225  49.333  1.00  0.00    -0.045 NA
HETATM    3  C9  UNL     1      26.690   3.999  49.534  1.00  0.00     0.724 A 
HETATM    4  N4  UNL     1      27.037   3.361  50.667  1.00  0.00    -0.045 NA
HETATM    5  C10 UNL     1      26.111   2.964  51.567  1.00  0.00     0.153 A 
HETATM    6  C11 UNL     1      24.787   3.230  51.295  1.00  0.00     0.037 A 
HETATM    7  C12 UNL     1      23.987   2.692  52.438  1.00  0.00     0.072 C 
HETATM    8  C13 UNL     1      24.948   1.880  53.237  1.00  0.00     0.099 C 
HETATM    9  N5  UNL     1      26.264   2.295  52.793  1.00  0.00    -0.368 N 
HETATM   10  H20 UNL     1      27.176   2.133  53.286  1.00  0.00     0.161 HD
ENDROOT
BRANCH   1  11
HETATM   11  N1  UNL     1      23.009   4.122  49.932  1.00  0.00    -0.339 N 
HETATM   12  H7  UNL     1      22.716   5.115  49.744  1.00  0.00     0.167 HD
BRANCH  11  13
HETATM   13  C7  UNL     1      21.953   3.184  49.940  1.00  0.00     0.039 A 
HETATM   14  C2  UNL     1      20.809   3.397  50.716  1.00  0.00    -0.034 A 
HETATM   15  C1  UNL     1      20.737   4.638  51.534  1.00  0.00     0.050 C 
HETATM   16  C3  UNL     1      19.767   2.494  50.737  1.00  0.00     0.032 A 
HETATM   17  C4  UNL     1      19.797   1.335  49.994  1.00  0.00     0.034 A 
HETATM   18 CL1  UNL     1      18.411   0.277  50.112  1.00  0.00    -0.084 Cl
HETATM   19  C5  UNL     1      20.904   1.083  49.214  1.00  0.00     0.026 A 
HETATM   20  C6  UNL     1      21.923   2.010  49.222  1.00  0.00     0.032 A 
ENDBRANCH  11  13
ENDBRANCH   1  11
BRANCH   3  21
HETATM   21  N3  UNL     1      27.598   4.453  48.532  1.00  0.00    -0.231 N 
HETATM   22  H8  UNL     1      27.709   4.036  47.573  1.00  0.00     0.174 HD
HETATM   23  H9  UNL     1      28.161   5.274  48.866  1.00  0.00     0.174 HD
ENDBRANCH   3  21
BRANCH   8  24
HETATM   24  C14 UNL     1      24.759   0.389  53.012  1.00  0.00     0.065 A 
HETATM   25  C15 UNL     1      25.566  -0.341  54.024  1.00  0.00    -0.014 A 
HETATM   26  C16 UNL     1      24.749  -1.038  54.801  1.00  0.00     0.009 A 
HETATM   27  C17 UNL     1      23.353  -0.870  54.421  1.00  0.00    -0.029 A 
HETATM   28  C18 UNL     1      22.152  -1.362  54.893  1.00  0.00     0.012 A 
HETATM   29  C22 UNL     1      23.362  -0.010  53.343  1.00  0.00    -0.038 A 
HETATM   30  C19 UNL     1      20.982  -0.957  54.242  1.00  0.00     0.001 A 
HETATM   31  C20 UNL     1      21.025  -0.089  53.159  1.00  0.00     0.001 A 
HETATM   32  C21 UNL     1      22.213   0.405  52.683  1.00  0.00     0.009 A 
ENDBRANCH   8  24
TORSDOF 4
ENDMDL
MODEL 4
REMARK VINA RESULT:      -9.2      3.056      7.695
REMARK  4 active torsions:
REMARK  status: ('A' for Active; 'I' for Inactive)
REMARK    1  A    between atoms: C7_8  and  N1_9 
REMARK    2  A    between atoms: N1_9  and  C8_10 
REMARK    3  A    between atoms: C9_12  and  N3_13 
REMARK    4  A    between atoms: C13_18  and  C14_19 
ROOT
HETATM    1  C8  UNL     1      24.210   2.578  51.532  1.00  0.00     0.157 A 
HETATM    2  N2  UNL     1      24.657   3.586  50.776  1.00  0.00    -0.045 NA
HETATM    3  C9  UNL     1      24.171   3.973  49.591  1.00  0.00     0.724 A 
HETATM    4  N4  UNL     1      23.125   3.284  49.100  1.00  0.00    -0.045 NA
HETATM    5  C10 UNL     1      22.585   2.243  49.771  1.00  0.00     0.153 A 
HETATM    6  C11 UNL     1      23.137   1.900  50.986  1.00  0.00     0.037 A 
HETATM    7  C12 UNL     1      22.361   0.732  51.506  1.00  0.00     0.072 C 
HETATM    8  C13 UNL     1      21.176   0.621  50.609  1.00  0.00     0.099 C 
HETATM    9  N5  UNL     1      21.508   1.405  49.436  1.00  0.00    -0.368 N 
HETATM   10  H20 UNL     1      21.039   1.366  48.498  1.00  0.00     0.161 HD
ENDROOT
BRANCH   1  11
HETATM   11  N1  UNL     1      24.725   2.171  52.780  1.00  0.00    -0.339 N 
HETATM   12  H7  UNL     1      24.140   2.370  53.631  1.00  0.00     0.167 HD
BRANCH  11  13
HETATM   13  C7  UNL     1      25.950   1.519  53.042  1.00  0.00     0.039 A 
HETATM   14  C2  UNL     1      25.978   0.186  53.465  1.00  0.00    -0.034 A 
HETATM   15  C1  UNL     1      24.681  -0.524  53.632  1.00  0.00     0.050 C 
HETATM   16  C3  UNL     1      27.163  -0.469  53.724  1.00  0.00     0.032 A 
HETATM   17  C4  UNL     1      28.383   0.155  53.582  1.00  0.00     0.034 A 
HETATM   18 CL1  UNL     1      29.808  -0.790  53.944  1.00  0.00    -0.084 Cl
HETATM   19  C5  UNL     1      28.404   1.469  53.167  1.00  0.00     0.026 A 
HETATM   20  C6  UNL     1      27.198   2.086  52.919  1.00  0.00     0.032 A 
ENDBRANCH  11  13
ENDBRANCH   1  11
BRANCH   3  21
HETATM   21  N3  UNL     1      24.802   5.081  48.952  1.00  0.00    -0.231 N 
HETATM   22  H8  UNL     1      25.840   5.217  48.847  1.00  0.00     0.174 HD
HETATM   23  H9  UNL     1      24.096   5.767  48.587  1.00  0.00     0.174 HD
ENDBRANCH   3  21
BRANCH   8  24
HETATM   24  C14 UNL     1      19.913   1.156  51.263  1.00  0.00     0.065 A 
HETATM   25  C15 UNL     1      18.922   1.447  50.194  1.00  0.00    -0.014 A 
HETATM   26  C16 UNL     1      17.869   0.662  50.361  1.00  0.00     0.009 A 
HETATM   27  C17 UNL     1      18.016  -0.217  51.514  1.00  0.00    -0.029 A 
HETATM   28  C18 UNL     1      17.231  -1.190  52.100  1.00  0.00     0.012 A 
HETATM   29  C22 UNL     1      19.248   0.084  52.055  1.00  0.00    -0.038 A 
HETATM   30  C19 UNL     1      17.733  -1.835  53.235  1.00  0.00     0.001 A 
HETATM   31  C20 UNL     1      18.978  -1.509  53.756  1.00  0.00     0.001 A 
HETATM   32  C21 UNL     1      19.765  -0.544  53.180  1.00  0.00     0.009 A 
ENDBRANCH   8  24
TORSDOF 4
ENDMDL
MODEL 5
REMARK VINA RESULT:      -9.1      4.498      6.798
REMARK  4 active torsions:
REMARK  status: ('A' for Active; 'I' for Inactive)
REMARK    1  A    between atoms: C7_8  and  N1_9 
REMARK    2  A    between atoms: N1_9  and  C8_10 
REMARK    3  A    between atoms: C9_12  and  N3_13 
REMARK    4  A    between atoms: C13_18  and  C14_19 
ROOT
HETATM    1  C8  UNL     1      23.014   2.830  51.091  1.00  0.00     0.157 A 
HETATM    2  N2  UNL     1      21.696   2.931  51.292  1.00  0.00    -0.045 NA
HETATM    3  C9  UNL     1      20.975   4.058  51.309  1.00  0.00     0.724 A 
HETATM    4  N4  UNL     1      21.633   5.214  51.102  1.00  0.00    -0.045 NA
HETATM    5  C10 UNL     1      22.966   5.241  50.888  1.00  0.00     0.153 A 
HETATM    6  C11 UNL     1      23.645   4.042  50.885  1.00  0.00     0.037 A 
HETATM    7  C12 UNL     1      25.085   4.354  50.628  1.00  0.00     0.072 C 
HETATM    8  C13 UNL     1      25.107   5.791  50.233  1.00  0.00     0.099 C 
HETATM    9  N5  UNL     1      23.828   6.325  50.655  1.00  0.00    -0.368 N 
HETATM   10  H20 UNL     1      23.575   7.337  50.773  1.00  0.00     0.161 HD
ENDROOT
BRANCH   1  11
HETATM   11  N1  UNL     1      23.773   1.641  51.075  1.00  0.00    -0.339 N 
HETATM   12  H7  UNL     1      23.542   0.931  50.335  1.00  0.00     0.167 HD
BRANCH  11  13
HETATM   13  C7  UNL     1      24.823   1.272  51.945  1.00  0.00     0.039 A 
HETATM   14  C2  UNL     1      24.561   0.601  53.144  1.00  0.00    -0.034 A 
HETATM   15  C1  UNL     1      23.145   0.289  53.477  1.00  0.00     0.050 C 
HETATM   16  C3  UNL     1      25.572   0.230  54.005  1.00  0.00     0.032 A 
HETATM   17  C4  UNL     1      26.894   0.502  53.730  1.00  0.00     0.034 A 
HETATM   18 CL1  UNL     1      28.076  -0.022  54.907  1.00  0.00    -0.084 Cl
HETATM   19  C5  UNL     1      27.200   1.162  52.560  1.00  0.00     0.026 A 
HETATM   20  C6  UNL     1      26.161   1.515  51.728  1.00  0.00     0.032 A 
ENDBRANCH  11  13
ENDBRANCH   1  11
BRANCH   3  21
HETATM   21  N3  UNL     1      19.573   3.938  51.544  1.00  0.00    -0.231 N 
HETATM   22  H8  UNL     1      19.068   4.258  52.409  1.00  0.00     0.174 HD
HETATM   23  H9  UNL     1      19.086   3.480  50.734  1.00  0.00     0.174 HD
ENDBRANCH   3  21
BRANCH   8  24
HETATM   24  C14 UNL     1      25.286   5.967  48.734  1.00  0.00     0.065 A 
HETATM   25  C15 UNL     1      24.738   7.295  48.353  1.00  0.00    -0.014 A 
HETATM   26  C16 UNL     1      25.722   8.044  47.878  1.00  0.00     0.009 A 
HETATM   27  C17 UNL     1      26.998   7.341  47.881  1.00  0.00    -0.029 A 
HETATM   28  C18 UNL     1      28.286   7.664  47.502  1.00  0.00     0.012 A 
HETATM   29  C22 UNL     1      26.732   6.091  48.397  1.00  0.00    -0.038 A 
HETATM   30  C19 UNL     1      29.276   6.689  47.663  1.00  0.00     0.001 A 
HETATM   31  C20 UNL     1      28.975   5.438  48.186  1.00  0.00     0.001 A 
HETATM   32  C21 UNL     1      27.698   5.108  48.565  1.00  0.00     0.009 A 
ENDBRANCH   8  24
TORSDOF 4
ENDMDL
MODEL 6
REMARK VINA RESULT:      -9.0      5.745      8.261
REMARK  4 active torsions:
REMARK  status: ('A' for Active; 'I' for Inactive)
REMARK    1  A    between atoms: C7_8  and  N1_9 
REMARK    2  A    between atoms: N1_9  and  C8_10 
REMARK    3  A    between atoms: C9_12  and  N3_13 
REMARK    4  A    between atoms: C13_18  and  C14_19 
ROOT
HETATM    1  C8  UNL     1      25.389   6.709  49.798  1.00  0.00     0.157 A 
HETATM    2  N2  UNL     1      24.415   7.617  49.681  1.00  0.00    -0.045 NA
HETATM    3  C9  UNL     1      23.098   7.387  49.736  1.00  0.00     0.724 A 
HETATM    4  N4  UNL     1      22.702   6.116  49.929  1.00  0.00    -0.045 NA
HETATM    5  C10 UNL     1      23.593   5.109  50.060  1.00  0.00     0.153 A 
HETATM    6  C11 UNL     1      24.934   5.419  49.992  1.00  0.00     0.037 A 
HETATM    7  C12 UNL     1      25.689   4.139  50.165  1.00  0.00     0.072 C 
HETATM    8  C13 UNL     1      24.669   3.140  50.591  1.00  0.00     0.099 C 
HETATM    9  N5  UNL     1      23.388   3.734  50.263  1.00  0.00    -0.368 N 
HETATM   10  H20 UNL     1      22.465   3.241  50.185  1.00  0.00     0.161 HD
ENDROOT
BRANCH   1  11
HETATM   11  N1  UNL     1      26.777   6.952  49.737  1.00  0.00    -0.339 N 
HETATM   12  H7  UNL     1      27.351   6.685  50.577  1.00  0.00     0.167 HD
BRANCH  11  13
HETATM   13  C7  UNL     1      27.512   7.522  48.674  1.00  0.00     0.039 A 
HETATM   14  C2  UNL     1      28.435   6.760  47.950  1.00  0.00    -0.034 A 
HETATM   15  C1  UNL     1      28.620   5.334  48.331  1.00  0.00     0.050 C 
HETATM   16  C3  UNL     1      29.161   7.297  46.908  1.00  0.00     0.032 A 
HETATM   17  C4  UNL     1      29.018   8.613  46.526  1.00  0.00     0.034 A 
HETATM   18 CL1  UNL     1      30.000   9.166  45.191  1.00  0.00    -0.084 Cl
HETATM   19  C5  UNL     1      28.120   9.402  47.212  1.00  0.00     0.026 A 
HETATM   20  C6  UNL     1      27.415   8.827  48.246  1.00  0.00     0.032 A 
ENDBRANCH  11  13
ENDBRANCH   1  11
BRANCH   3  21
HETATM   21  N3  UNL     1      22.229   8.509  49.587  1.00  0.00    -0.231 N 
HETATM   22  H8  UNL     1      21.333   8.519  49.036  1.00  0.00     0.174 HD
HETATM   23  H9  UNL     1      22.592   9.348  50.103  1.00  0.00     0.174 HD
ENDBRANCH   3  21
BRANCH   8  24
HETATM   24  C14 UNL     1      24.749   2.844  52.080  1.00  0.00     0.065 A 
HETATM   25  C15 UNL     1      23.366   2.657  52.592  1.00  0.00    -0.014 A 
HETATM   26  C16 UNL     1      23.238   1.416  53.037  1.00  0.00     0.009 A 
HETATM   27  C17 UNL     1      24.468   0.648  52.885  1.00  0.00    -0.029 A 
HETATM   28  C18 UNL     1      24.848  -0.645  53.182  1.00  0.00     0.012 A 
HETATM   29  C22 UNL     1      25.375   1.512  52.309  1.00  0.00    -0.038 A 
HETATM   30  C19 UNL     1      26.159  -1.024  52.877  1.00  0.00     0.001 A 
HETATM   31  C20 UNL     1      27.050  -0.131  52.297  1.00  0.00     0.001 A 
HETATM   32  C21 UNL     1      26.681   1.157  51.998  1.00  0.00     0.009 A 
ENDBRANCH   8  24
TORSDOF 4
ENDMDL
MODEL 7
REMARK VINA RESULT:      -9.0      4.232      6.315
REMARK  4 active torsions:
REMARK  status: ('A' for Active; 'I' for Inactive)
REMARK    1  A    between atoms: C7_8  and  N1_9 
REMARK    2  A    between atoms: N1_9  and  C8_10 
REMARK    3  A    between atoms: C9_12  and  N3_13 
REMARK    4  A    between atoms: C13_18  and  C14_19 
ROOT
HETATM    1  C8  UNL     1      22.586   3.005  50.909  1.00  0.00     0.157 A 
HETATM    2  N2  UNL     1      21.264   3.176  51.005  1.00  0.00    -0.045 NA
HETATM    3  C9  UNL     1      20.600   4.335  50.922  1.00  0.00     0.724 A 
HETATM    4  N4  UNL     1      21.327   5.449  50.721  1.00  0.00    -0.045 NA
HETATM    5  C10 UNL     1      22.673   5.405  50.608  1.00  0.00     0.153 A 
HETATM    6  C11 UNL     1      23.290   4.176  50.704  1.00  0.00     0.037 A 
HETATM    7  C12 UNL     1      24.759   4.411  50.546  1.00  0.00     0.072 C 
HETATM    8  C13 UNL     1      24.881   5.826  50.098  1.00  0.00     0.099 C 
HETATM    9  N5  UNL     1      23.602   6.437  50.400  1.00  0.00    -0.368 N 
HETATM   10  H20 UNL     1      23.391   7.463  50.458  1.00  0.00     0.161 HD
ENDROOT
BRANCH   1  11
HETATM   11  N1  UNL     1      23.284   1.783  50.998  1.00  0.00    -0.339 N 
HETATM   12  H7  UNL     1      23.713   1.407  50.115  1.00  0.00     0.167 HD
BRANCH  11  13
HETATM   13  C7  UNL     1      23.485   0.981  52.143  1.00  0.00     0.039 A 
HETATM   14  C2  UNL     1      24.775   0.675  52.589  1.00  0.00    -0.034 A 
HETATM   15  C1  UNL     1      25.928   1.218  51.823  1.00  0.00     0.050 C 
HETATM   16  C3  UNL     1      24.992  -0.105  53.705  1.00  0.00     0.032 A 
HETATM   17  C4  UNL     1      23.949  -0.626  54.440  1.00  0.00     0.034 A 
HETATM   18 CL1  UNL     1      24.363  -1.599  55.831  1.00  0.00    -0.084 Cl
HETATM   19  C5  UNL     1      22.660  -0.352  54.037  1.00  0.00     0.026 A 
HETATM   20  C6  UNL     1      22.488   0.432  52.917  1.00  0.00     0.032 A 
ENDBRANCH  11  13
ENDBRANCH   1  11
BRANCH   3  21
HETATM   21  N3  UNL     1      19.180   4.290  51.054  1.00  0.00    -0.231 N 
HETATM   22  H8  UNL     1      18.654   4.048  51.932  1.00  0.00     0.174 HD
HETATM   23  H9  UNL     1      18.702   4.530  50.150  1.00  0.00     0.174 HD
ENDBRANCH   3  21
BRANCH   8  24
HETATM   24  C14 UNL     1      25.179   5.930  48.611  1.00  0.00     0.065 A 
HETATM   25  C15 UNL     1      24.692   7.249  48.129  1.00  0.00    -0.014 A 
HETATM   26  C16 UNL     1      25.727   7.956  47.700  1.00  0.00     0.009 A 
HETATM   27  C17 UNL     1      26.983   7.230  47.835  1.00  0.00    -0.029 A 
HETATM   28  C18 UNL     1      28.303   7.511  47.544  1.00  0.00     0.012 A 
HETATM   29  C22 UNL     1      26.650   6.010  48.383  1.00  0.00    -0.038 A 
HETATM   30  C19 UNL     1      29.256   6.526  47.826  1.00  0.00     0.001 A 
HETATM   31  C20 UNL     1      28.888   5.307  48.379  1.00  0.00     0.001 A 
HETATM   32  C21 UNL     1      27.578   5.019  48.671  1.00  0.00     0.009 A 
ENDBRANCH   8  24
TORSDOF 4
ENDMDL
MODEL 8
REMARK VINA RESULT:      -8.9      3.113      7.507
REMARK  4 active torsions:
REMARK  status: ('A' for Active; 'I' for Inactive)
REMARK    1  A    between atoms: C7_8  and  N1_9 
REMARK    2  A    between atoms: N1_9  and  C8_10 
REMARK    3  A    between atoms: C9_12  and  N3_13 
REMARK    4  A    between atoms: C13_18  and  C14_19 
ROOT
HETATM    1  C8  UNL     1      23.272   1.189  52.875  1.00  0.00     0.157 A 
HETATM    2  N2  UNL     1      24.420   0.588  53.202  1.00  0.00    -0.045 NA
HETATM    3  C9  UNL     1      24.565  -0.480  53.994  1.00  0.00     0.724 A 
HETATM    4  N4  UNL     1      23.448  -1.014  54.520  1.00  0.00    -0.045 NA
HETATM    5  C10 UNL     1      22.227  -0.495  54.264  1.00  0.00     0.153 A 
HETATM    6  C11 UNL     1      22.153   0.607  53.439  1.00  0.00     0.037 A 
HETATM    7  C12 UNL     1      20.707   0.972  53.325  1.00  0.00     0.072 C 
HETATM    8  C13 UNL     1      19.968  -0.168  53.939  1.00  0.00     0.099 C 
HETATM    9  N5  UNL     1      20.956  -0.896  54.708  1.00  0.00    -0.368 N 
HETATM   10  H20 UNL     1      20.774  -1.600  55.465  1.00  0.00     0.161 HD
ENDROOT
BRANCH   1  11
HETATM   11  N1  UNL     1      23.120   2.317  52.041  1.00  0.00    -0.339 N 
HETATM   12  H7  UNL     1      23.631   3.193  52.319  1.00  0.00     0.167 HD
BRANCH  11  13
HETATM   13  C7  UNL     1      22.355   2.425  50.859  1.00  0.00     0.039 A 
HETATM   14  C2  UNL     1      21.525   3.529  50.638  1.00  0.00    -0.034 A 
HETATM   15  C1  UNL     1      21.470   4.584  51.685  1.00  0.00     0.050 C 
HETATM   16  C3  UNL     1      20.772   3.653  49.490  1.00  0.00     0.032 A 
HETATM   17  C4  UNL     1      20.796   2.696  48.499  1.00  0.00     0.034 A 
HETATM   18 CL1  UNL     1      19.793   2.977  47.096  1.00  0.00    -0.084 Cl
HETATM   19  C5  UNL     1      21.600   1.591  48.673  1.00  0.00     0.026 A 
HETATM   20  C6  UNL     1      22.336   1.505  49.835  1.00  0.00     0.032 A 
ENDBRANCH  11  13
ENDBRANCH   1  11
BRANCH   3  21
HETATM   21  N3  UNL     1      25.891  -0.961  54.211  1.00  0.00    -0.231 N 
HETATM   22  H8  UNL     1      26.683  -0.406  54.623  1.00  0.00     0.174 HD
HETATM   23  H9  UNL     1      25.992  -1.961  53.906  1.00  0.00     0.174 HD
ENDBRANCH   3  21
BRANCH   8  24
HETATM   24  C14 UNL     1      19.342  -1.072  52.890  1.00  0.00     0.065 A 
HETATM   25  C15 UNL     1      18.368  -1.967  53.569  1.00  0.00    -0.014 A 
HETATM   26  C16 UNL     1      17.155  -1.712  53.102  1.00  0.00     0.009 A 
HETATM   27  C17 UNL     1      17.164  -0.660  52.094  1.00  0.00    -0.029 A 
HETATM   28  C18 UNL     1      16.197  -0.043  51.325  1.00  0.00     0.012 A 
HETATM   29  C22 UNL     1      18.482  -0.277  51.969  1.00  0.00    -0.038 A 
HETATM   30  C19 UNL     1      16.610   0.959  50.440  1.00  0.00     0.001 A 
HETATM   31  C20 UNL     1      17.946   1.322  50.337  1.00  0.00     0.001 A 
HETATM   32  C21 UNL     1      18.914   0.714  51.098  1.00  0.00     0.009 A 
ENDBRANCH   8  24
TORSDOF 4
ENDMDL
MODEL 9
REMARK VINA RESULT:      -8.8      3.662      8.218
REMARK  4 active torsions:
REMARK  status: ('A' for Active; 'I' for Inactive)
REMARK    1  A    between atoms: C7_8  and  N1_9 
REMARK    2  A    between atoms: N1_9  and  C8_10 
REMARK    3  A    between atoms: C9_12  and  N3_13 
REMARK    4  A    between atoms: C13_18  and  C14_19 
ROOT
HETATM    1  C8  UNL     1      23.338   1.078  52.841  1.00  0.00     0.157 A 
HETATM    2  N2  UNL     1      24.444   0.458  53.264  1.00  0.00    -0.045 NA
HETATM    3  C9  UNL     1      24.510  -0.548  54.144  1.00  0.00     0.724 A 
HETATM    4  N4  UNL     1      23.349  -0.989  54.662  1.00  0.00    -0.045 NA
HETATM    5  C10 UNL     1      22.165  -0.442  54.314  1.00  0.00     0.153 A 
HETATM    6  C11 UNL     1      22.173   0.592  53.402  1.00  0.00     0.037 A 
HETATM    7  C12 UNL     1      20.750   1.006  53.197  1.00  0.00     0.072 C 
HETATM    8  C13 UNL     1      19.937  -0.047  53.867  1.00  0.00     0.099 C 
HETATM    9  N5  UNL     1      20.860  -0.752  54.734  1.00  0.00    -0.368 N 
HETATM   10  H20 UNL     1      20.616  -1.383  55.536  1.00  0.00     0.161 HD
ENDROOT
BRANCH   1  11
HETATM   11  N1  UNL     1      23.271   2.139  51.915  1.00  0.00    -0.339 N 
HETATM   12  H7  UNL     1      22.328   2.571  51.743  1.00  0.00     0.167 HD
BRANCH  11  13
HETATM   13  C7  UNL     1      24.328   2.709  51.171  1.00  0.00     0.039 A 
HETATM   14  C2  UNL     1      24.070   3.534  50.071  1.00  0.00    -0.034 A 
HETATM   15  C1  UNL     1      22.651   3.792  49.707  1.00  0.00     0.050 C 
HETATM   16  C3  UNL     1      25.087   4.100  49.333  1.00  0.00     0.032 A 
HETATM   17  C4  UNL     1      26.413   3.884  49.639  1.00  0.00     0.034 A 
HETATM   18 CL1  UNL     1      27.602   4.662  48.622  1.00  0.00    -0.084 Cl
HETATM   19  C5  UNL     1      26.716   3.078  50.715  1.00  0.00     0.026 A 
HETATM   20  C6  UNL     1      25.669   2.531  51.425  1.00  0.00     0.032 A 
ENDBRANCH  11  13
ENDBRANCH   1  11
BRANCH   3  21
HETATM   21  N3  UNL     1      25.802  -1.065  54.455  1.00  0.00    -0.231 N 
HETATM   22  H8  UNL     1      26.603  -0.512  54.855  1.00  0.00     0.174 HD
HETATM   23  H9  UNL     1      25.870  -2.090  54.235  1.00  0.00     0.174 HD
ENDBRANCH   3  21
BRANCH   8  24
HETATM   24  C14 UNL     1      19.312  -1.007  52.868  1.00  0.00     0.065 A 
HETATM   25  C15 UNL     1      18.172  -1.692  53.532  1.00  0.00    -0.014 A 
HETATM   26  C16 UNL     1      17.052  -1.369  52.901  1.00  0.00     0.009 A 
HETATM   27  C17 UNL     1      17.292  -0.465  51.784  1.00  0.00    -0.029 A 
HETATM   28  C18 UNL     1      16.491   0.149  50.842  1.00  0.00     0.012 A 
HETATM   29  C22 UNL     1      18.654  -0.249  51.767  1.00  0.00    -0.038 A 
HETATM   30  C19 UNL     1      17.111   0.974  49.898  1.00  0.00     0.001 A 
HETATM   31  C20 UNL     1      18.486   1.171  49.907  1.00  0.00     0.001 A 
HETATM   32  C21 UNL     1      19.290   0.566  50.840  1.00  0.00     0.009 A 
ENDBRANCH   8  24
TORSDOF 4
ENDMDL
