MODEL 1
REMARK VINA RESULT:      -7.4      0.000      0.000
REMARK  3 active torsions:
REMARK  status: ('A' for Active; 'I' for Inactive)
REMARK    1  A    between atoms: C5_6  and  S1_7 
REMARK    2  A    between atoms: S1_7  and  C6_8 
REMARK    3  A    between atoms: C15_20  and  O2_21 
ROOT
HETATM    1  C1  UNL     1      23.558   7.207  51.025  1.00  0.00     0.000 C 
HETATM    2  O1  UNL     1      23.957   5.951  51.601  1.00  0.00     0.000 OA
HETATM    3  C2  UNL     1      23.525   4.792  50.994  1.00  0.00    -0.001 A 
HETATM    4  C3  UNL     1      23.418   4.831  52.282  1.00  0.00     0.047 A 
HETATM    5  C4  UNL     1      23.818   3.720  52.854  1.00  0.00     0.093 A 
HETATM    6  C5  UNL     1      24.293   2.806  52.063  1.00  0.00     0.130 A 
HETATM    7  N1  UNL     1      22.976   2.606  52.522  1.00  0.00    -0.238 NA
HETATM    8  C12 UNL     1      22.033   1.960  52.017  1.00  0.00     0.180 C 
HETATM    9  N2  UNL     1      21.903   1.184  50.804  1.00  0.00    -0.261 NA
HETATM   10  C13 UNL     1      22.302   1.683  49.681  1.00  0.00     0.120 C 
HETATM   11  C14 UNL     1      22.904   2.886  49.170  1.00  0.00     0.056 C 
HETATM   12  C15 UNL     1      23.182   3.763  50.072  1.00  0.00     0.077 C 
ENDROOT
BRANCH   6  13
HETATM   13  S1  UNL     1      25.851   2.615  51.277  1.00  0.00    -0.098 SA
BRANCH  13  14
HETATM   14  C6  UNL     1      26.992   1.650  52.250  1.00  0.00     0.004 A 
HETATM   15  C7  UNL     1      28.033   2.021  53.069  1.00  0.00     0.018 A 
HETATM   16  C8  UNL     1      28.777   1.067  53.708  1.00  0.00     0.003 A 
HETATM   17  C9  UNL     1      28.533  -0.288  53.572  1.00  0.00     0.024 A 
HETATM   18  C10 UNL     1      27.495  -0.666  52.756  1.00  0.00     0.035 A 
HETATM   19 CL1  UNL     1      27.221  -2.403  52.611  1.00  0.00    -0.084 Cl
HETATM   20  C11 UNL     1      26.731   0.294  52.099  1.00  0.00     0.042 A 
ENDBRANCH  13  14
ENDBRANCH   6  13
BRANCH  12  21
HETATM   21  O2  UNL     1      23.720   4.783  49.257  1.00  0.00    -0.355 OA
HETATM   22  C16 UNL     1      23.162   5.223  48.068  1.00  0.00     0.210 C 
ENDBRANCH  12  21
TORSDOF 3
ENDMDL
MODEL 2
REMARK VINA RESULT:      -7.0      2.505      4.016
REMARK  3 active torsions:
REMARK  status: ('A' for Active; 'I' for Inactive)
REMARK    1  A    between atoms: C5_6  and  S1_7 
REMARK    2  A    between atoms: S1_7  and  C6_8 
REMARK    3  A    between atoms: C15_20  and  O2_21 
ROOT
HETATM    1  C1  UNL     1      21.515   1.061  48.974  1.00  0.00     0.000 C 
HETATM    2  O1  UNL     1      22.556   1.821  49.613  1.00  0.00     0.000 OA
HETATM    3  C2  UNL     1      22.300   3.139  49.923  1.00  0.00    -0.001 A 
HETATM    4  C3  UNL     1      23.442   2.899  49.366  1.00  0.00     0.047 A 
HETATM    5  C4  UNL     1      24.429   3.537  49.949  1.00  0.00     0.093 A 
HETATM    6  C5  UNL     1      24.119   4.243  50.994  1.00  0.00     0.130 A 
HETATM    7  N1  UNL     1      24.320   4.960  49.797  1.00  0.00    -0.238 NA
HETATM    8  C12 UNL     1      23.872   6.069  49.434  1.00  0.00     0.180 C 
HETATM    9  N2  UNL     1      22.998   7.035  50.059  1.00  0.00    -0.261 NA
HETATM   10  C13 UNL     1      21.888   6.642  50.590  1.00  0.00     0.120 C 
HETATM   11  C14 UNL     1      21.142   5.428  50.797  1.00  0.00     0.056 C 
HETATM   12  C15 UNL     1      21.730   4.366  50.366  1.00  0.00     0.077 C 
ENDROOT
BRANCH   6  13
HETATM   13  S1  UNL     1      23.804   3.808  52.665  1.00  0.00    -0.098 SA
BRANCH  13  14
HETATM   14  C6  UNL     1      24.205   2.106  53.015  1.00  0.00     0.004 A 
HETATM   15  C7  UNL     1      23.463   0.953  52.902  1.00  0.00     0.018 A 
HETATM   16  C8  UNL     1      24.012  -0.251  53.251  1.00  0.00     0.003 A 
HETATM   17  C9  UNL     1      25.306  -0.376  53.723  1.00  0.00     0.024 A 
HETATM   18  C10 UNL     1      26.052   0.771  53.838  1.00  0.00     0.035 A 
HETATM   19 CL1  UNL     1      27.696   0.565  54.446  1.00  0.00    -0.084 Cl
HETATM   20  C11 UNL     1      25.506   2.003  53.487  1.00  0.00     0.042 A 
ENDBRANCH  13  14
ENDBRANCH   6  13
BRANCH  12  21
HETATM   21  O2  UNL     1      20.755   3.400  50.700  1.00  0.00    -0.355 OA
HETATM   22  C16 UNL     1      20.117   3.311  51.925  1.00  0.00     0.210 C 
ENDBRANCH  12  21
TORSDOF 3
ENDMDL
MODEL 3
REMARK VINA RESULT:      -6.8      3.234      4.606
REMARK  3 active torsions:
REMARK  status: ('A' for Active; 'I' for Inactive)
REMARK    1  A    between atoms: C5_6  and  S1_7 
REMARK    2  A    between atoms: S1_7  and  C6_8 
REMARK    3  A    between atoms: C15_20  and  O2_21 
ROOT
HETATM    1  C1  UNL     1      21.563   1.987  48.338  1.00  0.00     0.000 C 
HETATM    2  O1  UNL     1      22.630   2.272  49.260  1.00  0.00     0.000 OA
HETATM    3  C2  UNL     1      22.788   3.572  49.688  1.00  0.00    -0.001 A 
HETATM    4  C3  UNL     1      23.869   2.958  49.332  1.00  0.00     0.047 A 
HETATM    5  C4  UNL     1      24.858   3.153  50.171  1.00  0.00     0.093 A 
HETATM    6  C5  UNL     1      24.586   3.865  51.223  1.00  0.00     0.130 A 
HETATM    7  N1  UNL     1      25.289   4.522  50.193  1.00  0.00    -0.238 NA
HETATM    8  C12 UNL     1      25.351   5.735  49.902  1.00  0.00     0.180 C 
HETATM    9  N2  UNL     1      24.751   6.920  50.473  1.00  0.00    -0.261 NA
HETATM   10  C13 UNL     1      23.485   6.937  50.726  1.00  0.00     0.120 C 
HETATM   11  C14 UNL     1      22.336   6.075  50.624  1.00  0.00     0.056 C 
HETATM   12  C15 UNL     1      22.598   4.896  50.174  1.00  0.00     0.077 C 
ENDROOT
BRANCH   6  13
HETATM   13  S1  UNL     1      23.770   3.486  52.730  1.00  0.00    -0.098 SA
BRANCH  13  14
HETATM   14  C6  UNL     1      23.404   1.748  52.891  1.00  0.00     0.004 A 
HETATM   15  C7  UNL     1      24.216   0.663  53.128  1.00  0.00     0.018 A 
HETATM   16  C8  UNL     1      23.678  -0.593  53.198  1.00  0.00     0.003 A 
HETATM   17  C9  UNL     1      22.326  -0.839  53.041  1.00  0.00     0.024 A 
HETATM   18  C10 UNL     1      21.510   0.240  52.804  1.00  0.00     0.035 A 
HETATM   19 CL1  UNL     1      19.793  -0.120  52.607  1.00  0.00    -0.084 Cl
HETATM   20  C11 UNL     1      22.044   1.523  52.729  1.00  0.00     0.042 A 
ENDBRANCH  13  14
ENDBRANCH   6  13
BRANCH  12  21
HETATM   21  O2  UNL     1      21.298   4.342  50.184  1.00  0.00    -0.355 OA
HETATM   22  C16 UNL     1      20.436   4.369  51.267  1.00  0.00     0.210 C 
ENDBRANCH  12  21
TORSDOF 3
ENDMDL
MODEL 4
REMARK VINA RESULT:      -6.8      2.816      3.522
REMARK  3 active torsions:
REMARK  status: ('A' for Active; 'I' for Inactive)
REMARK    1  A    between atoms: C5_6  and  S1_7 
REMARK    2  A    between atoms: S1_7  and  C6_8 
REMARK    3  A    between atoms: C15_20  and  O2_21 
ROOT
HETATM    1  C1  UNL     1      25.596   7.375  50.073  1.00  0.00     0.000 C 
HETATM    2  O1  UNL     1      24.771   6.568  50.932  1.00  0.00     0.000 OA
HETATM    3  C2  UNL     1      24.240   5.407  50.416  1.00  0.00    -0.001 A 
HETATM    4  C3  UNL     1      23.426   6.151  51.092  1.00  0.00     0.047 A 
HETATM    5  C4  UNL     1      22.685   5.458  51.924  1.00  0.00     0.093 A 
HETATM    6  C5  UNL     1      22.918   4.182  51.974  1.00  0.00     0.130 A 
HETATM    7  N1  UNL     1      21.781   4.577  51.241  1.00  0.00    -0.238 NA
HETATM    8  C12 UNL     1      21.186   4.008  50.302  1.00  0.00     0.180 C 
HETATM    9  N2  UNL     1      21.406   2.762  49.603  1.00  0.00    -0.261 NA
HETATM   10  C13 UNL     1      22.588   2.474  49.169  1.00  0.00     0.120 C 
HETATM   11  C14 UNL     1      23.914   3.035  49.146  1.00  0.00     0.056 C 
HETATM   12  C15 UNL     1      24.022   4.162  49.761  1.00  0.00     0.077 C 
ENDROOT
BRANCH   6  13
HETATM   13  S1  UNL     1      24.168   3.237  52.764  1.00  0.00    -0.098 SA
BRANCH  13  14
HETATM   14  C6  UNL     1      23.687   1.538  53.011  1.00  0.00     0.004 A 
HETATM   15  C7  UNL     1      24.420   0.421  53.340  1.00  0.00     0.018 A 
HETATM   16  C8  UNL     1      23.801  -0.793  53.463  1.00  0.00     0.003 A 
HETATM   17  C9  UNL     1      22.442  -0.964  53.270  1.00  0.00     0.024 A 
HETATM   18  C10 UNL     1      21.704   0.147  52.942  1.00  0.00     0.035 A 
HETATM   19 CL1  UNL     1      19.976  -0.117  52.703  1.00  0.00    -0.084 Cl
HETATM   20  C11 UNL     1      22.321   1.388  52.813  1.00  0.00     0.042 A 
ENDBRANCH  13  14
ENDBRANCH   6  13
BRANCH  12  21
HETATM   21  O2  UNL     1      25.391   4.427  49.538  1.00  0.00    -0.355 OA
HETATM   22  C16 UNL     1      26.417   3.522  49.751  1.00  0.00     0.210 C 
ENDBRANCH  12  21
TORSDOF 3
ENDMDL
MODEL 5
REMARK VINA RESULT:      -6.8      3.330      4.278
REMARK  3 active torsions:
REMARK  status: ('A' for Active; 'I' for Inactive)
REMARK    1  A    between atoms: C5_6  and  S1_7 
REMARK    2  A    between atoms: S1_7  and  C6_8 
REMARK    3  A    between atoms: C15_20  and  O2_21 
ROOT
HETATM    1  C1  UNL     1      24.074   3.771  50.730  1.00  0.00     0.000 C 
HETATM    2  O1  UNL     1      22.934   3.231  51.423  1.00  0.00     0.000 OA
HETATM    3  C2  UNL     1      21.766   3.059  50.714  1.00  0.00    -0.001 A 
HETATM    4  C3  UNL     1      21.646   3.605  51.880  1.00  0.00     0.047 A 
HETATM    5  C4  UNL     1      20.645   3.108  52.567  1.00  0.00     0.093 A 
HETATM    6  C5  UNL     1      19.988   2.139  52.005  1.00  0.00     0.130 A 
HETATM    7  N1  UNL     1      19.375   3.407  51.969  1.00  0.00    -0.238 NA
HETATM    8  C12 UNL     1      18.539   3.880  51.170  1.00  0.00     0.180 C 
HETATM    9  N2  UNL     1      17.882   3.347  49.998  1.00  0.00    -0.261 NA
HETATM   10  C13 UNL     1      18.582   2.761  49.084  1.00  0.00     0.120 C 
HETATM   11  C14 UNL     1      19.951   2.415  48.807  1.00  0.00     0.056 C 
HETATM   12  C15 UNL     1      20.778   2.740  49.740  1.00  0.00     0.077 C 
ENDROOT
BRANCH   6  13
HETATM   13  S1  UNL     1      20.329   0.427  51.824  1.00  0.00    -0.098 SA
BRANCH  13  14
HETATM   14  C6  UNL     1      21.451  -0.182  53.069  1.00  0.00     0.004 A 
HETATM   15  C7  UNL     1      21.226  -0.727  54.312  1.00  0.00     0.018 A 
HETATM   16  C8  UNL     1      22.282  -1.114  55.092  1.00  0.00     0.003 A 
HETATM   17  C9  UNL     1      23.599  -0.984  54.688  1.00  0.00     0.024 A 
HETATM   18  C10 UNL     1      23.830  -0.440  53.449  1.00  0.00     0.035 A 
HETATM   19 CL1  UNL     1      25.524  -0.291  52.976  1.00  0.00    -0.084 Cl
HETATM   20  C11 UNL     1      22.766  -0.041  52.645  1.00  0.00     0.042 A 
ENDBRANCH  13  14
ENDBRANCH   6  13
BRANCH  12  21
HETATM   21  O2  UNL     1      21.984   2.291  49.159  1.00  0.00    -0.355 OA
HETATM   22  C16 UNL     1      22.193   2.123  47.800  1.00  0.00     0.210 C 
ENDBRANCH  12  21
TORSDOF 3
ENDMDL
MODEL 6
REMARK VINA RESULT:      -6.8      1.888      2.158
REMARK  3 active torsions:
REMARK  status: ('A' for Active; 'I' for Inactive)
REMARK    1  A    between atoms: C5_6  and  S1_7 
REMARK    2  A    between atoms: S1_7  and  C6_8 
REMARK    3  A    between atoms: C15_20  and  O2_21 
ROOT
HETATM    1  C1  UNL     1      21.529   7.025  50.838  1.00  0.00     0.000 C 
HETATM    2  O1  UNL     1      21.897   5.723  51.325  1.00  0.00     0.000 OA
HETATM    3  C2  UNL     1      22.009   4.696  50.413  1.00  0.00    -0.001 A 
HETATM    4  C3  UNL     1      21.364   4.421  51.499  1.00  0.00     0.047 A 
HETATM    5  C4  UNL     1      21.704   3.259  52.005  1.00  0.00     0.093 A 
HETATM    6  C5  UNL     1      22.645   2.616  51.383  1.00  0.00     0.130 A 
HETATM    7  N1  UNL     1      21.329   2.166  51.154  1.00  0.00    -0.238 NA
HETATM    8  C12 UNL     1      20.842   1.554  50.180  1.00  0.00     0.180 C 
HETATM    9  N2  UNL     1      21.398   1.074  48.936  1.00  0.00    -0.261 NA
HETATM   10  C13 UNL     1      22.120   1.863  48.212  1.00  0.00     0.120 C 
HETATM   11  C14 UNL     1      22.620   3.213  48.229  1.00  0.00     0.056 C 
HETATM   12  C15 UNL     1      22.306   3.880  49.285  1.00  0.00     0.077 C 
ENDROOT
BRANCH   6  13
HETATM   13  S1  UNL     1      24.391   2.791  51.373  1.00  0.00    -0.098 SA
BRANCH  13  14
HETATM   14  C6  UNL     1      25.225   1.366  52.047  1.00  0.00     0.004 A 
HETATM   15  C7  UNL     1      26.431   0.782  51.735  1.00  0.00     0.018 A 
HETATM   16  C8  UNL     1      26.847  -0.333  52.409  1.00  0.00     0.003 A 
HETATM   17  C9  UNL     1      26.103  -0.921  53.415  1.00  0.00     0.024 A 
HETATM   18  C10 UNL     1      24.898  -0.344  53.733  1.00  0.00     0.035 A 
HETATM   19 CL1  UNL     1      23.981  -1.129  55.020  1.00  0.00    -0.084 Cl
HETATM   20  C11 UNL     1      24.461   0.790  53.054  1.00  0.00     0.042 A 
ENDBRANCH  13  14
ENDBRANCH   6  13
BRANCH  12  21
HETATM   21  O2  UNL     1      22.915   5.117  48.978  1.00  0.00    -0.355 OA
HETATM   22  C16 UNL     1      24.260   5.287  48.697  1.00  0.00     0.210 C 
ENDBRANCH  12  21
TORSDOF 3
ENDMDL
MODEL 7
REMARK VINA RESULT:      -6.8      2.425      3.386
REMARK  3 active torsions:
REMARK  status: ('A' for Active; 'I' for Inactive)
REMARK    1  A    between atoms: C5_6  and  S1_7 
REMARK    2  A    between atoms: S1_7  and  C6_8 
REMARK    3  A    between atoms: C15_20  and  O2_21 
ROOT
HETATM    1  C1  UNL     1      26.047   7.722  49.995  1.00  0.00     0.000 C 
HETATM    2  O1  UNL     1      24.963   7.089  50.697  1.00  0.00     0.000 OA
HETATM    3  C2  UNL     1      24.522   5.865  50.243  1.00  0.00    -0.001 A 
HETATM    4  C3  UNL     1      23.602   6.729  50.527  1.00  0.00     0.047 A 
HETATM    5  C4  UNL     1      22.613   6.204  51.211  1.00  0.00     0.093 A 
HETATM    6  C5  UNL     1      22.737   4.951  51.530  1.00  0.00     0.130 A 
HETATM    7  N1  UNL     1      21.881   5.234  50.447  1.00  0.00    -0.238 NA
HETATM    8  C12 UNL     1      21.538   4.521  49.479  1.00  0.00     0.180 C 
HETATM    9  N2  UNL     1      21.862   3.170  49.083  1.00  0.00    -0.261 NA
HETATM   10  C13 UNL     1      23.097   2.791  49.060  1.00  0.00     0.120 C 
HETATM   11  C14 UNL     1      24.409   3.316  49.331  1.00  0.00     0.056 C 
HETATM   12  C15 UNL     1      24.415   4.530  49.762  1.00  0.00     0.077 C 
ENDROOT
BRANCH   6  13
HETATM   13  S1  UNL     1      23.650   4.135  52.787  1.00  0.00    -0.098 SA
BRANCH  13  14
HETATM   14  C6  UNL     1      23.332   2.381  52.834  1.00  0.00     0.004 A 
HETATM   15  C7  UNL     1      22.172   1.660  52.665  1.00  0.00     0.018 A 
HETATM   16  C8  UNL     1      22.195   0.295  52.760  1.00  0.00     0.003 A 
HETATM   17  C9  UNL     1      23.350  -0.419  53.022  1.00  0.00     0.024 A 
HETATM   18  C10 UNL     1      24.511   0.295  53.191  1.00  0.00     0.035 A 
HETATM   19 CL1  UNL     1      25.959  -0.656  53.526  1.00  0.00    -0.084 Cl
HETATM   20  C11 UNL     1      24.503   1.684  53.099  1.00  0.00     0.042 A 
ENDBRANCH  13  14
ENDBRANCH   6  13
BRANCH  12  21
HETATM   21  O2  UNL     1      25.806   4.729  49.902  1.00  0.00    -0.355 OA
HETATM   22  C16 UNL     1      26.780   3.897  49.377  1.00  0.00     0.210 C 
ENDBRANCH  12  21
TORSDOF 3
ENDMDL
MODEL 8
REMARK VINA RESULT:      -6.6      3.471      4.919
REMARK  3 active torsions:
REMARK  status: ('A' for Active; 'I' for Inactive)
REMARK    1  A    between atoms: C5_6  and  S1_7 
REMARK    2  A    between atoms: S1_7  and  C6_8 
REMARK    3  A    between atoms: C15_20  and  O2_21 
ROOT
HETATM    1  C1  UNL     1      19.461   3.467  47.008  1.00  0.00     0.000 C 
HETATM    2  O1  UNL     1      20.273   2.617  47.837  1.00  0.00     0.000 OA
HETATM    3  C2  UNL     1      20.698   3.109  49.051  1.00  0.00    -0.001 A 
HETATM    4  C3  UNL     1      21.593   2.505  48.340  1.00  0.00     0.047 A 
HETATM    5  C4  UNL     1      22.328   1.682  49.050  1.00  0.00     0.093 A 
HETATM    6  C5  UNL     1      22.012   1.567  50.305  1.00  0.00     0.130 A 
HETATM    7  N1  UNL     1      23.134   2.370  50.017  1.00  0.00    -0.238 NA
HETATM    8  C12 UNL     1      23.641   3.313  50.661  1.00  0.00     0.180 C 
HETATM    9  N2  UNL     1      23.302   3.949  51.914  1.00  0.00    -0.261 NA
HETATM   10  C13 UNL     1      22.082   4.312  52.137  1.00  0.00     0.120 C 
HETATM   11  C14 UNL     1      20.798   4.293  51.487  1.00  0.00     0.056 C 
HETATM   12  C15 UNL     1      20.798   3.721  50.332  1.00  0.00     0.077 C 
ENDROOT
BRANCH   6  13
HETATM   13  S1  UNL     1      20.744   0.679  51.130  1.00  0.00    -0.098 SA
BRANCH  13  14
HETATM   14  C6  UNL     1      21.318  -0.101  52.627  1.00  0.00     0.004 A 
HETATM   15  C7  UNL     1      20.644  -0.754  53.632  1.00  0.00     0.018 A 
HETATM   16  C8  UNL     1      21.331  -1.265  54.699  1.00  0.00     0.003 A 
HETATM   17  C9  UNL     1      22.704  -1.159  54.826  1.00  0.00     0.024 A 
HETATM   18  C10 UNL     1      23.384  -0.508  53.826  1.00  0.00     0.035 A 
HETATM   19 CL1  UNL     1      25.133  -0.393  54.030  1.00  0.00    -0.084 Cl
HETATM   20  C11 UNL     1      22.698   0.018  52.735  1.00  0.00     0.042 A 
ENDBRANCH  13  14
ENDBRANCH   6  13
BRANCH  12  21
HETATM   21  O2  UNL     1      19.440   3.889  49.982  1.00  0.00    -0.355 OA
HETATM   22  C16 UNL     1      18.398   3.999  50.887  1.00  0.00     0.210 C 
ENDBRANCH  12  21
TORSDOF 3
ENDMDL
MODEL 9
REMARK VINA RESULT:      -6.6      9.248     10.887
REMARK  3 active torsions:
REMARK  status: ('A' for Active; 'I' for Inactive)
REMARK    1  A    between atoms: C5_6  and  S1_7 
REMARK    2  A    between atoms: S1_7  and  C6_8 
REMARK    3  A    between atoms: C15_20  and  O2_21 
ROOT
HETATM    1  C1  UNL     1      36.101   5.974  49.328  1.00  0.00     0.000 C 
HETATM    2  O1  UNL     1      34.798   6.352  48.853  1.00  0.00     0.000 OA
HETATM    3  C2  UNL     1      34.369   5.833  47.651  1.00  0.00    -0.001 A 
HETATM    4  C3  UNL     1      34.176   7.100  47.822  1.00  0.00     0.047 A 
HETATM    5  C4  UNL     1      32.978   7.481  47.444  1.00  0.00     0.093 A 
HETATM    6  C5  UNL     1      32.184   6.544  47.024  1.00  0.00     0.130 A 
HETATM    7  N1  UNL     1      32.785   7.341  46.029  1.00  0.00    -0.238 NA
HETATM    8  C12 UNL     1      33.038   7.088  44.832  1.00  0.00     0.180 C 
HETATM    9  N2  UNL     1      32.830   5.922  44.004  1.00  0.00    -0.261 NA
HETATM   10  C13 UNL     1      33.190   4.759  44.436  1.00  0.00     0.120 C 
HETATM   11  C14 UNL     1      33.794   4.161  45.598  1.00  0.00     0.056 C 
HETATM   12  C15 UNL     1      34.050   4.993  46.548  1.00  0.00     0.077 C 
ENDROOT
BRANCH   6  13
HETATM   13  S1  UNL     1      31.215   5.347  47.865  1.00  0.00    -0.098 SA
BRANCH  13  14
HETATM   14  C6  UNL     1      29.507   5.834  48.018  1.00  0.00     0.004 A 
HETATM   15  C7  UNL     1      28.408   5.167  48.507  1.00  0.00     0.018 A 
HETATM   16  C8  UNL     1      27.181   5.773  48.504  1.00  0.00     0.003 A 
HETATM   17  C9  UNL     1      26.979   7.054  48.024  1.00  0.00     0.024 A 
HETATM   18  C10 UNL     1      28.072   7.726  47.534  1.00  0.00     0.035 A 
HETATM   19 CL1  UNL     1      27.768   9.356  46.930  1.00  0.00    -0.084 Cl
HETATM   20  C11 UNL     1      29.326   7.122  47.530  1.00  0.00     0.042 A 
ENDBRANCH  13  14
ENDBRANCH   6  13
BRANCH  12  21
HETATM   21  O2  UNL     1      34.630   4.112  47.488  1.00  0.00    -0.355 OA
HETATM   22  C16 UNL     1      34.199   2.818  47.729  1.00  0.00     0.210 C 
ENDBRANCH  12  21
TORSDOF 3
ENDMDL
