MODEL 1
REMARK VINA RESULT:      -7.8      0.000      0.000
REMARK  3 active torsions:
REMARK  status: ('A' for Active; 'I' for Inactive)
REMARK    1  A    between atoms: O1_2  and  C2_3 
REMARK    2  A    between atoms: C5_6  and  N1_7 
REMARK    3  A    between atoms: N1_7  and  C6_8 
ROOT
HETATM    1  C2  UNL     1      23.022   3.781  52.392  1.00  0.00     0.180 C 
HETATM    2  C3  UNL     1      24.184   3.185  52.708  1.00  0.00     0.081 C 
HETATM    3  C4  UNL     1      24.722   1.803  52.719  1.00  0.00     0.043 A 
HETATM    4  C5  UNL     1      25.973   1.859  52.153  1.00  0.00     0.141 A 
HETATM    5  N2  UNL     1      26.729   0.729  51.996  1.00  0.00    -0.224 NA
HETATM    6  C10 UNL     1      26.167  -0.437  52.432  1.00  0.00     0.235 A 
HETATM    7  N3  UNL     1      24.945  -0.431  52.976  1.00  0.00    -0.241 NA
HETATM    8  C11 UNL     1      24.156   0.633  53.158  1.00  0.00     0.113 A 
HETATM    9  C12 UNL     1      22.901   0.266  53.786  1.00  0.00     0.506 C 
HETATM   10  N4  UNL     1      22.557  -1.145  53.698  1.00  0.00     0.125 N 
HETATM   11  C13 UNL     1      21.225  -1.140  54.325  1.00  0.00     0.303 C 
HETATM   12  C14 UNL     1      20.756   0.321  54.277  1.00  0.00     0.305 C 
HETATM   13  N5  UNL     1      21.695   0.845  53.257  1.00  0.00     0.130 N 
HETATM   14  C15 UNL     1      21.269   0.137  52.031  1.00  0.00     0.278 C 
HETATM   15  C16 UNL     1      22.135   0.601  50.867  1.00  0.00     0.057 C 
HETATM   16  C17 UNL     1      22.052   2.142  50.797  1.00  0.00     0.179 C 
HETATM   17  O2  UNL     1      22.382   2.654  52.046  1.00  0.00    -0.331 OA
HETATM   18  H11 UNL     1      23.231  -1.757  54.237  1.00  0.00     0.319 HD
ENDROOT
BRANCH   4  19
HETATM   19  N1  UNL     1      26.641   3.016  51.671  1.00  0.00    -0.349 N 
HETATM   20  H5  UNL     1      27.250   3.705  52.162  1.00  0.00     0.167 HD
BRANCH  19  21
HETATM   21  C6  UNL     1      26.453   3.296  50.279  1.00  0.00     0.101 C 
HETATM   22  C7  UNL     1      25.956   4.437  49.799  1.00  0.00    -0.021 A 
HETATM   23  C8  UNL     1      25.496   5.422  48.810  1.00  0.00     0.013 A 
HETATM   24  C9  UNL     1      25.422   5.760  50.074  1.00  0.00     0.013 A 
ENDBRANCH  19  21
ENDBRANCH   4  19
BRANCH   1  25
HETATM   25  O1  UNL     1      22.731   5.128  52.455  1.00  0.00    -0.336 OA
HETATM   26  C1  UNL     1      21.929   5.693  51.436  1.00  0.00     0.212 C 
ENDBRANCH   1  25
TORSDOF 3
ENDMDL
MODEL 2
REMARK VINA RESULT:      -7.7      2.261      5.842
REMARK  3 active torsions:
REMARK  status: ('A' for Active; 'I' for Inactive)
REMARK    1  A    between atoms: O1_2  and  C2_3 
REMARK    2  A    between atoms: C5_6  and  N1_7 
REMARK    3  A    between atoms: N1_7  and  C6_8 
ROOT
HETATM    1  C2  UNL     1      22.952   1.536  50.886  1.00  0.00     0.180 C 
HETATM    2  C3  UNL     1      22.455   0.543  51.643  1.00  0.00     0.081 C 
HETATM    3  C4  UNL     1      22.776  -0.087  52.947  1.00  0.00     0.043 A 
HETATM    4  C5  UNL     1      21.588  -0.225  53.625  1.00  0.00     0.141 A 
HETATM    5  N2  UNL     1      21.552  -0.760  54.885  1.00  0.00    -0.224 NA
HETATM    6  C10 UNL     1      22.753  -1.141  55.413  1.00  0.00     0.235 A 
HETATM    7  N3  UNL     1      23.878  -0.982  54.705  1.00  0.00    -0.241 NA
HETATM    8  C11 UNL     1      23.983  -0.469  53.475  1.00  0.00     0.113 A 
HETATM    9  C12 UNL     1      25.360  -0.459  53.018  1.00  0.00     0.506 C 
HETATM   10  N4  UNL     1      26.360  -0.577  54.067  1.00  0.00     0.125 N 
HETATM   11  C13 UNL     1      27.597  -0.433  53.282  1.00  0.00     0.303 C 
HETATM   12  C14 UNL     1      27.168   0.214  51.957  1.00  0.00     0.305 C 
HETATM   13  N5  UNL     1      25.835   0.727  52.357  1.00  0.00     0.130 N 
HETATM   14  C15 UNL     1      26.175   1.774  53.344  1.00  0.00     0.278 C 
HETATM   15  C16 UNL     1      24.888   2.427  53.833  1.00  0.00     0.057 C 
HETATM   16  C17 UNL     1      24.106   2.921  52.596  1.00  0.00     0.179 C 
HETATM   17  O2  UNL     1      23.954   1.852  51.720  1.00  0.00    -0.331 OA
HETATM   18  H11 UNL     1      26.323  -1.514  54.554  1.00  0.00     0.319 HD
ENDROOT
BRANCH   4  19
HETATM   19  N1  UNL     1      20.296   0.138  53.165  1.00  0.00    -0.349 N 
HETATM   20  H5  UNL     1      19.970   0.981  52.645  1.00  0.00     0.167 HD
BRANCH  19  21
HETATM   21  C6  UNL     1      19.255  -0.801  53.457  1.00  0.00     0.101 C 
HETATM   22  C7  UNL     1      18.108  -0.893  52.783  1.00  0.00    -0.021 A 
HETATM   23  C8  UNL     1      16.775  -1.384  52.407  1.00  0.00     0.013 A 
HETATM   24  C9  UNL     1      17.273  -0.399  51.701  1.00  0.00     0.013 A 
ENDBRANCH  19  21
ENDBRANCH   4  19
BRANCH   1  25
HETATM   25  O1  UNL     1      22.478   1.972  49.667  1.00  0.00    -0.336 OA
HETATM   26  C1  UNL     1      21.542   1.163  48.979  1.00  0.00     0.212 C 
ENDBRANCH   1  25
TORSDOF 3
ENDMDL
MODEL 3
REMARK VINA RESULT:      -7.5      1.480      2.061
REMARK  3 active torsions:
REMARK  status: ('A' for Active; 'I' for Inactive)
REMARK    1  A    between atoms: O1_2  and  C2_3 
REMARK    2  A    between atoms: C5_6  and  N1_7 
REMARK    3  A    between atoms: N1_7  and  C6_8 
ROOT
HETATM    1  C2  UNL     1      22.644   4.330  51.506  1.00  0.00     0.180 C 
HETATM    2  C3  UNL     1      23.238   3.535  52.413  1.00  0.00     0.081 C 
HETATM    3  C4  UNL     1      23.276   2.084  52.717  1.00  0.00     0.043 A 
HETATM    4  C5  UNL     1      24.593   1.759  52.939  1.00  0.00     0.141 A 
HETATM    5  N2  UNL     1      24.965   0.473  53.226  1.00  0.00    -0.224 NA
HETATM    6  C10 UNL     1      23.957  -0.448  53.276  1.00  0.00     0.235 A 
HETATM    7  N3  UNL     1      22.693  -0.073  53.051  1.00  0.00    -0.241 NA
HETATM    8  C11 UNL     1      22.263   1.160  52.768  1.00  0.00     0.113 A 
HETATM    9  C12 UNL     1      20.823   1.197  52.594  1.00  0.00     0.506 C 
HETATM   10  N4  UNL     1      20.201  -0.090  52.329  1.00  0.00     0.125 N 
HETATM   11  C13 UNL     1      18.804   0.322  52.113  1.00  0.00     0.303 C 
HETATM   12  C14 UNL     1      18.863   1.827  51.815  1.00  0.00     0.305 C 
HETATM   13  N5  UNL     1      20.303   1.954  51.487  1.00  0.00     0.130 N 
HETATM   14  C15 UNL     1      20.417   1.186  50.229  1.00  0.00     0.278 C 
HETATM   15  C16 UNL     1      21.858   1.250  49.741  1.00  0.00     0.057 C 
HETATM   16  C17 UNL     1      22.260   2.738  49.638  1.00  0.00     0.179 C 
HETATM   17  O2  UNL     1      22.002   3.345  50.862  1.00  0.00    -0.331 OA
HETATM   18  H11 UNL     1      20.282  -0.752  53.150  1.00  0.00     0.319 HD
ENDROOT
BRANCH   4  19
HETATM   19  N1  UNL     1      25.706   2.640  52.910  1.00  0.00    -0.349 N 
HETATM   20  H5  UNL     1      25.994   3.396  53.567  1.00  0.00     0.167 HD
BRANCH  19  21
HETATM   21  C6  UNL     1      26.590   2.472  51.795  1.00  0.00     0.101 C 
HETATM   22  C7  UNL     1      26.509   3.162  50.657  1.00  0.00    -0.021 A 
HETATM   23  C8  UNL     1      26.845   3.606  49.297  1.00  0.00     0.013 A 
HETATM   24  C9  UNL     1      25.824   4.183  49.881  1.00  0.00     0.013 A 
ENDBRANCH  19  21
ENDBRANCH   4  19
BRANCH   1  25
HETATM   25  O1  UNL     1      22.755   5.701  51.400  1.00  0.00    -0.336 OA
HETATM   26  C1  UNL     1      21.651   6.430  50.899  1.00  0.00     0.212 C 
ENDBRANCH   1  25
TORSDOF 3
ENDMDL
MODEL 4
REMARK VINA RESULT:      -7.5      2.016      4.076
REMARK  3 active torsions:
REMARK  status: ('A' for Active; 'I' for Inactive)
REMARK    1  A    between atoms: O1_2  and  C2_3 
REMARK    2  A    between atoms: C5_6  and  N1_7 
REMARK    3  A    between atoms: N1_7  and  C6_8 
ROOT
HETATM    1  C2  UNL     1      24.528   3.740  50.739  1.00  0.00     0.180 C 
HETATM    2  C3  UNL     1      24.605   2.916  51.798  1.00  0.00     0.081 C 
HETATM    3  C4  UNL     1      23.803   1.803  52.360  1.00  0.00     0.043 A 
HETATM    4  C5  UNL     1      24.687   0.804  52.692  1.00  0.00     0.141 A 
HETATM    5  N2  UNL     1      24.250  -0.381  53.221  1.00  0.00    -0.224 NA
HETATM    6  C10 UNL     1      22.900  -0.501  53.394  1.00  0.00     0.235 A 
HETATM    7  N3  UNL     1      22.087   0.505  53.053  1.00  0.00    -0.241 NA
HETATM    8  C11 UNL     1      22.447   1.683  52.534  1.00  0.00     0.113 A 
HETATM    9  C12 UNL     1      21.298   2.535  52.297  1.00  0.00     0.506 C 
HETATM   10  N4  UNL     1      20.019   1.845  52.242  1.00  0.00     0.125 N 
HETATM   11  C13 UNL     1      19.122   2.960  51.897  1.00  0.00     0.303 C 
HETATM   12  C14 UNL     1      20.034   4.060  51.335  1.00  0.00     0.305 C 
HETATM   13  N5  UNL     1      21.243   3.252  51.050  1.00  0.00     0.130 N 
HETATM   14  C15 UNL     1      20.789   2.365  49.957  1.00  0.00     0.278 C 
HETATM   15  C16 UNL     1      21.951   1.479  49.526  1.00  0.00     0.057 C 
HETATM   16  C17 UNL     1      23.143   2.396  49.174  1.00  0.00     0.179 C 
HETATM   17  O2  UNL     1      23.383   3.235  50.256  1.00  0.00    -0.331 OA
HETATM   18  H11 UNL     1      19.754   1.414  53.171  1.00  0.00     0.319 HD
ENDROOT
BRANCH   4  19
HETATM   19  N1  UNL     1      26.100   0.834  52.551  1.00  0.00    -0.349 N 
HETATM   20  H5  UNL     1      26.756   1.636  52.436  1.00  0.00     0.167 HD
BRANCH  19  21
HETATM   21  C6  UNL     1      26.744  -0.446  52.567  1.00  0.00     0.101 C 
HETATM   22  C7  UNL     1      27.971  -0.668  53.039  1.00  0.00    -0.021 A 
HETATM   23  C8  UNL     1      29.186  -1.410  53.401  1.00  0.00     0.013 A 
HETATM   24  C9  UNL     1      29.172  -0.124  53.651  1.00  0.00     0.013 A 
ENDBRANCH  19  21
ENDBRANCH   4  19
BRANCH   1  25
HETATM   25  O1  UNL     1      25.417   4.736  50.392  1.00  0.00    -0.336 OA
HETATM   26  C1  UNL     1      26.350   4.478  49.359  1.00  0.00     0.212 C 
ENDBRANCH   1  25
TORSDOF 3
ENDMDL
MODEL 5
REMARK VINA RESULT:      -7.4      2.457      6.385
REMARK  3 active torsions:
REMARK  status: ('A' for Active; 'I' for Inactive)
REMARK    1  A    between atoms: O1_2  and  C2_3 
REMARK    2  A    between atoms: C5_6  and  N1_7 
REMARK    3  A    between atoms: N1_7  and  C6_8 
ROOT
HETATM    1  C2  UNL     1      26.031   2.928  51.325  1.00  0.00     0.180 C 
HETATM    2  C3  UNL     1      24.938   2.828  52.100  1.00  0.00     0.081 C 
HETATM    3  C4  UNL     1      23.558   3.372  52.098  1.00  0.00     0.043 A 
HETATM    4  C5  UNL     1      22.716   2.322  52.377  1.00  0.00     0.141 A 
HETATM    5  N2  UNL     1      21.359   2.497  52.425  1.00  0.00    -0.224 NA
HETATM    6  C10 UNL     1      20.906   3.762  52.181  1.00  0.00     0.235 A 
HETATM    7  N3  UNL     1      21.773   4.746  51.914  1.00  0.00    -0.241 NA
HETATM    8  C11 UNL     1      23.105   4.644  51.853  1.00  0.00     0.113 A 
HETATM    9  C12 UNL     1      23.725   5.919  51.548  1.00  0.00     0.506 C 
HETATM   10  N4  UNL     1      22.838   6.911  50.960  1.00  0.00     0.125 N 
HETATM   11  C13 UNL     1      23.789   8.004  50.697  1.00  0.00     0.303 C 
HETATM   12  C14 UNL     1      25.179   7.353  50.726  1.00  0.00     0.305 C 
HETATM   13  N5  UNL     1      24.786   5.931  50.578  1.00  0.00     0.130 N 
HETATM   14  C15 UNL     1      24.238   5.889  49.205  1.00  0.00     0.278 C 
HETATM   15  C16 UNL     1      23.812   4.462  48.887  1.00  0.00     0.057 C 
HETATM   16  C17 UNL     1      25.023   3.537  49.137  1.00  0.00     0.179 C 
HETATM   17  O2  UNL     1      25.486   3.763  50.429  1.00  0.00    -0.331 OA
HETATM   18  H11 UNL     1      22.078   7.217  51.628  1.00  0.00     0.319 HD
ENDROOT
BRANCH   4  19
HETATM   19  N1  UNL     1      23.088   0.978  52.643  1.00  0.00    -0.349 N 
HETATM   20  H5  UNL     1      24.028   0.538  52.740  1.00  0.00     0.167 HD
BRANCH  19  21
HETATM   21  C6  UNL     1      21.999   0.062  52.807  1.00  0.00     0.101 C 
HETATM   22  C7  UNL     1      21.886  -0.805  53.814  1.00  0.00    -0.021 A 
HETATM   23  C8  UNL     1      21.312  -1.872  54.646  1.00  0.00     0.013 A 
HETATM   24  C9  UNL     1      22.450  -1.353  55.036  1.00  0.00     0.013 A 
ENDBRANCH  19  21
ENDBRANCH   4  19
BRANCH   1  25
HETATM   25  O1  UNL     1      27.249   2.311  51.519  1.00  0.00    -0.336 OA
HETATM   26  C1  UNL     1      27.690   2.091  52.846  1.00  0.00     0.212 C 
ENDBRANCH   1  25
TORSDOF 3
ENDMDL
MODEL 6
REMARK VINA RESULT:      -7.1      2.449      5.195
REMARK  3 active torsions:
REMARK  status: ('A' for Active; 'I' for Inactive)
REMARK    1  A    between atoms: O1_2  and  C2_3 
REMARK    2  A    between atoms: C5_6  and  N1_7 
REMARK    3  A    between atoms: N1_7  and  C6_8 
ROOT
HETATM    1  C2  UNL     1      22.470   2.012  52.354  1.00  0.00     0.180 C 
HETATM    2  C3  UNL     1      23.653   1.804  51.750  1.00  0.00     0.081 C 
HETATM    3  C4  UNL     1      24.567   2.573  50.872  1.00  0.00     0.043 A 
HETATM    4  C5  UNL     1      25.838   2.392  51.365  1.00  0.00     0.141 A 
HETATM    5  N2  UNL     1      26.916   2.999  50.780  1.00  0.00    -0.224 NA
HETATM    6  C10 UNL     1      26.650   3.781  49.692  1.00  0.00     0.235 A 
HETATM    7  N3  UNL     1      25.393   3.920  49.256  1.00  0.00    -0.241 NA
HETATM    8  C11 UNL     1      24.299   3.358  49.779  1.00  0.00     0.113 A 
HETATM    9  C12 UNL     1      23.106   3.724  49.040  1.00  0.00     0.506 C 
HETATM   10  N4  UNL     1      23.237   4.907  48.204  1.00  0.00     0.125 N 
HETATM   11  C13 UNL     1      21.860   5.039  47.701  1.00  0.00     0.303 C 
HETATM   12  C14 UNL     1      20.992   4.211  48.660  1.00  0.00     0.305 C 
HETATM   13  N5  UNL     1      21.936   4.086  49.796  1.00  0.00     0.130 N 
HETATM   14  C15 UNL     1      22.041   5.478  50.285  1.00  0.00     0.278 C 
HETATM   15  C16 UNL     1      22.969   5.510  51.492  1.00  0.00     0.057 C 
HETATM   16  C17 UNL     1      22.439   4.491  52.525  1.00  0.00     0.179 C 
HETATM   17  O2  UNL     1      22.301   3.260  51.893  1.00  0.00    -0.331 OA
HETATM   18  H11 UNL     1      23.922   4.765  47.411  1.00  0.00     0.319 HD
ENDROOT
BRANCH   4  19
HETATM   19  N1  UNL     1      26.214   1.603  52.484  1.00  0.00    -0.349 N 
HETATM   20  H5  UNL     1      25.666   0.923  53.053  1.00  0.00     0.167 HD
BRANCH  19  21
HETATM   21  C6  UNL     1      27.571   1.759  52.914  1.00  0.00     0.101 C 
HETATM   22  C7  UNL     1      28.375   0.752  53.258  1.00  0.00    -0.021 A 
HETATM   23  C8  UNL     1      29.592   0.063  53.711  1.00  0.00     0.013 A 
HETATM   24  C9  UNL     1      28.550  -0.680  53.431  1.00  0.00     0.013 A 
ENDBRANCH  19  21
ENDBRANCH   4  19
BRANCH   1  25
HETATM   25  O1  UNL     1      21.778   1.130  53.157  1.00  0.00    -0.336 OA
HETATM   26  C1  UNL     1      22.349  -0.139  53.413  1.00  0.00     0.212 C 
ENDBRANCH   1  25
TORSDOF 3
ENDMDL
MODEL 7
REMARK VINA RESULT:      -7.0      1.841      6.009
REMARK  3 active torsions:
REMARK  status: ('A' for Active; 'I' for Inactive)
REMARK    1  A    between atoms: O1_2  and  C2_3 
REMARK    2  A    between atoms: C5_6  and  N1_7 
REMARK    3  A    between atoms: N1_7  and  C6_8 
ROOT
HETATM    1  C2  UNL     1      21.995   3.704  49.905  1.00  0.00     0.180 C 
HETATM    2  C3  UNL     1      22.936   2.771  50.130  1.00  0.00     0.081 C 
HETATM    3  C4  UNL     1      24.340   2.745  50.607  1.00  0.00     0.043 A 
HETATM    4  C5  UNL     1      24.429   1.726  51.525  1.00  0.00     0.141 A 
HETATM    5  N2  UNL     1      25.606   1.458  52.172  1.00  0.00    -0.224 NA
HETATM    6  C10 UNL     1      26.666   2.256  51.849  1.00  0.00     0.235 A 
HETATM    7  N3  UNL     1      26.520   3.234  50.947  1.00  0.00    -0.241 NA
HETATM    8  C11 UNL     1      25.404   3.548  50.281  1.00  0.00     0.113 A 
HETATM    9  C12 UNL     1      25.617   4.660  49.376  1.00  0.00     0.506 C 
HETATM   10  N4  UNL     1      26.792   5.470  49.660  1.00  0.00     0.125 N 
HETATM   11  C13 UNL     1      26.646   6.527  48.646  1.00  0.00     0.303 C 
HETATM   12  C14 UNL     1      25.175   6.473  48.207  1.00  0.00     0.305 C 
HETATM   13  N5  UNL     1      24.614   5.690  49.334  1.00  0.00     0.130 N 
HETATM   14  C15 UNL     1      24.766   6.615  50.478  1.00  0.00     0.278 C 
HETATM   15  C16 UNL     1      24.196   5.953  51.726  1.00  0.00     0.057 C 
HETATM   16  C17 UNL     1      22.744   5.527  51.417  1.00  0.00     0.179 C 
HETATM   17  O2  UNL     1      22.753   4.750  50.265  1.00  0.00    -0.331 OA
HETATM   18  H11 UNL     1      27.692   4.932  49.525  1.00  0.00     0.319 HD
ENDROOT
BRANCH   4  19
HETATM   19  N1  UNL     1      23.390   0.846  51.927  1.00  0.00    -0.349 N 
HETATM   20  H5  UNL     1      22.443   0.681  51.523  1.00  0.00     0.167 HD
BRANCH  19  21
HETATM   21  C6  UNL     1      23.677   0.045  53.079  1.00  0.00     0.101 C 
HETATM   22  C7  UNL     1      22.751  -0.521  53.855  1.00  0.00    -0.021 A 
HETATM   23  C8  UNL     1      22.183  -1.308  54.958  1.00  0.00     0.013 A 
HETATM   24  C9  UNL     1      21.342  -0.746  54.126  1.00  0.00     0.013 A 
ENDBRANCH  19  21
ENDBRANCH   4  19
BRANCH   1  25
HETATM   25  O1  UNL     1      20.710   3.498  49.449  1.00  0.00    -0.336 OA
HETATM   26  C1  UNL     1      20.313   2.179  49.123  1.00  0.00     0.212 C 
ENDBRANCH   1  25
TORSDOF 3
ENDMDL
MODEL 8
REMARK VINA RESULT:      -6.8      2.884      4.373
REMARK  3 active torsions:
REMARK  status: ('A' for Active; 'I' for Inactive)
REMARK    1  A    between atoms: O1_2  and  C2_3 
REMARK    2  A    between atoms: C5_6  and  N1_7 
REMARK    3  A    between atoms: N1_7  and  C6_8 
ROOT
HETATM    1  C2  UNL     1      22.651   1.581  52.350  1.00  0.00     0.180 C 
HETATM    2  C3  UNL     1      22.940   1.698  51.043  1.00  0.00     0.081 C 
HETATM    3  C4  UNL     1      22.234   2.136  49.815  1.00  0.00     0.043 A 
HETATM    4  C5  UNL     1      23.099   2.956  49.130  1.00  0.00     0.141 A 
HETATM    5  N2  UNL     1      22.729   3.546  47.951  1.00  0.00    -0.224 NA
HETATM    6  C10 UNL     1      21.466   3.269  47.509  1.00  0.00     0.235 A 
HETATM    7  N3  UNL     1      20.668   2.463  48.219  1.00  0.00    -0.241 NA
HETATM    8  C11 UNL     1      20.966   1.857  49.372  1.00  0.00     0.113 A 
HETATM    9  C12 UNL     1      19.860   1.050  49.852  1.00  0.00     0.506 C 
HETATM   10  N4  UNL     1      18.564   1.376  49.277  1.00  0.00     0.125 N 
HETATM   11  C13 UNL     1      17.692   0.465  50.037  1.00  0.00     0.303 C 
HETATM   12  C14 UNL     1      18.504   0.060  51.276  1.00  0.00     0.305 C 
HETATM   13  N5  UNL     1      19.534   1.126  51.251  1.00  0.00     0.130 N 
HETATM   14  C15 UNL     1      18.747   2.344  51.539  1.00  0.00     0.278 C 
HETATM   15  C16 UNL     1      19.687   3.542  51.577  1.00  0.00     0.057 C 
HETATM   16  C17 UNL     1      20.810   3.232  52.592  1.00  0.00     0.179 C 
HETATM   17  O2  UNL     1      21.386   2.014  52.248  1.00  0.00    -0.331 OA
HETATM   18  H11 UNL     1      18.521   1.171  48.241  1.00  0.00     0.319 HD
ENDROOT
BRANCH   4  19
HETATM   19  N1  UNL     1      24.423   3.302  49.505  1.00  0.00    -0.349 N 
HETATM   20  H5  UNL     1      25.186   2.727  49.922  1.00  0.00     0.167 HD
BRANCH  19  21
HETATM   21  C6  UNL     1      24.786   4.670  49.279  1.00  0.00     0.101 C 
HETATM   22  C7  UNL     1      26.017   5.085  48.981  1.00  0.00    -0.021 A 
HETATM   23  C8  UNL     1      27.109   6.013  48.654  1.00  0.00     0.013 A 
HETATM   24  C9  UNL     1      27.408   4.740  48.735  1.00  0.00     0.013 A 
ENDBRANCH  19  21
ENDBRANCH   4  19
BRANCH   1  25
HETATM   25  O1  UNL     1      23.489   1.140  53.353  1.00  0.00    -0.336 OA
HETATM   26  C1  UNL     1      24.668   0.447  52.991  1.00  0.00     0.212 C 
ENDBRANCH   1  25
TORSDOF 3
ENDMDL
MODEL 9
REMARK VINA RESULT:      -6.8      2.403      5.263
REMARK  3 active torsions:
REMARK  status: ('A' for Active; 'I' for Inactive)
REMARK    1  A    between atoms: O1_2  and  C2_3 
REMARK    2  A    between atoms: C5_6  and  N1_7 
REMARK    3  A    between atoms: N1_7  and  C6_8 
ROOT
HETATM    1  C2  UNL     1      23.034   2.127  49.891  1.00  0.00     0.180 C 
HETATM    2  C3  UNL     1      22.185   1.324  50.555  1.00  0.00     0.081 C 
HETATM    3  C4  UNL     1      22.042   0.810  51.939  1.00  0.00     0.043 A 
HETATM    4  C5  UNL     1      20.717   0.944  52.277  1.00  0.00     0.141 A 
HETATM    5  N2  UNL     1      20.263   0.576  53.516  1.00  0.00    -0.224 NA
HETATM    6  C10 UNL     1      21.198   0.074  54.375  1.00  0.00     0.235 A 
HETATM    7  N3  UNL     1      22.475  -0.034  53.990  1.00  0.00    -0.241 NA
HETATM    8  C11 UNL     1      22.983   0.306  52.800  1.00  0.00     0.113 A 
HETATM    9  C12 UNL     1      24.407   0.042  52.733  1.00  0.00     0.506 C 
HETATM   10  N4  UNL     1      25.068  -0.109  54.020  1.00  0.00     0.125 N 
HETATM   11  C13 UNL     1      26.468  -0.259  53.592  1.00  0.00     0.303 C 
HETATM   12  C14 UNL     1      26.518   0.287  52.157  1.00  0.00     0.305 C 
HETATM   13  N5  UNL     1      25.247   1.049  52.142  1.00  0.00     0.130 N 
HETATM   14  C15 UNL     1      25.512   2.139  53.106  1.00  0.00     0.278 C 
HETATM   15  C16 UNL     1      24.288   3.042  53.180  1.00  0.00     0.057 C 
HETATM   16  C17 UNL     1      23.951   3.504  51.745  1.00  0.00     0.179 C 
HETATM   17  O2  UNL     1      23.831   2.377  50.940  1.00  0.00    -0.331 OA
HETATM   18  H11 UNL     1      24.735  -0.964  54.545  1.00  0.00     0.319 HD
ENDROOT
BRANCH   4  19
HETATM   19  N1  UNL     1      19.674   1.452  51.459  1.00  0.00    -0.349 N 
HETATM   20  H5  UNL     1      19.196   1.038  50.630  1.00  0.00     0.167 HD
BRANCH  19  21
HETATM   21  C6  UNL     1      19.188   2.750  51.821  1.00  0.00     0.101 C 
HETATM   22  C7  UNL     1      17.942   3.176  51.611  1.00  0.00    -0.021 A 
HETATM   23  C8  UNL     1      16.784   4.081  51.615  1.00  0.00     0.013 A 
HETATM   24  C9  UNL     1      16.613   2.890  51.097  1.00  0.00     0.013 A 
ENDBRANCH  19  21
ENDBRANCH   4  19
BRANCH   1  25
HETATM   25  O1  UNL     1      22.974   2.486  48.561  1.00  0.00    -0.336 OA
HETATM   26  C1  UNL     1      22.651   3.825  48.237  1.00  0.00     0.212 C 
ENDBRANCH   1  25
TORSDOF 3
ENDMDL
