MODEL 1
REMARK VINA RESULT:      -8.8      0.000      0.000
REMARK  4 active torsions:
REMARK  status: ('A' for Active; 'I' for Inactive)
REMARK    1  A    between atoms: C7_9  and  N3_10 
REMARK    2  A    between atoms: N3_10  and  C8_11 
REMARK    3  A    between atoms: C11_14  and  O1_15 
REMARK    4  A    between atoms: O1_15  and  C12_16 
ROOT
HETATM    1  C1  UNL     1      27.107   8.939  49.696  1.00  0.00     0.071 C 
HETATM    2  C2  UNL     1      28.475   8.571  49.189  1.00  0.00     0.043 A 
HETATM    3  N1  UNL     1      29.568   9.272  49.299  1.00  0.00    -0.263 NA
HETATM    4  C3  UNL     1      30.666   8.599  48.696  1.00  0.00     0.140 A 
HETATM    5  C4  UNL     1      30.295   7.433  48.178  1.00  0.00     0.075 A 
HETATM    6  C5  UNL     1      31.108   6.468  47.488  1.00  0.00     0.102 C 
HETATM    7  N2  UNL     1      31.760   5.673  46.940  1.00  0.00    -0.191 NA
HETATM    8  C6  UNL     1      28.870   7.366  48.472  1.00  0.00     0.026 A 
HETATM    9  C7  UNL     1      28.082   6.363  48.134  1.00  0.00     0.103 C 
ENDROOT
BRANCH   9  10
HETATM   10  N3  UNL     1      26.694   6.335  48.440  1.00  0.00    -0.365 N 
HETATM   11  H6  UNL     1      26.057   7.124  48.196  1.00  0.00     0.165 HD
BRANCH  10  12
HETATM   12  C8  UNL     1      26.158   5.194  49.100  1.00  0.00     0.033 A 
HETATM   13  C9  UNL     1      26.893   4.051  49.243  1.00  0.00     0.032 A 
HETATM   14  C10 UNL     1      26.414   2.924  49.874  1.00  0.00     0.041 A 
HETATM   15  C11 UNL     1      25.140   2.910  50.399  1.00  0.00     0.091 A 
HETATM   16  C21 UNL     1      24.374   4.076  50.260  1.00  0.00     0.069 A 
HETATM   17 CL1  UNL     1      22.717   4.318  50.842  1.00  0.00    -0.081 Cl
HETATM   18  C22 UNL     1      24.874   5.210  49.617  1.00  0.00     0.056 A 
BRANCH  15  19
HETATM   19  O1  UNL     1      24.388   1.967  51.071  1.00  0.00    -0.340 OA
BRANCH  19  20
HETATM   20  C12 UNL     1      24.765   1.522  52.321  1.00  0.00     0.162 C 
HETATM   21  C13 UNL     1      25.781   0.403  52.299  1.00  0.00     0.042 C 
HETATM   22  C14 UNL     1      25.541  -0.355  53.602  1.00  0.00     0.042 C 
HETATM   23  C15 UNL     1      24.072  -0.251  53.801  1.00  0.00    -0.049 A 
HETATM   24  C16 UNL     1      23.107  -0.943  54.508  1.00  0.00     0.007 A 
HETATM   25  C20 UNL     1      23.652   0.832  53.056  1.00  0.00    -0.023 A 
HETATM   26  C17 UNL     1      21.773  -0.552  54.464  1.00  0.00     0.001 A 
HETATM   27  C18 UNL     1      21.376   0.538  53.710  1.00  0.00     0.001 A 
HETATM   28  C19 UNL     1      22.328   1.239  52.996  1.00  0.00     0.010 A 
ENDBRANCH  19  20
ENDBRANCH  15  19
ENDBRANCH  10  12
ENDBRANCH   9  10
TORSDOF 4
ENDMDL
MODEL 2
REMARK VINA RESULT:      -8.7      2.068      2.987
REMARK  4 active torsions:
REMARK  status: ('A' for Active; 'I' for Inactive)
REMARK    1  A    between atoms: C7_9  and  N3_10 
REMARK    2  A    between atoms: N3_10  and  C8_11 
REMARK    3  A    between atoms: C11_14  and  O1_15 
REMARK    4  A    between atoms: O1_15  and  C12_16 
ROOT
HETATM    1  C1  UNL     1      30.035   8.654  49.069  1.00  0.00     0.071 C 
HETATM    2  C2  UNL     1      31.071   7.585  48.853  1.00  0.00     0.043 A 
HETATM    3  N1  UNL     1      32.353   7.678  49.072  1.00  0.00    -0.263 NA
HETATM    4  C3  UNL     1      33.014   6.461  48.749  1.00  0.00     0.140 A 
HETATM    5  C4  UNL     1      32.156   5.546  48.309  1.00  0.00     0.075 A 
HETATM    6  C5  UNL     1      32.433   4.200  47.885  1.00  0.00     0.102 C 
HETATM    7  N2  UNL     1      32.644   3.104  47.551  1.00  0.00    -0.191 NA
HETATM    8  C6  UNL     1      30.871   6.230  48.356  1.00  0.00     0.026 A 
HETATM    9  C7  UNL     1      29.722   5.689  48.002  1.00  0.00     0.103 C 
ENDROOT
BRANCH   9  10
HETATM   10  N3  UNL     1      28.486   6.391  48.063  1.00  0.00    -0.365 N 
HETATM   11  H6  UNL     1      28.406   7.395  47.789  1.00  0.00     0.165 HD
BRANCH  10  12
HETATM   12  C8  UNL     1      27.325   5.702  48.510  1.00  0.00     0.033 A 
HETATM   13  C9  UNL     1      27.402   4.425  48.989  1.00  0.00     0.032 A 
HETATM   14  C10 UNL     1      26.304   3.722  49.433  1.00  0.00     0.041 A 
HETATM   15  C11 UNL     1      25.053   4.298  49.410  1.00  0.00     0.091 A 
HETATM   16  C21 UNL     1      24.958   5.610  48.921  1.00  0.00     0.069 A 
HETATM   17 CL1  UNL     1      23.477   6.573  48.785  1.00  0.00    -0.081 Cl
HETATM   18  C22 UNL     1      26.082   6.309  48.475  1.00  0.00     0.056 A 
BRANCH  15  19
HETATM   19  O1  UNL     1      23.791   3.872  49.773  1.00  0.00    -0.340 OA
BRANCH  19  20
HETATM   20  C12 UNL     1      23.329   2.629  49.393  1.00  0.00     0.162 C 
HETATM   21  C13 UNL     1      22.034   2.662  48.615  1.00  0.00     0.042 C 
HETATM   22  C14 UNL     1      21.387   1.308  48.894  1.00  0.00     0.042 C 
HETATM   23  C15 UNL     1      21.783   1.015  50.297  1.00  0.00    -0.049 A 
HETATM   24  C16 UNL     1      21.320   0.208  51.318  1.00  0.00     0.007 A 
HETATM   25  C20 UNL     1      22.897   1.785  50.557  1.00  0.00    -0.023 A 
HETATM   26  C17 UNL     1      21.961   0.182  52.552  1.00  0.00     0.001 A 
HETATM   27  C18 UNL     1      23.078   0.962  52.790  1.00  0.00     0.001 A 
HETATM   28  C19 UNL     1      23.553   1.775  51.779  1.00  0.00     0.010 A 
ENDBRANCH  19  20
ENDBRANCH  15  19
ENDBRANCH  10  12
ENDBRANCH   9  10
TORSDOF 4
ENDMDL
MODEL 3
REMARK VINA RESULT:      -8.6      3.989      9.348
REMARK  4 active torsions:
REMARK  status: ('A' for Active; 'I' for Inactive)
REMARK    1  A    between atoms: C7_9  and  N3_10 
REMARK    2  A    between atoms: N3_10  and  C8_11 
REMARK    3  A    between atoms: C11_14  and  O1_15 
REMARK    4  A    between atoms: O1_15  and  C12_16 
ROOT
HETATM    1  C1  UNL     1      20.017  -0.445  53.359  1.00  0.00     0.071 C 
HETATM    2  C2  UNL     1      21.290  -0.839  54.058  1.00  0.00     0.043 A 
HETATM    3  N1  UNL     1      21.430  -1.749  54.980  1.00  0.00    -0.263 NA
HETATM    4  C3  UNL     1      22.784  -1.840  55.403  1.00  0.00     0.140 A 
HETATM    5  C4  UNL     1      23.554  -0.975  54.751  1.00  0.00     0.075 A 
HETATM    6  C5  UNL     1      24.970  -0.761  54.895  1.00  0.00     0.102 C 
HETATM    7  N2  UNL     1      26.118  -0.589  54.994  1.00  0.00    -0.191 NA
HETATM    8  C6  UNL     1      22.626  -0.294  53.859  1.00  0.00     0.026 A 
HETATM    9  C7  UNL     1      22.964   0.660  53.013  1.00  0.00     0.103 C 
ENDROOT
BRANCH   9  10
HETATM   10  N3  UNL     1      22.026   1.301  52.157  1.00  0.00    -0.365 N 
HETATM   11  H6  UNL     1      21.012   1.055  52.165  1.00  0.00     0.165 HD
BRANCH  10  12
HETATM   12  C8  UNL     1      22.486   2.308  51.264  1.00  0.00     0.033 A 
HETATM   13  C9  UNL     1      22.991   3.488  51.731  1.00  0.00     0.032 A 
HETATM   14  C10 UNL     1      23.448   4.490  50.903  1.00  0.00     0.041 A 
HETATM   15  C11 UNL     1      23.411   4.332  49.535  1.00  0.00     0.091 A 
HETATM   16  C21 UNL     1      22.895   3.125  49.040  1.00  0.00     0.069 A 
HETATM   17 CL1  UNL     1      22.737   2.672  47.335  1.00  0.00    -0.081 Cl
HETATM   18  C22 UNL     1      22.436   2.120  49.894  1.00  0.00     0.056 A 
BRANCH  15  19
HETATM   19  O1  UNL     1      23.781   5.122  48.465  1.00  0.00    -0.340 OA
BRANCH  19  20
HETATM   20  C12 UNL     1      24.463   6.305  48.663  1.00  0.00     0.162 C 
HETATM   21  C13 UNL     1      24.183   7.363  47.621  1.00  0.00     0.042 C 
HETATM   22  C14 UNL     1      25.442   8.225  47.606  1.00  0.00     0.042 C 
HETATM   23  C15 UNL     1      26.534   7.253  47.874  1.00  0.00    -0.049 A 
HETATM   24  C16 UNL     1      27.899   7.202  47.668  1.00  0.00     0.007 A 
HETATM   25  C20 UNL     1      25.946   6.163  48.480  1.00  0.00    -0.023 A 
HETATM   26  C17 UNL     1      28.638   6.090  48.061  1.00  0.00     0.001 A 
HETATM   27  C18 UNL     1      28.027   5.008  48.667  1.00  0.00     0.001 A 
HETATM   28  C19 UNL     1      26.662   5.044  48.880  1.00  0.00     0.010 A 
ENDBRANCH  19  20
ENDBRANCH  15  19
ENDBRANCH  10  12
ENDBRANCH   9  10
TORSDOF 4
ENDMDL
MODEL 4
REMARK VINA RESULT:      -8.5      1.261      1.936
REMARK  4 active torsions:
REMARK  status: ('A' for Active; 'I' for Inactive)
REMARK    1  A    between atoms: C7_9  and  N3_10 
REMARK    2  A    between atoms: N3_10  and  C8_11 
REMARK    3  A    between atoms: C11_14  and  O1_15 
REMARK    4  A    between atoms: O1_15  and  C12_16 
ROOT
HETATM    1  C1  UNL     1      27.609   9.657  49.562  1.00  0.00     0.071 C 
HETATM    2  C2  UNL     1      29.008   9.181  49.277  1.00  0.00     0.043 A 
HETATM    3  N1  UNL     1      30.120   9.801  49.554  1.00  0.00    -0.263 NA
HETATM    4  C3  UNL     1      31.245   9.041  49.134  1.00  0.00     0.140 A 
HETATM    5  C4  UNL     1      30.873   7.897  48.568  1.00  0.00     0.075 A 
HETATM    6  C5  UNL     1      31.710   6.864  48.019  1.00  0.00     0.102 C 
HETATM    7  N2  UNL     1      32.378   6.015  47.582  1.00  0.00    -0.191 NA
HETATM    8  C6  UNL     1      29.419   7.939  48.636  1.00  0.00     0.026 A 
HETATM    9  C7  UNL     1      28.621   6.991  48.183  1.00  0.00     0.103 C 
ENDROOT
BRANCH   9  10
HETATM   10  N3  UNL     1      27.203   7.070  48.268  1.00  0.00    -0.365 N 
HETATM   11  H6  UNL     1      26.662   7.833  47.807  1.00  0.00     0.165 HD
BRANCH  10  12
HETATM   12  C8  UNL     1      26.502   6.076  49.006  1.00  0.00     0.033 A 
HETATM   13  C9  UNL     1      26.925   4.777  49.019  1.00  0.00     0.032 A 
HETATM   14  C10 UNL     1      26.278   3.783  49.720  1.00  0.00     0.041 A 
HETATM   15  C11 UNL     1      25.149   4.073  50.454  1.00  0.00     0.091 A 
HETATM   16  C21 UNL     1      24.703   5.402  50.451  1.00  0.00     0.069 A 
HETATM   17 CL1  UNL     1      23.287   6.036  51.308  1.00  0.00    -0.081 Cl
HETATM   18  C22 UNL     1      25.371   6.398  49.735  1.00  0.00     0.056 A 
BRANCH  15  19
HETATM   19  O1  UNL     1      24.296   3.325  51.242  1.00  0.00    -0.340 OA
BRANCH  19  20
HETATM   20  C12 UNL     1      23.681   2.196  50.742  1.00  0.00     0.162 C 
HETATM   21  C13 UNL     1      22.278   2.431  50.231  1.00  0.00     0.042 C 
HETATM   22  C14 UNL     1      21.586   1.079  50.383  1.00  0.00     0.042 C 
HETATM   23  C15 UNL     1      22.192   0.514  51.617  1.00  0.00    -0.049 A 
HETATM   24  C16 UNL     1      21.849  -0.446  52.550  1.00  0.00     0.007 A 
HETATM   25  C20 UNL     1      23.390   1.172  51.800  1.00  0.00    -0.023 A 
HETATM   26  C17 UNL     1      22.688  -0.729  53.623  1.00  0.00     0.001 A 
HETATM   27  C18 UNL     1      23.886  -0.058  53.785  1.00  0.00     0.001 A 
HETATM   28  C19 UNL     1      24.242   0.906  52.862  1.00  0.00     0.010 A 
ENDBRANCH  19  20
ENDBRANCH  15  19
ENDBRANCH  10  12
ENDBRANCH   9  10
TORSDOF 4
ENDMDL
MODEL 5
REMARK VINA RESULT:      -8.3      4.961      7.950
REMARK  4 active torsions:
REMARK  status: ('A' for Active; 'I' for Inactive)
REMARK    1  A    between atoms: C7_9  and  N3_10 
REMARK    2  A    between atoms: N3_10  and  C8_11 
REMARK    3  A    between atoms: C11_14  and  O1_15 
REMARK    4  A    between atoms: O1_15  and  C12_16 
ROOT
HETATM    1  C1  UNL     1      25.407   3.047  50.369  1.00  0.00     0.071 C 
HETATM    2  C2  UNL     1      26.202   2.437  51.492  1.00  0.00     0.043 A 
HETATM    3  N1  UNL     1      27.463   2.632  51.757  1.00  0.00    -0.263 NA
HETATM    4  C3  UNL     1      27.864   1.884  52.897  1.00  0.00     0.140 A 
HETATM    5  C4  UNL     1      26.853   1.182  53.397  1.00  0.00     0.075 A 
HETATM    6  C5  UNL     1      26.857   0.307  54.538  1.00  0.00     0.102 C 
HETATM    7  N2  UNL     1      26.845  -0.395  55.469  1.00  0.00    -0.191 NA
HETATM    8  C6  UNL     1      25.741   1.507  52.514  1.00  0.00     0.026 A 
HETATM    9  C7  UNL     1      24.519   1.025  52.640  1.00  0.00     0.103 C 
ENDROOT
BRANCH   9  10
HETATM   10  N3  UNL     1      23.459   1.368  51.755  1.00  0.00    -0.365 N 
HETATM   11  H6  UNL     1      23.616   1.948  50.902  1.00  0.00     0.165 HD
BRANCH  10  12
HETATM   12  C8  UNL     1      22.146   0.905  52.044  1.00  0.00     0.033 A 
HETATM   13  C9  UNL     1      21.059   1.410  51.388  1.00  0.00     0.032 A 
HETATM   14  C10 UNL     1      19.771   0.990  51.635  1.00  0.00     0.041 A 
HETATM   15  C11 UNL     1      19.526   0.017  52.580  1.00  0.00     0.091 A 
HETATM   16  C21 UNL     1      20.631  -0.511  53.261  1.00  0.00     0.069 A 
HETATM   17 CL1  UNL     1      20.592  -1.763  54.515  1.00  0.00    -0.081 Cl
HETATM   18  C22 UNL     1      21.932  -0.074  52.999  1.00  0.00     0.056 A 
BRANCH  15  19
HETATM   19  O1  UNL     1      18.384  -0.602  53.048  1.00  0.00    -0.340 OA
BRANCH  19  20
HETATM   20  C12 UNL     1      17.453  -1.122  52.173  1.00  0.00     0.162 C 
HETATM   21  C13 UNL     1      16.227  -0.257  51.988  1.00  0.00     0.042 C 
HETATM   22  C14 UNL     1      15.123  -1.237  51.602  1.00  0.00     0.042 C 
HETATM   23  C15 UNL     1      15.458  -2.462  52.374  1.00  0.00    -0.049 A 
HETATM   24  C16 UNL     1      14.780  -3.582  52.814  1.00  0.00     0.007 A 
HETATM   25  C20 UNL     1      16.798  -2.370  52.689  1.00  0.00    -0.023 A 
HETATM   26  C17 UNL     1      15.435  -4.571  53.542  1.00  0.00     0.001 A 
HETATM   27  C18 UNL     1      16.779  -4.459  53.845  1.00  0.00     0.001 A 
HETATM   28  C19 UNL     1      17.471  -3.344  53.413  1.00  0.00     0.010 A 
ENDBRANCH  19  20
ENDBRANCH  15  19
ENDBRANCH  10  12
ENDBRANCH   9  10
TORSDOF 4
ENDMDL
MODEL 6
REMARK VINA RESULT:      -8.2      6.500     10.639
REMARK  4 active torsions:
REMARK  status: ('A' for Active; 'I' for Inactive)
REMARK    1  A    between atoms: C7_9  and  N3_10 
REMARK    2  A    between atoms: N3_10  and  C8_11 
REMARK    3  A    between atoms: C11_14  and  O1_15 
REMARK    4  A    between atoms: O1_15  and  C12_16 
ROOT
HETATM    1  C1  UNL     1      17.017   1.223  51.607  1.00  0.00     0.071 C 
HETATM    2  C2  UNL     1      16.614  -0.194  51.913  1.00  0.00     0.043 A 
HETATM    3  N1  UNL     1      15.525  -0.800  51.532  1.00  0.00    -0.263 NA
HETATM    4  C3  UNL     1      15.491  -2.137  52.015  1.00  0.00     0.140 A 
HETATM    5  C4  UNL     1      16.576  -2.422  52.728  1.00  0.00     0.075 A 
HETATM    6  C5  UNL     1      16.911  -3.660  53.380  1.00  0.00     0.102 C 
HETATM    7  N2  UNL     1      17.198  -4.661  53.901  1.00  0.00    -0.191 NA
HETATM    8  C6  UNL     1      17.343  -1.185  52.694  1.00  0.00     0.026 A 
HETATM    9  C7  UNL     1      18.511  -1.012  53.282  1.00  0.00     0.103 C 
ENDROOT
BRANCH   9  10
HETATM   10  N3  UNL     1      19.230   0.214  53.224  1.00  0.00    -0.365 N 
HETATM   11  H6  UNL     1      18.758   1.139  53.325  1.00  0.00     0.165 HD
BRANCH  10  12
HETATM   12  C8  UNL     1      20.638   0.177  53.023  1.00  0.00     0.033 A 
HETATM   13  C9  UNL     1      21.385  -0.882  53.456  1.00  0.00     0.032 A 
HETATM   14  C10 UNL     1      22.749  -0.959  53.282  1.00  0.00     0.041 A 
HETATM   15  C11 UNL     1      23.428   0.058  52.647  1.00  0.00     0.091 A 
HETATM   16  C21 UNL     1      22.675   1.152  52.197  1.00  0.00     0.069 A 
HETATM   17 CL1  UNL     1      23.299   2.581  51.357  1.00  0.00    -0.081 Cl
HETATM   18  C22 UNL     1      21.292   1.215  52.382  1.00  0.00     0.056 A 
BRANCH  15  19
HETATM   19  O1  UNL     1      24.753   0.276  52.326  1.00  0.00    -0.340 OA
BRANCH  19  20
HETATM   20  C12 UNL     1      25.683   0.544  53.309  1.00  0.00     0.162 C 
HETATM   21  C13 UNL     1      26.367   1.884  53.166  1.00  0.00     0.042 C 
HETATM   22  C14 UNL     1      27.721   1.696  53.844  1.00  0.00     0.042 C 
HETATM   23  C15 UNL     1      28.069   0.282  53.544  1.00  0.00    -0.049 A 
HETATM   24  C16 UNL     1      29.223  -0.476  53.502  1.00  0.00     0.007 A 
HETATM   25  C20 UNL     1      26.883  -0.355  53.240  1.00  0.00    -0.023 A 
HETATM   26  C17 UNL     1      29.177  -1.826  53.167  1.00  0.00     0.001 A 
HETATM   27  C18 UNL     1      27.977  -2.444  52.868  1.00  0.00     0.001 A 
HETATM   28  C19 UNL     1      26.814  -1.699  52.904  1.00  0.00     0.010 A 
ENDBRANCH  19  20
ENDBRANCH  15  19
ENDBRANCH  10  12
ENDBRANCH   9  10
TORSDOF 4
ENDMDL
MODEL 7
REMARK VINA RESULT:      -8.1      1.804      2.734
REMARK  4 active torsions:
REMARK  status: ('A' for Active; 'I' for Inactive)
REMARK    1  A    between atoms: C7_9  and  N3_10 
REMARK    2  A    between atoms: N3_10  and  C8_11 
REMARK    3  A    between atoms: C11_14  and  O1_15 
REMARK    4  A    between atoms: O1_15  and  C12_16 
ROOT
HETATM    1  C1  UNL     1      28.124   8.542  45.253  1.00  0.00     0.071 C 
HETATM    2  C2  UNL     1      29.544   8.150  45.563  1.00  0.00     0.043 A 
HETATM    3  N1  UNL     1      30.604   8.412  44.850  1.00  0.00    -0.263 NA
HETATM    4  C3  UNL     1      31.771   7.880  45.461  1.00  0.00     0.140 A 
HETATM    5  C4  UNL     1      31.482   7.255  46.598  1.00  0.00     0.075 A 
HETATM    6  C5  UNL     1      32.382   6.591  47.501  1.00  0.00     0.102 C 
HETATM    7  N2  UNL     1      33.104   6.061  48.246  1.00  0.00    -0.191 NA
HETATM    8  C6  UNL     1      30.037   7.402  46.711  1.00  0.00     0.026 A 
HETATM    9  C7  UNL     1      29.312   6.926  47.705  1.00  0.00     0.103 C 
ENDROOT
BRANCH   9  10
HETATM   10  N3  UNL     1      27.901   7.092  47.779  1.00  0.00    -0.365 N 
HETATM   11  H6  UNL     1      27.404   7.848  47.260  1.00  0.00     0.165 HD
BRANCH  10  12
HETATM   12  C8  UNL     1      27.145   6.196  48.586  1.00  0.00     0.033 A 
HETATM   13  C9  UNL     1      27.431   4.861  48.615  1.00  0.00     0.032 A 
HETATM   14  C10 UNL     1      26.726   3.959  49.382  1.00  0.00     0.041 A 
HETATM   15  C11 UNL     1      25.678   4.385  50.169  1.00  0.00     0.091 A 
HETATM   16  C21 UNL     1      25.373   5.754  50.149  1.00  0.00     0.069 A 
HETATM   17 CL1  UNL     1      24.083   6.555  51.061  1.00  0.00    -0.081 Cl
HETATM   18  C22 UNL     1      26.098   6.655  49.365  1.00  0.00     0.056 A 
BRANCH  15  19
HETATM   19  O1  UNL     1      24.799   3.752  51.025  1.00  0.00    -0.340 OA
BRANCH  19  20
HETATM   20  C12 UNL     1      24.059   2.668  50.603  1.00  0.00     0.162 C 
HETATM   21  C13 UNL     1      22.601   2.975  50.348  1.00  0.00     0.042 C 
HETATM   22  C14 UNL     1      21.886   1.646  50.574  1.00  0.00     0.042 C 
HETATM   23  C15 UNL     1      22.667   1.010  51.667  1.00  0.00    -0.049 A 
HETATM   24  C16 UNL     1      22.446   0.029  52.613  1.00  0.00     0.007 A 
HETATM   25  C20 UNL     1      23.907   1.614  51.662  1.00  0.00    -0.023 A 
HETATM   26  C17 UNL     1      23.442  -0.328  53.517  1.00  0.00     0.001 A 
HETATM   27  C18 UNL     1      24.679   0.290  53.492  1.00  0.00     0.001 A 
HETATM   28  C19 UNL     1      24.915   1.275  52.552  1.00  0.00     0.010 A 
ENDBRANCH  19  20
ENDBRANCH  15  19
ENDBRANCH  10  12
ENDBRANCH   9  10
TORSDOF 4
ENDMDL
MODEL 8
REMARK VINA RESULT:      -8.1      3.400      9.441
REMARK  4 active torsions:
REMARK  status: ('A' for Active; 'I' for Inactive)
REMARK    1  A    between atoms: C7_9  and  N3_10 
REMARK    2  A    between atoms: N3_10  and  C8_11 
REMARK    3  A    between atoms: C11_14  and  O1_15 
REMARK    4  A    between atoms: O1_15  and  C12_16 
ROOT
HETATM    1  C1  UNL     1      26.706  -0.550  53.898  1.00  0.00     0.071 C 
HETATM    2  C2  UNL     1      25.270  -0.693  54.322  1.00  0.00     0.043 A 
HETATM    3  N1  UNL     1      24.817  -1.353  55.351  1.00  0.00    -0.263 NA
HETATM    4  C3  UNL     1      23.400  -1.261  55.430  1.00  0.00     0.140 A 
HETATM    5  C4  UNL     1      22.906  -0.530  54.438  1.00  0.00     0.075 A 
HETATM    6  C5  UNL     1      21.529  -0.207  54.172  1.00  0.00     0.102 C 
HETATM    7  N2  UNL     1      20.419   0.071  53.954  1.00  0.00    -0.191 NA
HETATM    8  C6  UNL     1      24.086  -0.134  53.682  1.00  0.00     0.026 A 
HETATM    9  C7  UNL     1      24.064   0.614  52.596  1.00  0.00     0.103 C 
ENDROOT
BRANCH   9  10
HETATM   10  N3  UNL     1      25.242   0.979  51.886  1.00  0.00    -0.365 N 
HETATM   11  H6  UNL     1      26.066   0.344  51.817  1.00  0.00     0.165 HD
BRANCH  10  12
HETATM   12  C8  UNL     1      25.295   2.251  51.250  1.00  0.00     0.033 A 
HETATM   13  C9  UNL     1      26.371   2.616  50.492  1.00  0.00     0.032 A 
HETATM   14  C10 UNL     1      26.463   3.836  49.859  1.00  0.00     0.041 A 
HETATM   15  C11 UNL     1      25.444   4.757  49.971  1.00  0.00     0.091 A 
HETATM   16  C21 UNL     1      24.333   4.396  50.746  1.00  0.00     0.069 A 
HETATM   17 CL1  UNL     1      22.898   5.389  51.050  1.00  0.00    -0.081 Cl
HETATM   18  C22 UNL     1      24.255   3.154  51.382  1.00  0.00     0.056 A 
BRANCH  15  19
HETATM   19  O1  UNL     1      25.239   6.029  49.475  1.00  0.00    -0.340 OA
BRANCH  19  20
HETATM   20  C12 UNL     1      25.990   7.093  49.928  1.00  0.00     0.162 C 
HETATM   21  C13 UNL     1      25.210   8.378  50.086  1.00  0.00     0.042 C 
HETATM   22  C14 UNL     1      26.251   9.480  49.910  1.00  0.00     0.042 C 
HETATM   23  C15 UNL     1      27.189   8.917  48.903  1.00  0.00    -0.049 A 
HETATM   24  C16 UNL     1      28.118   9.419  48.013  1.00  0.00     0.007 A 
HETATM   25  C20 UNL     1      27.018   7.549  48.934  1.00  0.00    -0.023 A 
HETATM   26  C17 UNL     1      28.847   8.568  47.188  1.00  0.00     0.001 A 
HETATM   27  C18 UNL     1      28.660   7.199  47.237  1.00  0.00     0.001 A 
HETATM   28  C19 UNL     1      27.733   6.682  48.121  1.00  0.00     0.010 A 
ENDBRANCH  19  20
ENDBRANCH  15  19
ENDBRANCH  10  12
ENDBRANCH   9  10
TORSDOF 4
ENDMDL
MODEL 9
REMARK VINA RESULT:      -8.1      3.271      9.251
REMARK  4 active torsions:
REMARK  status: ('A' for Active; 'I' for Inactive)
REMARK    1  A    between atoms: C7_9  and  N3_10 
REMARK    2  A    between atoms: N3_10  and  C8_11 
REMARK    3  A    between atoms: C11_14  and  O1_15 
REMARK    4  A    between atoms: O1_15  and  C12_16 
ROOT
HETATM    1  C1  UNL     1      22.603   0.333  52.313  1.00  0.00     0.071 C 
HETATM    2  C2  UNL     1      23.748   0.048  53.248  1.00  0.00     0.043 A 
HETATM    3  N1  UNL     1      23.743  -0.759  54.272  1.00  0.00    -0.263 NA
HETATM    4  C3  UNL     1      25.009  -0.768  54.917  1.00  0.00     0.140 A 
HETATM    5  C4  UNL     1      25.868   0.046  54.312  1.00  0.00     0.075 A 
HETATM    6  C5  UNL     1      27.238   0.311  54.661  1.00  0.00     0.102 C 
HETATM    7  N2  UNL     1      28.352   0.524  54.927  1.00  0.00    -0.191 NA
HETATM    8  C6  UNL     1      25.093   0.606  53.213  1.00  0.00     0.026 A 
HETATM    9  C7  UNL     1      25.557   1.477  52.338  1.00  0.00     0.103 C 
ENDROOT
BRANCH   9  10
HETATM   10  N3  UNL     1      24.766   2.001  51.278  1.00  0.00    -0.365 N 
HETATM   11  H6  UNL     1      23.871   1.555  50.982  1.00  0.00     0.165 HD
BRANCH  10  12
HETATM   12  C8  UNL     1      25.212   3.170  50.600  1.00  0.00     0.033 A 
HETATM   13  C9  UNL     1      26.357   3.160  49.855  1.00  0.00     0.032 A 
HETATM   14  C10 UNL     1      26.824   4.267  49.182  1.00  0.00     0.041 A 
HETATM   15  C11 UNL     1      26.134   5.458  49.239  1.00  0.00     0.091 A 
HETATM   16  C21 UNL     1      24.957   5.484  50.001  1.00  0.00     0.069 A 
HETATM   17 CL1  UNL     1      23.890   6.879  50.238  1.00  0.00    -0.081 Cl
HETATM   18  C22 UNL     1      24.497   4.351  50.677  1.00  0.00     0.056 A 
BRANCH  15  19
HETATM   19  O1  UNL     1      26.332   6.712  48.696  1.00  0.00    -0.340 OA
BRANCH  19  20
HETATM   20  C12 UNL     1      27.381   7.505  49.113  1.00  0.00     0.162 C 
HETATM   21  C13 UNL     1      26.959   8.735  49.882  1.00  0.00     0.042 C 
HETATM   22  C14 UNL     1      28.083   9.739  49.643  1.00  0.00     0.042 C 
HETATM   23  C15 UNL     1      28.522   9.448  48.253  1.00  0.00    -0.049 A 
HETATM   24  C16 UNL     1      29.197  10.124  47.256  1.00  0.00     0.007 A 
HETATM   25  C20 UNL     1      28.106   8.162  47.974  1.00  0.00    -0.023 A 
HETATM   26  C17 UNL     1      29.444   9.521  46.026  1.00  0.00     0.001 A 
HETATM   27  C18 UNL     1      29.019   8.230  45.770  1.00  0.00     0.001 A 
HETATM   28  C19 UNL     1      28.341   7.541  46.757  1.00  0.00     0.010 A 
ENDBRANCH  19  20
ENDBRANCH  15  19
ENDBRANCH  10  12
ENDBRANCH   9  10
TORSDOF 4
ENDMDL
