MODEL 1
REMARK VINA RESULT:      -9.1      0.000      0.000
REMARK  3 active torsions:
REMARK  status: ('A' for Active; 'I' for Inactive)
REMARK    1  A    between atoms: N1_1  and  C1_2 
REMARK    2  A    between atoms: C3_4  and  C4_5 
REMARK    3  A    between atoms: C4_5  and  C5_6 
ROOT
HETATM    1  C1  UNL     1      24.612   2.153  52.172  1.00  0.00     0.084 A 
HETATM    2  C2  UNL     1      24.706   1.052  53.107  1.00  0.00    -0.007 C 
HETATM    3  C3  UNL     1      25.495   0.320  54.025  1.00  0.00     0.046 C 
HETATM    4  N2  UNL     1      25.405  -0.807  54.947  1.00  0.00    -0.267 NA
HETATM    5  C11 UNL     1      24.203  -1.284  55.335  1.00  0.00     0.116 C 
HETATM    6  C12 UNL     1      22.755  -1.449  55.466  1.00  0.00     0.222 C 
HETATM    7  O1  UNL     1      21.920  -0.624  54.636  1.00  0.00    -0.346 OA
HETATM    8  C13 UNL     1      22.078   0.046  53.450  1.00  0.00     0.073 A 
HETATM    9  C14 UNL     1      21.287   0.370  52.361  1.00  0.00     0.016 A 
HETATM   10  C15 UNL     1      22.262   1.091  51.527  1.00  0.00     0.028 A 
HETATM   11  C16 UNL     1      23.612   1.766  50.993  1.00  0.00    -0.013 A 
HETATM   12  C17 UNL     1      23.503   1.262  51.923  1.00  0.00     0.083 A 
HETATM   13  C18 UNL     1      23.309   0.607  53.099  1.00  0.00    -0.008 A 
ENDROOT
BRANCH   3  14
HETATM   14  C4  UNL     1      26.726   1.076  53.908  1.00  0.00     0.101 C 
BRANCH  14  15
HETATM   15  C5  UNL     1      27.822   0.063  53.715  1.00  0.00    -0.014 A 
HETATM   16  C6  UNL     1      27.338  -1.016  53.023  1.00  0.00     0.010 A 
HETATM   17  C7  UNL     1      28.114  -2.134  52.737  1.00  0.00     0.001 A 
HETATM   18  C8  UNL     1      29.412  -2.130  53.176  1.00  0.00     0.003 A 
HETATM   19  C9  UNL     1      29.927  -1.044  53.881  1.00  0.00     0.043 A 
HETATM   20  C10 UNL     1      29.126   0.034  54.140  1.00  0.00     0.123 A 
HETATM   21  F1  UNL     1      29.486   1.155  54.806  1.00  0.00    -0.206 F 
ENDBRANCH  14  15
ENDBRANCH   3  14
BRANCH   1  22
HETATM   22  N1  UNL     1      23.960   3.343  52.833  1.00  0.00    -0.326 N 
HETATM   23  H1  UNL     1      24.524   4.196  52.560  1.00  0.00     0.118 HD
HETATM   24  H2  UNL     1      24.027   3.145  53.839  1.00  0.00     0.118 HD
ENDBRANCH   1  22
TORSDOF 3
ENDMDL
MODEL 2
REMARK VINA RESULT:      -8.9      1.309      1.759
REMARK  3 active torsions:
REMARK  status: ('A' for Active; 'I' for Inactive)
REMARK    1  A    between atoms: N1_1  and  C1_2 
REMARK    2  A    between atoms: C3_4  and  C4_5 
REMARK    3  A    between atoms: C4_5  and  C5_6 
ROOT
HETATM    1  C1  UNL     1      23.422   1.577  51.617  1.00  0.00     0.084 A 
HETATM    2  C2  UNL     1      23.883   0.635  52.614  1.00  0.00    -0.007 C 
HETATM    3  C3  UNL     1      24.972   0.066  53.316  1.00  0.00     0.046 C 
HETATM    4  N2  UNL     1      25.258  -0.907  54.365  1.00  0.00    -0.267 NA
HETATM    5  C11 UNL     1      24.278  -1.340  55.186  1.00  0.00     0.116 C 
HETATM    6  C12 UNL     1      22.962  -1.508  55.805  1.00  0.00     0.222 C 
HETATM    7  O1  UNL     1      21.853  -0.835  55.188  1.00  0.00    -0.346 OA
HETATM    8  C13 UNL     1      21.577  -0.353  53.934  1.00  0.00     0.073 A 
HETATM    9  C14 UNL     1      20.459  -0.214  53.129  1.00  0.00     0.016 A 
HETATM   10  C15 UNL     1      21.065   0.387  51.930  1.00  0.00     0.028 A 
HETATM   11  C16 UNL     1      22.125   0.995  50.896  1.00  0.00    -0.013 A 
HETATM   12  C17 UNL     1      22.354   0.638  51.871  1.00  0.00     0.083 A 
HETATM   13  C18 UNL     1      22.591   0.169  53.125  1.00  0.00    -0.008 A 
ENDROOT
BRANCH   3  14
HETATM   14  C4  UNL     1      26.047   0.817  52.699  1.00  0.00     0.101 C 
BRANCH  14  15
HETATM   15  C5  UNL     1      27.317   0.079  53.031  1.00  0.00    -0.014 A 
HETATM   16  C6  UNL     1      28.152   0.895  53.749  1.00  0.00     0.010 A 
HETATM   17  C7  UNL     1      29.421   0.499  54.156  1.00  0.00     0.001 A 
HETATM   18  C8  UNL     1      29.827  -0.764  53.813  1.00  0.00     0.003 A 
HETATM   19  C9  UNL     1      28.996  -1.612  53.085  1.00  0.00     0.043 A 
HETATM   20  C10 UNL     1      27.755  -1.179  52.705  1.00  0.00     0.123 A 
HETATM   21  F1  UNL     1      26.842  -1.887  52.002  1.00  0.00    -0.206 F 
ENDBRANCH  14  15
ENDBRANCH   3  14
BRANCH   1  22
HETATM   22  N1  UNL     1      22.938   2.842  52.281  1.00  0.00    -0.326 N 
HETATM   23  H1  UNL     1      23.575   3.021  53.108  1.00  0.00     0.118 HD
HETATM   24  H2  UNL     1      21.978   2.624  52.578  1.00  0.00     0.118 HD
ENDBRANCH   1  22
TORSDOF 3
ENDMDL
MODEL 3
REMARK VINA RESULT:      -8.8      1.900      3.293
REMARK  3 active torsions:
REMARK  status: ('A' for Active; 'I' for Inactive)
REMARK    1  A    between atoms: N1_1  and  C1_2 
REMARK    2  A    between atoms: C3_4  and  C4_5 
REMARK    3  A    between atoms: C4_5  and  C5_6 
ROOT
HETATM    1  C1  UNL     1      22.556  -1.057  54.172  1.00  0.00     0.084 A 
HETATM    2  C2  UNL     1      23.427  -0.169  53.433  1.00  0.00    -0.007 C 
HETATM    3  C3  UNL     1      24.728   0.113  52.953  1.00  0.00     0.046 C 
HETATM    4  N2  UNL     1      25.451   1.098  52.155  1.00  0.00    -0.267 NA
HETATM    5  C11 UNL     1      24.784   1.965  51.364  1.00  0.00     0.116 C 
HETATM    6  C12 UNL     1      23.690   2.665  50.689  1.00  0.00     0.222 C 
HETATM    7  O1  UNL     1      22.349   2.306  51.062  1.00  0.00    -0.346 OA
HETATM    8  C13 UNL     1      21.759   1.739  52.162  1.00  0.00     0.073 A 
HETATM    9  C14 UNL     1      20.549   1.848  52.827  1.00  0.00     0.016 A 
HETATM   10  C15 UNL     1      20.759   0.885  53.922  1.00  0.00     0.028 A 
HETATM   11  C16 UNL     1      21.415  -0.207  54.891  1.00  0.00    -0.013 A 
HETATM   12  C17 UNL     1      21.882   0.213  54.032  1.00  0.00     0.083 A 
HETATM   13  C18 UNL     1      22.432   0.781  52.925  1.00  0.00    -0.008 A 
ENDROOT
BRANCH   3  14
HETATM   14  C4  UNL     1      25.415  -1.045  53.487  1.00  0.00     0.101 C 
BRANCH  14  15
HETATM   15  C5  UNL     1      26.820  -0.597  53.788  1.00  0.00    -0.014 A 
HETATM   16  C6  UNL     1      27.704  -1.285  52.998  1.00  0.00     0.010 A 
HETATM   17  C7  UNL     1      29.081  -1.114  53.089  1.00  0.00     0.001 A 
HETATM   18  C8  UNL     1      29.546  -0.215  54.013  1.00  0.00     0.003 A 
HETATM   19  C9  UNL     1      28.667   0.496  54.827  1.00  0.00     0.043 A 
HETATM   20  C10 UNL     1      27.319   0.295  54.703  1.00  0.00     0.123 A 
HETATM   21  F1  UNL     1      26.350   0.912  55.417  1.00  0.00    -0.206 F 
ENDBRANCH  14  15
ENDBRANCH   3  14
BRANCH   1  22
HETATM   22  N1  UNL     1      21.803  -1.957  53.224  1.00  0.00    -0.326 N 
HETATM   23  H1  UNL     1      22.455  -2.751  52.968  1.00  0.00     0.118 HD
HETATM   24  H2  UNL     1      21.594  -1.358  52.415  1.00  0.00     0.118 HD
ENDBRANCH   1  22
TORSDOF 3
ENDMDL
MODEL 4
REMARK VINA RESULT:      -8.5      2.013      3.390
REMARK  3 active torsions:
REMARK  status: ('A' for Active; 'I' for Inactive)
REMARK    1  A    between atoms: N1_1  and  C1_2 
REMARK    2  A    between atoms: C3_4  and  C4_5 
REMARK    3  A    between atoms: C4_5  and  C5_6 
ROOT
HETATM    1  C1  UNL     1      22.496  -0.512  54.037  1.00  0.00     0.084 A 
HETATM    2  C2  UNL     1      23.518   0.354  53.490  1.00  0.00    -0.007 C 
HETATM    3  C3  UNL     1      24.882   0.729  53.456  1.00  0.00     0.046 C 
HETATM    4  N2  UNL     1      25.783   1.659  52.784  1.00  0.00    -0.267 NA
HETATM    5  C11 UNL     1      25.404   2.286  51.650  1.00  0.00     0.116 C 
HETATM    6  C12 UNL     1      24.597   2.710  50.505  1.00  0.00     0.222 C 
HETATM    7  O1  UNL     1      23.241   2.237  50.443  1.00  0.00    -0.346 OA
HETATM    8  C13 UNL     1      22.322   1.782  51.354  1.00  0.00     0.073 A 
HETATM    9  C14 UNL     1      20.947   1.832  51.511  1.00  0.00     0.016 A 
HETATM   10  C15 UNL     1      20.797   1.099  52.779  1.00  0.00     0.028 A 
HETATM   11  C16 UNL     1      21.115   0.280  54.117  1.00  0.00    -0.013 A 
HETATM   12  C17 UNL     1      21.840   0.613  53.414  1.00  0.00     0.083 A 
HETATM   13  C18 UNL     1      22.724   1.063  52.483  1.00  0.00    -0.008 A 
ENDROOT
BRANCH   3  14
HETATM   14  C4  UNL     1      25.396  -0.222  54.421  1.00  0.00     0.101 C 
BRANCH  14  15
HETATM   15  C5  UNL     1      26.828  -0.480  54.033  1.00  0.00    -0.014 A 
HETATM   16  C6  UNL     1      27.661   0.287  54.805  1.00  0.00     0.010 A 
HETATM   17  C7  UNL     1      29.041   0.295  54.639  1.00  0.00     0.001 A 
HETATM   18  C8  UNL     1      29.563  -0.507  53.658  1.00  0.00     0.003 A 
HETATM   19  C9  UNL     1      28.736  -1.295  52.861  1.00  0.00     0.043 A 
HETATM   20  C10 UNL     1      27.383  -1.270  53.060  1.00  0.00     0.123 A 
HETATM   21  F1  UNL     1      26.461  -1.980  52.371  1.00  0.00    -0.206 F 
ENDBRANCH  14  15
ENDBRANCH   3  14
BRANCH   1  22
HETATM   22  N1  UNL     1      22.214  -1.650  53.086  1.00  0.00    -0.326 N 
HETATM   23  H1  UNL     1      21.235  -1.995  53.298  1.00  0.00     0.118 HD
HETATM   24  H2  UNL     1      22.925  -2.355  53.314  1.00  0.00     0.118 HD
ENDBRANCH   1  22
TORSDOF 3
ENDMDL
MODEL 5
REMARK VINA RESULT:      -8.3      3.532      5.899
REMARK  3 active torsions:
REMARK  status: ('A' for Active; 'I' for Inactive)
REMARK    1  A    between atoms: N1_1  and  C1_2 
REMARK    2  A    between atoms: C3_4  and  C4_5 
REMARK    3  A    between atoms: C4_5  and  C5_6 
ROOT
HETATM    1  C1  UNL     1      22.592   2.216  50.868  1.00  0.00     0.084 A 
HETATM    2  C2  UNL     1      24.034   2.289  50.963  1.00  0.00    -0.007 C 
HETATM    3  C3  UNL     1      25.245   2.830  50.469  1.00  0.00     0.046 C 
HETATM    4  N2  UNL     1      26.681   2.809  50.723  1.00  0.00    -0.267 NA
HETATM    5  C11 UNL     1      27.165   2.351  51.898  1.00  0.00     0.116 C 
HETATM    6  C12 UNL     1      27.220   1.795  53.251  1.00  0.00     0.222 C 
HETATM    7  O1  UNL     1      25.983   1.355  53.834  1.00  0.00    -0.346 OA
HETATM    8  C13 UNL     1      24.765   0.948  53.352  1.00  0.00     0.073 A 
HETATM    9  C14 UNL     1      23.781   0.048  53.724  1.00  0.00     0.016 A 
HETATM   10  C15 UNL     1      22.816   0.237  52.629  1.00  0.00     0.028 A 
HETATM   11  C16 UNL     1      22.104   0.760  51.293  1.00  0.00    -0.013 A 
HETATM   12  C17 UNL     1      23.044   1.097  51.661  1.00  0.00     0.083 A 
HETATM   13  C18 UNL     1      24.239   1.491  52.175  1.00  0.00    -0.008 A 
ENDROOT
BRANCH   3  14
HETATM   14  C4  UNL     1      24.700   3.654  49.408  1.00  0.00     0.101 C 
BRANCH  14  15
HETATM   15  C5  UNL     1      25.223   5.045  49.650  1.00  0.00    -0.014 A 
HETATM   16  C6  UNL     1      24.406   5.699  50.536  1.00  0.00     0.010 A 
HETATM   17  C7  UNL     1      24.613   7.021  50.912  1.00  0.00     0.001 A 
HETATM   18  C8  UNL     1      25.685   7.673  50.362  1.00  0.00     0.003 A 
HETATM   19  C9  UNL     1      26.530   7.030  49.459  1.00  0.00     0.043 A 
HETATM   20  C10 UNL     1      26.287   5.728  49.117  1.00  0.00     0.123 A 
HETATM   21  F1  UNL     1      27.017   4.976  48.262  1.00  0.00    -0.206 F 
ENDBRANCH  14  15
ENDBRANCH   3  14
BRANCH   1  22
HETATM   22  N1  UNL     1      21.956   3.130  51.887  1.00  0.00    -0.326 N 
HETATM   23  H1  UNL     1      21.788   2.553  52.758  1.00  0.00     0.118 HD
HETATM   24  H2  UNL     1      21.075   3.427  51.449  1.00  0.00     0.118 HD
ENDBRANCH   1  22
TORSDOF 3
ENDMDL
MODEL 6
REMARK VINA RESULT:      -8.2      1.718      2.532
REMARK  3 active torsions:
REMARK  status: ('A' for Active; 'I' for Inactive)
REMARK    1  A    between atoms: N1_1  and  C1_2 
REMARK    2  A    between atoms: C3_4  and  C4_5 
REMARK    3  A    between atoms: C4_5  and  C5_6 
ROOT
HETATM    1  C1  UNL     1      25.212   3.614  51.249  1.00  0.00     0.084 A 
HETATM    2  C2  UNL     1      24.654   2.429  51.865  1.00  0.00    -0.007 C 
HETATM    3  C3  UNL     1      24.658   1.528  52.955  1.00  0.00     0.046 C 
HETATM    4  N2  UNL     1      23.965   0.340  53.444  1.00  0.00    -0.267 NA
HETATM    5  C11 UNL     1      22.774  -0.024  52.923  1.00  0.00     0.116 C 
HETATM    6  C12 UNL     1      21.565  -0.026  52.098  1.00  0.00     0.222 C 
HETATM    7  O1  UNL     1      21.473   0.965  51.061  1.00  0.00    -0.346 OA
HETATM    8  C13 UNL     1      22.369   1.717  50.345  1.00  0.00     0.073 A 
HETATM    9  C14 UNL     1      22.459   2.231  49.062  1.00  0.00     0.016 A 
HETATM   10  C15 UNL     1      23.766   2.903  49.134  1.00  0.00     0.028 A 
HETATM   11  C16 UNL     1      25.172   3.458  49.663  1.00  0.00    -0.013 A 
HETATM   12  C17 UNL     1      24.481   2.888  50.236  1.00  0.00     0.083 A 
HETATM   13  C18 UNL     1      23.564   2.156  50.924  1.00  0.00    -0.008 A 
ENDROOT
BRANCH   3  14
HETATM   14  C4  UNL     1      25.710   2.139  53.742  1.00  0.00     0.101 C 
BRANCH  14  15
HETATM   15  C5  UNL     1      26.929   1.275  53.553  1.00  0.00    -0.014 A 
HETATM   16  C6  UNL     1      26.545  -0.012  53.279  1.00  0.00     0.010 A 
HETATM   17  C7  UNL     1      27.459  -1.045  53.103  1.00  0.00     0.001 A 
HETATM   18  C8  UNL     1      28.790  -0.736  53.213  1.00  0.00     0.003 A 
HETATM   19  C9  UNL     1      29.203   0.565  53.491  1.00  0.00     0.043 A 
HETATM   20  C10 UNL     1      28.269   1.550  53.656  1.00  0.00     0.123 A 
HETATM   21  F1  UNL     1      28.518   2.852  53.925  1.00  0.00    -0.206 F 
ENDBRANCH  14  15
ENDBRANCH   3  14
BRANCH   1  22
HETATM   22  N1  UNL     1      24.331   4.808  51.524  1.00  0.00    -0.326 N 
HETATM   23  H1  UNL     1      23.597   4.497  52.221  1.00  0.00     0.118 HD
HETATM   24  H2  UNL     1      23.918   5.036  50.611  1.00  0.00     0.118 HD
ENDBRANCH   1  22
TORSDOF 3
ENDMDL
MODEL 7
REMARK VINA RESULT:      -8.1      4.342      6.677
REMARK  3 active torsions:
REMARK  status: ('A' for Active; 'I' for Inactive)
REMARK    1  A    between atoms: N1_1  and  C1_2 
REMARK    2  A    between atoms: C3_4  and  C4_5 
REMARK    3  A    between atoms: C4_5  and  C5_6 
ROOT
HETATM    1  C1  UNL     1      26.096   2.518  50.639  1.00  0.00     0.084 A 
HETATM    2  C2  UNL     1      24.739   2.990  50.811  1.00  0.00    -0.007 C 
HETATM    3  C3  UNL     1      23.419   2.719  51.242  1.00  0.00     0.046 C 
HETATM    4  N2  UNL     1      22.116   3.363  51.370  1.00  0.00    -0.267 NA
HETATM    5  C11 UNL     1      22.004   4.707  51.306  1.00  0.00     0.116 C 
HETATM    6  C12 UNL     1      22.356   6.122  51.179  1.00  0.00     0.222 C 
HETATM    7  O1  UNL     1      23.724   6.436  50.868  1.00  0.00    -0.346 OA
HETATM    8  C13 UNL     1      24.768   5.774  50.276  1.00  0.00     0.073 A 
HETATM    9  C14 UNL     1      25.850   6.104  49.477  1.00  0.00     0.016 A 
HETATM   10  C15 UNL     1      26.456   4.776  49.284  1.00  0.00     0.028 A 
HETATM   11  C16 UNL     1      26.739   3.202  49.351  1.00  0.00    -0.013 A 
HETATM   12  C17 UNL     1      25.931   3.702  49.829  1.00  0.00     0.083 A 
HETATM   13  C18 UNL     1      24.917   4.391  50.418  1.00  0.00    -0.008 A 
ENDROOT
BRANCH   3  14
HETATM   14  C4  UNL     1      23.608   1.353  51.686  1.00  0.00     0.101 C 
BRANCH  14  15
HETATM   15  C5  UNL     1      22.242   0.839  52.052  1.00  0.00    -0.014 A 
HETATM   16  C6  UNL     1      22.108   0.811  53.416  1.00  0.00     0.010 A 
HETATM   17  C7  UNL     1      20.965   0.335  54.048  1.00  0.00     0.001 A 
HETATM   18  C8  UNL     1      19.945  -0.118  53.252  1.00  0.00     0.003 A 
HETATM   19  C9  UNL     1      20.058  -0.098  51.863  1.00  0.00     0.043 A 
HETATM   20  C10 UNL     1      21.202   0.378  51.285  1.00  0.00     0.123 A 
HETATM   21  F1  UNL     1      21.453   0.462  49.958  1.00  0.00    -0.206 F 
ENDBRANCH  14  15
ENDBRANCH   3  14
BRANCH   1  22
HETATM   22  N1  UNL     1      26.961   2.995  51.780  1.00  0.00    -0.326 N 
HETATM   23  H1  UNL     1      27.624   3.720  51.384  1.00  0.00     0.118 HD
HETATM   24  H2  UNL     1      27.459   2.152  52.093  1.00  0.00     0.118 HD
ENDBRANCH   1  22
TORSDOF 3
ENDMDL
MODEL 8
REMARK VINA RESULT:      -8.1      3.001      5.861
REMARK  3 active torsions:
REMARK  status: ('A' for Active; 'I' for Inactive)
REMARK    1  A    between atoms: N1_1  and  C1_2 
REMARK    2  A    between atoms: C3_4  and  C4_5 
REMARK    3  A    between atoms: C4_5  and  C5_6 
ROOT
HETATM    1  C1  UNL     1      20.802   0.304  53.712  1.00  0.00     0.084 A 
HETATM    2  C2  UNL     1      22.168   0.581  53.320  1.00  0.00    -0.007 C 
HETATM    3  C3  UNL     1      23.066   1.395  52.590  1.00  0.00     0.046 C 
HETATM    4  N2  UNL     1      24.492   1.546  52.322  1.00  0.00    -0.267 NA
HETATM    5  C11 UNL     1      25.408   0.939  53.107  1.00  0.00     0.116 C 
HETATM    6  C12 UNL     1      26.001   0.133  54.175  1.00  0.00     0.222 C 
HETATM    7  O1  UNL     1      25.103  -0.605  55.019  1.00  0.00    -0.346 OA
HETATM    8  C13 UNL     1      23.826  -1.090  54.900  1.00  0.00     0.073 A 
HETATM    9  C14 UNL     1      23.117  -2.190  55.352  1.00  0.00     0.016 A 
HETATM   10  C15 UNL     1      21.804  -1.934  54.739  1.00  0.00     0.028 A 
HETATM   11  C16 UNL     1      20.612  -1.267  53.904  1.00  0.00    -0.013 A 
HETATM   12  C17 UNL     1      21.594  -0.869  53.997  1.00  0.00     0.083 A 
HETATM   13  C18 UNL     1      22.864  -0.407  54.150  1.00  0.00    -0.008 A 
ENDROOT
BRANCH   3  14
HETATM   14  C4  UNL     1      22.110   2.323  52.022  1.00  0.00     0.101 C 
BRANCH  14  15
HETATM   15  C5  UNL     1      22.162   2.116  50.531  1.00  0.00    -0.014 A 
HETATM   16  C6  UNL     1      22.847   3.148  49.945  1.00  0.00     0.010 A 
HETATM   17  C7  UNL     1      23.014   3.251  48.568  1.00  0.00     0.001 A 
HETATM   18  C8  UNL     1      22.462   2.267  47.790  1.00  0.00     0.003 A 
HETATM   19  C9  UNL     1      21.762   1.208  48.364  1.00  0.00     0.043 A 
HETATM   20  C10 UNL     1      21.622   1.148  49.723  1.00  0.00     0.123 A 
HETATM   21  F1  UNL     1      20.977   0.184  50.419  1.00  0.00    -0.206 F 
ENDBRANCH  14  15
ENDBRANCH   3  14
BRANCH   1  22
HETATM   22  N1  UNL     1      20.526   0.879  55.080  1.00  0.00    -0.326 N 
HETATM   23  H1  UNL     1      20.600   1.931  54.994  1.00  0.00     0.118 HD
HETATM   24  H2  UNL     1      21.270   0.491  55.674  1.00  0.00     0.118 HD
ENDBRANCH   1  22
TORSDOF 3
ENDMDL
MODEL 9
REMARK VINA RESULT:      -8.0      4.822      7.141
REMARK  3 active torsions:
REMARK  status: ('A' for Active; 'I' for Inactive)
REMARK    1  A    between atoms: N1_1  and  C1_2 
REMARK    2  A    between atoms: C3_4  and  C4_5 
REMARK    3  A    between atoms: C4_5  and  C5_6 
ROOT
HETATM    1  C1  UNL     1      26.116   3.971  49.326  1.00  0.00     0.084 A 
HETATM    2  C2  UNL     1      24.731   4.373  49.451  1.00  0.00    -0.007 C 
HETATM    3  C3  UNL     1      23.366   4.001  49.436  1.00  0.00     0.046 C 
HETATM    4  N2  UNL     1      22.036   4.571  49.620  1.00  0.00    -0.267 NA
HETATM    5  C11 UNL     1      21.879   5.775  50.210  1.00  0.00     0.116 C 
HETATM    6  C12 UNL     1      22.187   7.046  50.869  1.00  0.00     0.222 C 
HETATM    7  O1  UNL     1      23.573   7.393  51.016  1.00  0.00    -0.346 OA
HETATM    8  C13 UNL     1      24.740   7.052  50.380  1.00  0.00     0.073 A 
HETATM    9  C14 UNL     1      25.938   7.671  50.068  1.00  0.00     0.016 A 
HETATM   10  C15 UNL     1      26.627   6.579  49.361  1.00  0.00     0.028 A 
HETATM   11  C16 UNL     1      26.961   5.164  48.691  1.00  0.00    -0.013 A 
HETATM   12  C17 UNL     1      26.056   5.408  49.193  1.00  0.00     0.083 A 
HETATM   13  C18 UNL     1      24.919   5.772  49.845  1.00  0.00    -0.008 A 
ENDROOT
BRANCH   3  14
HETATM   14  C4  UNL     1      23.528   2.585  49.173  1.00  0.00     0.101 C 
BRANCH  14  15
HETATM   15  C5  UNL     1      22.838   1.868  50.302  1.00  0.00    -0.014 A 
HETATM   16  C6  UNL     1      21.721   1.229  49.830  1.00  0.00     0.010 A 
HETATM   17  C7  UNL     1      20.856   0.521  50.658  1.00  0.00     0.001 A 
HETATM   18  C8  UNL     1      21.156   0.477  51.994  1.00  0.00     0.003 A 
HETATM   19  C9  UNL     1      22.286   1.119  52.497  1.00  0.00     0.043 A 
HETATM   20  C10 UNL     1      23.109   1.803  51.645  1.00  0.00     0.123 A 
HETATM   21  F1  UNL     1      24.236   2.468  51.985  1.00  0.00    -0.206 F 
ENDBRANCH  14  15
ENDBRANCH   3  14
BRANCH   1  22
HETATM   22  N1  UNL     1      26.726   3.773  50.692  1.00  0.00    -0.326 N 
HETATM   23  H1  UNL     1      27.709   3.409  50.542  1.00  0.00     0.118 HD
HETATM   24  H2  UNL     1      26.123   3.072  51.141  1.00  0.00     0.118 HD
ENDBRANCH   1  22
TORSDOF 3
ENDMDL
