MODEL 1
REMARK VINA RESULT:      -8.6      0.000      0.000
REMARK  5 active torsions:
REMARK  status: ('A' for Active; 'I' for Inactive)
REMARK    1  A    between atoms: C1_2  and  C2_3 
REMARK       I    between atoms: C1_2  and  N1_11 
REMARK    2  A    between atoms: C2_3  and  O2_4 
REMARK    3  A    between atoms: O2_4  and  C3_5 
REMARK    4  A    between atoms: C13_18  and  N4_19 
REMARK    5  A    between atoms: N4_19  and  C14_20 
ROOT
HETATM    1  O1  UNL     1      20.006   3.578  49.972  1.00  0.00    -0.271 OA
HETATM    2  C1  UNL     1      20.664   3.228  51.012  1.00  0.00     0.244 C 
HETATM    3  N1  UNL     1      21.966   3.183  50.493  1.00  0.00    -0.342 N 
HETATM    4  C9  UNL     1      21.994   3.534  49.097  1.00  0.00     0.155 C 
HETATM    5  C10 UNL     1      23.377   3.901  48.723  1.00  0.00     0.025 C 
HETATM    6  C11 UNL     1      24.482   3.797  49.435  1.00  0.00     0.067 A 
HETATM    7  N2  UNL     1      25.730   4.210  48.892  1.00  0.00    -0.244 NA
HETATM    8  C12 UNL     1      26.830   4.118  49.571  1.00  0.00     0.209 A 
HETATM    9  N3  UNL     1      26.743   3.583  50.892  1.00  0.00    -0.336 N 
HETATM   10  C13 UNL     1      25.498   3.161  51.460  1.00  0.00     0.117 A 
HETATM   11  C20 UNL     1      24.373   3.249  50.780  1.00  0.00     0.032 A 
HETATM   12  C21 UNL     1      23.073   2.817  51.354  1.00  0.00     0.171 C 
HETATM   13  H12 UNL     1      27.673   3.544  51.368  1.00  0.00     0.168 HD
ENDROOT
BRANCH   2  14
HETATM   14  C2  UNL     1      20.162   2.950  52.378  1.00  0.00     0.278 C 
BRANCH  14  15
HETATM   15  O2  UNL     1      19.886   1.582  52.498  1.00  0.00    -0.342 OA
BRANCH  15  16
HETATM   16  C3  UNL     1      20.632   0.683  53.234  1.00  0.00     0.069 A 
HETATM   17  C4  UNL     1      20.766   0.472  54.574  1.00  0.00     0.037 A 
HETATM   18  C5  UNL     1      21.577  -0.490  55.087  1.00  0.00     0.003 A 
HETATM   19  C6  UNL     1      22.307  -1.299  54.241  1.00  0.00     0.000 A 
HETATM   20  C7  UNL     1      22.206  -1.127  52.876  1.00  0.00     0.003 A 
HETATM   21  C8  UNL     1      21.368  -0.134  52.367  1.00  0.00     0.037 A 
ENDBRANCH  15  16
ENDBRANCH  14  15
ENDBRANCH   2  14
BRANCH  10  22
HETATM   22  N4  UNL     1      25.509   2.643  52.783  1.00  0.00    -0.342 N 
HETATM   23  H13 UNL     1      25.165   2.951  53.716  1.00  0.00     0.167 HD
BRANCH  22  24
HETATM   24  C14 UNL     1      26.154   1.379  52.864  1.00  0.00     0.034 A 
HETATM   25  C15 UNL     1      25.369   0.244  52.639  1.00  0.00     0.029 A 
HETATM   26  C16 UNL     1      25.952  -1.018  52.705  1.00  0.00     0.004 A 
HETATM   27  C17 UNL     1      27.305  -1.156  52.991  1.00  0.00     0.019 A 
HETATM   28  C18 UNL     1      28.088  -0.043  53.215  1.00  0.00     0.013 A 
HETATM   29 BR1  UNL     1      29.939  -0.208  53.609  1.00  0.00    -0.051 Br
HETATM   30  C19 UNL     1      27.493   1.199  53.145  1.00  0.00     0.048 A 
ENDBRANCH  22  24
ENDBRANCH  10  22
TORSDOF 5
ENDMDL
MODEL 2
REMARK VINA RESULT:      -8.2      2.996      5.798
REMARK  5 active torsions:
REMARK  status: ('A' for Active; 'I' for Inactive)
REMARK    1  A    between atoms: C1_2  and  C2_3 
REMARK       I    between atoms: C1_2  and  N1_11 
REMARK    2  A    between atoms: C2_3  and  O2_4 
REMARK    3  A    between atoms: O2_4  and  C3_5 
REMARK    4  A    between atoms: C13_18  and  N4_19 
REMARK    5  A    between atoms: N4_19  and  C14_20 
ROOT
HETATM    1  O1  UNL     1      22.343  -1.280  53.127  1.00  0.00    -0.271 OA
HETATM    2  C1  UNL     1      23.265  -0.397  53.216  1.00  0.00     0.244 C 
HETATM    3  N1  UNL     1      22.739   0.615  52.401  1.00  0.00    -0.342 N 
HETATM    4  C9  UNL     1      21.461   0.243  51.851  1.00  0.00     0.155 C 
HETATM    5  C10 UNL     1      20.765   1.462  51.389  1.00  0.00     0.025 C 
HETATM    6  C11 UNL     1      21.225   2.696  51.305  1.00  0.00     0.067 A 
HETATM    7  N2  UNL     1      20.390   3.745  50.830  1.00  0.00    -0.244 NA
HETATM    8  C12 UNL     1      20.818   4.965  50.737  1.00  0.00     0.209 A 
HETATM    9  N3  UNL     1      22.166   5.219  51.132  1.00  0.00    -0.336 N 
HETATM   10  C13 UNL     1      23.026   4.179  51.613  1.00  0.00     0.117 A 
HETATM   11  C20 UNL     1      22.603   2.935  51.712  1.00  0.00     0.032 A 
HETATM   12  C21 UNL     1      23.481   1.845  52.209  1.00  0.00     0.171 C 
HETATM   13  H12 UNL     1      22.429   6.225  51.026  1.00  0.00     0.168 HD
ENDROOT
BRANCH   2  14
HETATM   14  C2  UNL     1      24.535  -0.456  53.980  1.00  0.00     0.278 C 
BRANCH  14  15
HETATM   15  O2  UNL     1      25.528  -1.030  53.177  1.00  0.00    -0.342 OA
BRANCH  15  16
HETATM   16  C3  UNL     1      26.888  -0.911  53.389  1.00  0.00     0.069 A 
HETATM   17  C4  UNL     1      27.960  -1.614  52.925  1.00  0.00     0.037 A 
HETATM   18  C5  UNL     1      29.238  -1.316  53.276  1.00  0.00     0.003 A 
HETATM   19  C6  UNL     1      29.491  -0.267  54.135  1.00  0.00     0.000 A 
HETATM   20  C7  UNL     1      28.440   0.476  54.632  1.00  0.00     0.003 A 
HETATM   21  C8  UNL     1      27.133   0.156  54.261  1.00  0.00     0.037 A 
ENDBRANCH  15  16
ENDBRANCH  14  15
ENDBRANCH   2  14
BRANCH  10  22
HETATM   22  N4  UNL     1      24.352   4.527  51.984  1.00  0.00    -0.342 N 
HETATM   23  H13 UNL     1      24.875   4.666  52.873  1.00  0.00     0.167 HD
BRANCH  22  24
HETATM   24  C14 UNL     1      25.190   4.745  50.856  1.00  0.00     0.034 A 
HETATM   25  C15 UNL     1      25.995   3.680  50.441  1.00  0.00     0.029 A 
HETATM   26  C16 UNL     1      26.832   3.840  49.341  1.00  0.00     0.004 A 
HETATM   27  C17 UNL     1      26.872   5.048  48.656  1.00  0.00     0.019 A 
HETATM   28  C18 UNL     1      26.083   6.105  49.056  1.00  0.00     0.013 A 
HETATM   29 BR1  UNL     1      26.123   7.766  48.135  1.00  0.00    -0.051 Br
HETATM   30  C19 UNL     1      25.259   5.928  50.148  1.00  0.00     0.048 A 
ENDBRANCH  22  24
ENDBRANCH  10  22
TORSDOF 5
ENDMDL
MODEL 3
REMARK VINA RESULT:      -8.2      3.170      6.314
REMARK  5 active torsions:
REMARK  status: ('A' for Active; 'I' for Inactive)
REMARK    1  A    between atoms: C1_2  and  C2_3 
REMARK       I    between atoms: C1_2  and  N1_11 
REMARK    2  A    between atoms: C2_3  and  O2_4 
REMARK    3  A    between atoms: O2_4  and  C3_5 
REMARK    4  A    between atoms: C13_18  and  N4_19 
REMARK    5  A    between atoms: N4_19  and  C14_20 
ROOT
HETATM    1  O1  UNL     1      23.185  -0.948  55.074  1.00  0.00    -0.271 OA
HETATM    2  C1  UNL     1      23.681  -0.666  53.928  1.00  0.00     0.244 C 
HETATM    3  N1  UNL     1      22.614   0.033  53.347  1.00  0.00    -0.342 N 
HETATM    4  C9  UNL     1      21.490   0.127  54.241  1.00  0.00     0.155 C 
HETATM    5  C10 UNL     1      20.600   1.213  53.780  1.00  0.00     0.025 C 
HETATM    6  C11 UNL     1      20.662   1.917  52.666  1.00  0.00     0.067 A 
HETATM    7  N2  UNL     1      19.701   2.933  52.403  1.00  0.00    -0.244 NA
HETATM    8  C12 UNL     1      19.739   3.638  51.315  1.00  0.00     0.209 A 
HETATM    9  N3  UNL     1      20.787   3.355  50.387  1.00  0.00    -0.336 N 
HETATM   10  C13 UNL     1      21.764   2.338  50.630  1.00  0.00     0.117 A 
HETATM   11  C20 UNL     1      21.737   1.614  51.732  1.00  0.00     0.032 A 
HETATM   12  C21 UNL     1      22.743   0.556  52.001  1.00  0.00     0.171 C 
HETATM   13  H12 UNL     1      20.744   3.968  49.540  1.00  0.00     0.168 HD
ENDROOT
BRANCH   2  14
HETATM   14  C2  UNL     1      25.021  -1.000  53.389  1.00  0.00     0.278 C 
BRANCH  14  15
HETATM   15  O2  UNL     1      25.990  -0.727  54.364  1.00  0.00    -0.342 OA
BRANCH  15  16
HETATM   16  C3  UNL     1      27.044   0.152  54.211  1.00  0.00     0.069 A 
HETATM   17  C4  UNL     1      28.367   0.070  54.528  1.00  0.00     0.037 A 
HETATM   18  C5  UNL     1      29.243   1.080  54.283  1.00  0.00     0.003 A 
HETATM   19  C6  UNL     1      28.802   2.246  53.691  1.00  0.00     0.000 A 
HETATM   20  C7  UNL     1      27.472   2.377  53.351  1.00  0.00     0.003 A 
HETATM   21  C8  UNL     1      26.587   1.330  53.610  1.00  0.00     0.037 A 
ENDBRANCH  15  16
ENDBRANCH  14  15
ENDBRANCH   2  14
BRANCH  10  22
HETATM   22  N4  UNL     1      22.770   2.129  49.649  1.00  0.00    -0.342 N 
HETATM   23  H13 UNL     1      22.994   1.400  48.941  1.00  0.00     0.167 HD
BRANCH  22  24
HETATM   24  C14 UNL     1      23.724   3.183  49.621  1.00  0.00     0.034 A 
HETATM   25  C15 UNL     1      24.907   2.996  50.343  1.00  0.00     0.029 A 
HETATM   26  C16 UNL     1      25.874   3.995  50.348  1.00  0.00     0.004 A 
HETATM   27  C17 UNL     1      25.672   5.175  49.641  1.00  0.00     0.019 A 
HETATM   28  C18 UNL     1      24.510   5.370  48.925  1.00  0.00     0.013 A 
HETATM   29 BR1  UNL     1      24.212   6.974  47.953  1.00  0.00    -0.051 Br
HETATM   30  C19 UNL     1      23.563   4.368  48.932  1.00  0.00     0.048 A 
ENDBRANCH  22  24
ENDBRANCH  10  22
TORSDOF 5
ENDMDL
MODEL 4
REMARK VINA RESULT:      -8.1      2.906      5.964
REMARK  5 active torsions:
REMARK  status: ('A' for Active; 'I' for Inactive)
REMARK    1  A    between atoms: C1_2  and  C2_3 
REMARK       I    between atoms: C1_2  and  N1_11 
REMARK    2  A    between atoms: C2_3  and  O2_4 
REMARK    3  A    between atoms: O2_4  and  C3_5 
REMARK    4  A    between atoms: C13_18  and  N4_19 
REMARK    5  A    between atoms: N4_19  and  C14_20 
ROOT
HETATM    1  O1  UNL     1      27.255   2.482  51.725  1.00  0.00    -0.271 OA
HETATM    2  C1  UNL     1      26.204   2.458  52.454  1.00  0.00     0.244 C 
HETATM    3  N1  UNL     1      25.274   3.054  51.592  1.00  0.00    -0.342 N 
HETATM    4  C9  UNL     1      25.871   3.412  50.332  1.00  0.00     0.155 C 
HETATM    5  C10 UNL     1      24.800   3.611  49.333  1.00  0.00     0.025 C 
HETATM    6  C11 UNL     1      23.493   3.638  49.515  1.00  0.00     0.067 A 
HETATM    7  N2  UNL     1      22.617   3.843  48.413  1.00  0.00    -0.244 NA
HETATM    8  C12 UNL     1      21.330   3.875  48.565  1.00  0.00     0.209 A 
HETATM    9  N3  UNL     1      20.821   3.694  49.888  1.00  0.00    -0.336 N 
HETATM   10  C13 UNL     1      21.684   3.485  51.012  1.00  0.00     0.117 A 
HETATM   11  C20 UNL     1      22.994   3.452  50.870  1.00  0.00     0.032 A 
HETATM   12  C21 UNL     1      23.903   3.236  52.025  1.00  0.00     0.171 C 
HETATM   13  H12 UNL     1      19.777   3.732  49.921  1.00  0.00     0.168 HD
ENDROOT
BRANCH   2  14
HETATM   14  C2  UNL     1      26.043   1.936  53.833  1.00  0.00     0.278 C 
BRANCH  14  15
HETATM   15  O2  UNL     1      27.235   1.318  54.232  1.00  0.00    -0.342 OA
BRANCH  15  16
HETATM   16  C3  UNL     1      27.677   0.086  53.791  1.00  0.00     0.069 A 
HETATM   17  C4  UNL     1      27.042  -0.964  53.196  1.00  0.00     0.037 A 
HETATM   18  C5  UNL     1      27.690  -2.105  52.842  1.00  0.00     0.003 A 
HETATM   19  C6  UNL     1      29.042  -2.233  53.083  1.00  0.00     0.000 A 
HETATM   20  C7  UNL     1      29.729  -1.199  53.683  1.00  0.00     0.003 A 
HETATM   21  C8  UNL     1      29.048  -0.034  54.040  1.00  0.00     0.037 A 
ENDBRANCH  15  16
ENDBRANCH  14  15
ENDBRANCH   2  14
BRANCH  10  22
HETATM   22  N4  UNL     1      21.086   3.313  52.289  1.00  0.00    -0.342 N 
HETATM   23  H13 UNL     1      20.937   3.899  53.137  1.00  0.00     0.167 HD
BRANCH  22  24
HETATM   24  C14 UNL     1      20.553   2.008  52.465  1.00  0.00     0.034 A 
HETATM   25  C15 UNL     1      19.314   1.737  51.876  1.00  0.00     0.029 A 
HETATM   26  C16 UNL     1      18.748   0.474  52.017  1.00  0.00     0.004 A 
HETATM   27  C17 UNL     1      19.405  -0.517  52.737  1.00  0.00     0.019 A 
HETATM   28  C18 UNL     1      20.627  -0.261  53.322  1.00  0.00     0.013 A 
HETATM   29 BR1  UNL     1      21.543  -1.599  54.312  1.00  0.00    -0.051 Br
HETATM   30  C19 UNL     1      21.173   0.996  53.171  1.00  0.00     0.048 A 
ENDBRANCH  22  24
ENDBRANCH  10  22
TORSDOF 5
ENDMDL
MODEL 5
REMARK VINA RESULT:      -8.0      5.734      7.881
REMARK  5 active torsions:
REMARK  status: ('A' for Active; 'I' for Inactive)
REMARK    1  A    between atoms: C1_2  and  C2_3 
REMARK       I    between atoms: C1_2  and  N1_11 
REMARK    2  A    between atoms: C2_3  and  O2_4 
REMARK    3  A    between atoms: O2_4  and  C3_5 
REMARK    4  A    between atoms: C13_18  and  N4_19 
REMARK    5  A    between atoms: N4_19  and  C14_20 
ROOT
HETATM    1  O1  UNL     1      25.814   5.779  49.264  1.00  0.00    -0.271 OA
HETATM    2  C1  UNL     1      26.736   4.912  49.073  1.00  0.00     0.244 C 
HETATM    3  N1  UNL     1      27.774   5.733  48.609  1.00  0.00    -0.342 N 
HETATM    4  C9  UNL     1      27.374   7.115  48.555  1.00  0.00     0.155 C 
HETATM    5  C10 UNL     1      28.584   7.962  48.498  1.00  0.00     0.025 C 
HETATM    6  C11 UNL     1      29.843   7.597  48.353  1.00  0.00     0.067 A 
HETATM    7  N2  UNL     1      30.877   8.574  48.323  1.00  0.00    -0.244 NA
HETATM    8  C12 UNL     1      32.122   8.241  48.181  1.00  0.00     0.209 A 
HETATM    9  N3  UNL     1      32.419   6.850  48.055  1.00  0.00    -0.336 N 
HETATM   10  C13 UNL     1      31.396   5.849  48.083  1.00  0.00     0.117 A 
HETATM   11  C20 UNL     1      30.127   6.174  48.227  1.00  0.00     0.032 A 
HETATM   12  C21 UNL     1      29.053   5.149  48.258  1.00  0.00     0.171 C 
HETATM   13  H12 UNL     1      33.443   6.670  47.946  1.00  0.00     0.168 HD
ENDROOT
BRANCH   2  14
HETATM   14  C2  UNL     1      26.692   3.446  49.291  1.00  0.00     0.278 C 
BRANCH  14  15
HETATM   15  O2  UNL     1      26.935   3.175  50.644  1.00  0.00    -0.342 OA
BRANCH  15  16
HETATM   16  C3  UNL     1      26.329   2.171  51.374  1.00  0.00     0.069 A 
HETATM   17  C4  UNL     1      26.786   0.986  51.870  1.00  0.00     0.037 A 
HETATM   18  C5  UNL     1      25.995   0.134  52.573  1.00  0.00     0.003 A 
HETATM   19  C6  UNL     1      24.674   0.454  52.808  1.00  0.00     0.000 A 
HETATM   20  C7  UNL     1      24.164   1.642  52.326  1.00  0.00     0.003 A 
HETATM   21  C8  UNL     1      24.991   2.505  51.606  1.00  0.00     0.037 A 
ENDBRANCH  15  16
ENDBRANCH  14  15
ENDBRANCH   2  14
BRANCH  10  22
HETATM   22  N4  UNL     1      31.787   4.489  47.952  1.00  0.00    -0.342 N 
HETATM   23  H13 UNL     1      31.515   3.581  48.382  1.00  0.00     0.167 HD
BRANCH  22  24
HETATM   24  C14 UNL     1      32.817   4.314  46.988  1.00  0.00     0.034 A 
HETATM   25  C15 UNL     1      34.028   3.774  47.435  1.00  0.00     0.029 A 
HETATM   26  C16 UNL     1      35.068   3.580  46.532  1.00  0.00     0.004 A 
HETATM   27  C17 UNL     1      34.911   3.919  45.193  1.00  0.00     0.019 A 
HETATM   28  C18 UNL     1      33.722   4.452  44.741  1.00  0.00     0.013 A 
HETATM   29 BR1  UNL     1      33.486   4.922  42.916  1.00  0.00    -0.051 Br
HETATM   30  C19 UNL     1      32.703   4.636  45.651  1.00  0.00     0.048 A 
ENDBRANCH  22  24
ENDBRANCH  10  22
TORSDOF 5
ENDMDL
MODEL 6
REMARK VINA RESULT:      -7.9      3.323      6.795
REMARK  5 active torsions:
REMARK  status: ('A' for Active; 'I' for Inactive)
REMARK    1  A    between atoms: C1_2  and  C2_3 
REMARK       I    between atoms: C1_2  and  N1_11 
REMARK    2  A    between atoms: C2_3  and  O2_4 
REMARK    3  A    between atoms: O2_4  and  C3_5 
REMARK    4  A    between atoms: C13_18  and  N4_19 
REMARK    5  A    between atoms: N4_19  and  C14_20 
ROOT
HETATM    1  O1  UNL     1      22.804  -1.002  55.007  1.00  0.00    -0.271 OA
HETATM    2  C1  UNL     1      23.238  -0.700  53.841  1.00  0.00     0.244 C 
HETATM    3  N1  UNL     1      22.031  -0.577  53.138  1.00  0.00    -0.342 N 
HETATM    4  C9  UNL     1      20.894  -0.827  53.986  1.00  0.00     0.155 C 
HETATM    5  C10 UNL     1      19.686  -0.266  53.346  1.00  0.00     0.025 C 
HETATM    6  C11 UNL     1      19.552   0.246  52.137  1.00  0.00     0.067 A 
HETATM    7  N2  UNL     1      18.292   0.741  51.701  1.00  0.00    -0.244 NA
HETATM    8  C12 UNL     1      18.133   1.248  50.519  1.00  0.00     0.209 A 
HETATM    9  N3  UNL     1      19.277   1.292  49.665  1.00  0.00    -0.336 N 
HETATM   10  C13 UNL     1      20.556   0.799  50.082  1.00  0.00     0.117 A 
HETATM   11  C20 UNL     1      20.730   0.282  51.282  1.00  0.00     0.032 A 
HETATM   12  C21 UNL     1      22.048  -0.233  51.730  1.00  0.00     0.171 C 
HETATM   13  H12 UNL     1      19.063   1.715  48.733  1.00  0.00     0.168 HD
ENDROOT
BRANCH   2  14
HETATM   14  C2  UNL     1      24.638  -0.533  53.386  1.00  0.00     0.278 C 
BRANCH  14  15
HETATM   15  O2  UNL     1      25.107   0.723  53.793  1.00  0.00    -0.342 OA
BRANCH  15  16
HETATM   16  C3  UNL     1      26.438   1.084  53.878  1.00  0.00     0.069 A 
HETATM   17  C4  UNL     1      27.141   2.141  53.379  1.00  0.00     0.037 A 
HETATM   18  C5  UNL     1      28.474   2.298  53.589  1.00  0.00     0.003 A 
HETATM   19  C6  UNL     1      29.169   1.366  54.333  1.00  0.00     0.000 A 
HETATM   20  C7  UNL     1      28.502   0.279  54.859  1.00  0.00     0.003 A 
HETATM   21  C8  UNL     1      27.133   0.134  54.633  1.00  0.00     0.037 A 
ENDBRANCH  15  16
ENDBRANCH  14  15
ENDBRANCH   2  14
BRANCH  10  22
HETATM   22  N4  UNL     1      21.637   0.886  49.164  1.00  0.00    -0.342 N 
HETATM   23  H13 UNL     1      22.206   0.218  48.604  1.00  0.00     0.167 HD
BRANCH  22  24
HETATM   24  C14 UNL     1      22.058   2.226  48.951  1.00  0.00     0.034 A 
HETATM   25  C15 UNL     1      21.876   2.759  47.670  1.00  0.00     0.029 A 
HETATM   26  C16 UNL     1      22.270   4.067  47.408  1.00  0.00     0.004 A 
HETATM   27  C17 UNL     1      22.842   4.845  48.408  1.00  0.00     0.019 A 
HETATM   28  C18 UNL     1      23.026   4.330  49.674  1.00  0.00     0.013 A 
HETATM   29 BR1  UNL     1      23.806   5.375  51.056  1.00  0.00    -0.051 Br
HETATM   30  C19 UNL     1      22.629   3.032  49.915  1.00  0.00     0.048 A 
ENDBRANCH  22  24
ENDBRANCH  10  22
TORSDOF 5
ENDMDL
MODEL 7
REMARK VINA RESULT:      -7.7      2.935      5.556
REMARK  5 active torsions:
REMARK  status: ('A' for Active; 'I' for Inactive)
REMARK    1  A    between atoms: C1_2  and  C2_3 
REMARK       I    between atoms: C1_2  and  N1_11 
REMARK    2  A    between atoms: C2_3  and  O2_4 
REMARK    3  A    between atoms: O2_4  and  C3_5 
REMARK    4  A    between atoms: C13_18  and  N4_19 
REMARK    5  A    between atoms: N4_19  and  C14_20 
ROOT
HETATM    1  O1  UNL     1      21.810  -1.707  54.300  1.00  0.00    -0.271 OA
HETATM    2  C1  UNL     1      21.454  -0.594  53.779  1.00  0.00     0.244 C 
HETATM    3  N1  UNL     1      22.698   0.036  53.632  1.00  0.00    -0.342 N 
HETATM    4  C9  UNL     1      23.774  -0.798  54.103  1.00  0.00     0.155 C 
HETATM    5  C10 UNL     1      25.046  -0.304  53.535  1.00  0.00     0.025 C 
HETATM    6  C11 UNL     1      25.272   0.796  52.843  1.00  0.00     0.067 A 
HETATM    7  N2  UNL     1      26.582   1.098  52.378  1.00  0.00    -0.244 NA
HETATM    8  C12 UNL     1      26.830   2.173  51.697  1.00  0.00     0.209 A 
HETATM    9  N3  UNL     1      25.733   3.047  51.428  1.00  0.00    -0.336 N 
HETATM   10  C13 UNL     1      24.406   2.764  51.886  1.00  0.00     0.117 A 
HETATM   11  C20 UNL     1      24.141   1.675  52.580  1.00  0.00     0.032 A 
HETATM   12  C21 UNL     1      22.771   1.366  53.062  1.00  0.00     0.171 C 
HETATM   13  H12 UNL     1      26.020   3.887  50.875  1.00  0.00     0.168 HD
ENDROOT
BRANCH   2  14
HETATM   14  C2  UNL     1      20.091  -0.124  53.435  1.00  0.00     0.278 C 
BRANCH  14  15
HETATM   15  O2  UNL     1      19.943  -0.121  52.043  1.00  0.00    -0.342 OA
BRANCH  15  16
HETATM   16  C3  UNL     1      19.597   0.979  51.283  1.00  0.00     0.069 A 
HETATM   17  C4  UNL     1      19.180   1.115  49.992  1.00  0.00     0.037 A 
HETATM   18  C5  UNL     1      18.890   2.323  49.440  1.00  0.00     0.003 A 
HETATM   19  C6  UNL     1      19.015   3.473  50.192  1.00  0.00     0.000 A 
HETATM   20  C7  UNL     1      19.434   3.387  51.504  1.00  0.00     0.003 A 
HETATM   21  C8  UNL     1      19.726   2.139  52.054  1.00  0.00     0.037 A 
ENDBRANCH  15  16
ENDBRANCH  14  15
ENDBRANCH   2  14
BRANCH  10  22
HETATM   22  N4  UNL     1      23.378   3.692  51.569  1.00  0.00    -0.342 N 
HETATM   23  H13 UNL     1      22.811   4.395  52.086  1.00  0.00     0.167 HD
BRANCH  22  24
HETATM   24  C14 UNL     1      23.025   3.658  50.193  1.00  0.00     0.034 A 
HETATM   25  C15 UNL     1      22.722   2.410  49.640  1.00  0.00     0.029 A 
HETATM   26  C16 UNL     1      22.370   2.321  48.297  1.00  0.00     0.004 A 
HETATM   27  C17 UNL     1      22.316   3.462  47.505  1.00  0.00     0.019 A 
HETATM   28  C18 UNL     1      22.612   4.698  48.040  1.00  0.00     0.013 A 
HETATM   29 BR1  UNL     1      22.546   6.271  46.977  1.00  0.00    -0.051 Br
HETATM   30  C19 UNL     1      22.960   4.766  49.373  1.00  0.00     0.048 A 
ENDBRANCH  22  24
ENDBRANCH  10  22
TORSDOF 5
ENDMDL
MODEL 8
REMARK VINA RESULT:      -7.7      4.137      6.843
REMARK  5 active torsions:
REMARK  status: ('A' for Active; 'I' for Inactive)
REMARK    1  A    between atoms: C1_2  and  C2_3 
REMARK       I    between atoms: C1_2  and  N1_11 
REMARK    2  A    between atoms: C2_3  and  O2_4 
REMARK    3  A    between atoms: O2_4  and  C3_5 
REMARK    4  A    between atoms: C13_18  and  N4_19 
REMARK    5  A    between atoms: N4_19  and  C14_20 
ROOT
HETATM    1  O1  UNL     1      24.316   1.222  51.573  1.00  0.00    -0.271 OA
HETATM    2  C1  UNL     1      25.221   2.126  51.586  1.00  0.00     0.244 C 
HETATM    3  N1  UNL     1      24.509   3.217  51.067  1.00  0.00    -0.342 N 
HETATM    4  C9  UNL     1      23.146   2.865  50.765  1.00  0.00     0.155 C 
HETATM    5  C10 UNL     1      22.345   4.103  50.654  1.00  0.00     0.025 C 
HETATM    6  C11 UNL     1      22.756   5.357  50.654  1.00  0.00     0.067 A 
HETATM    7  N2  UNL     1      21.819   6.421  50.537  1.00  0.00    -0.244 NA
HETATM    8  C12 UNL     1      22.197   7.661  50.534  1.00  0.00     0.209 A 
HETATM    9  N3  UNL     1      23.596   7.921  50.653  1.00  0.00    -0.336 N 
HETATM   10  C13 UNL     1      24.558   6.867  50.772  1.00  0.00     0.117 A 
HETATM   11  C20 UNL     1      24.186   5.602  50.776  1.00  0.00     0.032 A 
HETATM   12  C21 UNL     1      25.170   4.496  50.899  1.00  0.00     0.171 C 
HETATM   13  H12 UNL     1      23.814   8.944  50.642  1.00  0.00     0.168 HD
ENDROOT
BRANCH   2  14
HETATM   14  C2  UNL     1      26.631   2.021  52.032  1.00  0.00     0.278 C 
BRANCH  14  15
HETATM   15  O2  UNL     1      26.711   1.111  53.093  1.00  0.00    -0.342 OA
BRANCH  15  16
HETATM   16  C3  UNL     1      27.535   0.004  53.129  1.00  0.00     0.069 A 
HETATM   17  C4  UNL     1      28.839  -0.166  53.489  1.00  0.00     0.037 A 
HETATM   18  C5  UNL     1      29.461  -1.373  53.442  1.00  0.00     0.003 A 
HETATM   19  C6  UNL     1      28.769  -2.489  53.017  1.00  0.00     0.000 A 
HETATM   20  C7  UNL     1      27.447  -2.369  52.642  1.00  0.00     0.003 A 
HETATM   21  C8  UNL     1      26.825  -1.121  52.697  1.00  0.00     0.037 A 
ENDBRANCH  15  16
ENDBRANCH  14  15
ENDBRANCH   2  14
BRANCH  10  22
HETATM   22  N4  UNL     1      25.928   7.222  50.887  1.00  0.00    -0.342 N 
HETATM   23  H13 UNL     1      26.668   7.149  51.616  1.00  0.00     0.167 HD
BRANCH  22  24
HETATM   24  C14 UNL     1      26.428   7.837  49.707  1.00  0.00     0.034 A 
HETATM   25  C15 UNL     1      26.725   7.002  48.625  1.00  0.00     0.029 A 
HETATM   26  C16 UNL     1      27.216   7.553  47.446  1.00  0.00     0.004 A 
HETATM   27  C17 UNL     1      27.412   8.925  47.338  1.00  0.00     0.019 A 
HETATM   28  C18 UNL     1      27.123   9.758  48.398  1.00  0.00     0.013 A 
HETATM   29 BR1  UNL     1      27.385  11.635  48.273  1.00  0.00    -0.051 Br
HETATM   30  C19 UNL     1      26.637   9.193  49.558  1.00  0.00     0.048 A 
ENDBRANCH  22  24
ENDBRANCH  10  22
TORSDOF 5
ENDMDL
MODEL 9
REMARK VINA RESULT:      -7.6      4.926      7.362
REMARK  5 active torsions:
REMARK  status: ('A' for Active; 'I' for Inactive)
REMARK    1  A    between atoms: C1_2  and  C2_3 
REMARK       I    between atoms: C1_2  and  N1_11 
REMARK    2  A    between atoms: C2_3  and  O2_4 
REMARK    3  A    between atoms: O2_4  and  C3_5 
REMARK    4  A    between atoms: C13_18  and  N4_19 
REMARK    5  A    between atoms: N4_19  and  C14_20 
ROOT
HETATM    1  O1  UNL     1      24.769   4.698  50.293  1.00  0.00    -0.271 OA
HETATM    2  C1  UNL     1      25.856   4.084  50.010  1.00  0.00     0.244 C 
HETATM    3  N1  UNL     1      26.490   5.036  49.199  1.00  0.00    -0.342 N 
HETATM    4  C9  UNL     1      25.688   6.223  49.047  1.00  0.00     0.155 C 
HETATM    5  C10 UNL     1      26.553   7.328  48.582  1.00  0.00     0.025 C 
HETATM    6  C11 UNL     1      27.812   7.286  48.192  1.00  0.00     0.067 A 
HETATM    7  N2  UNL     1      28.477   8.473  47.777  1.00  0.00    -0.244 NA
HETATM    8  C12 UNL     1      29.714   8.458  47.388  1.00  0.00     0.209 A 
HETATM    9  N3  UNL     1      30.388   7.199  47.393  1.00  0.00    -0.336 N 
HETATM   10  C13 UNL     1      29.739   5.991  47.807  1.00  0.00     0.117 A 
HETATM   11  C20 UNL     1      28.482   5.993  48.204  1.00  0.00     0.032 A 
HETATM   12  C21 UNL     1      27.794   4.750  48.637  1.00  0.00     0.171 C 
HETATM   13  H12 UNL     1      31.378   7.277  47.067  1.00  0.00     0.168 HD
ENDROOT
BRANCH   2  14
HETATM   14  C2  UNL     1      26.298   2.735  50.438  1.00  0.00     0.278 C 
BRANCH  14  15
HETATM   15  O2  UNL     1      26.391   2.703  51.835  1.00  0.00    -0.342 OA
BRANCH  15  16
HETATM   16  C3  UNL     1      27.263   1.910  52.554  1.00  0.00     0.069 A 
HETATM   17  C4  UNL     1      28.307   2.200  53.382  1.00  0.00     0.037 A 
HETATM   18  C5  UNL     1      29.044   1.238  53.996  1.00  0.00     0.003 A 
HETATM   19  C6  UNL     1      28.748  -0.094  53.790  1.00  0.00     0.000 A 
HETATM   20  C7  UNL     1      27.701  -0.439  52.962  1.00  0.00     0.003 A 
HETATM   21  C8  UNL     1      26.954   0.563  52.340  1.00  0.00     0.037 A 
ENDBRANCH  15  16
ENDBRANCH  14  15
ENDBRANCH   2  14
BRANCH  10  22
HETATM   22  N4  UNL     1      30.491   4.786  47.780  1.00  0.00    -0.342 N 
HETATM   23  H13 UNL     1      30.294   3.771  47.903  1.00  0.00     0.167 HD
BRANCH  22  24
HETATM   24  C14 UNL     1      31.869   5.014  47.520  1.00  0.00     0.034 A 
HETATM   25  C15 UNL     1      32.654   5.476  48.582  1.00  0.00     0.029 A 
HETATM   26  C16 UNL     1      34.009   5.715  48.381  1.00  0.00     0.004 A 
HETATM   27  C17 UNL     1      34.587   5.497  47.135  1.00  0.00     0.019 A 
HETATM   28  C18 UNL     1      33.823   5.042  46.081  1.00  0.00     0.013 A 
HETATM   29 BR1  UNL     1      34.590   4.739  44.370  1.00  0.00    -0.051 Br
HETATM   30  C19 UNL     1      32.481   4.811  46.300  1.00  0.00     0.048 A 
ENDBRANCH  22  24
ENDBRANCH  10  22
TORSDOF 5
ENDMDL
