MODEL 1
REMARK VINA RESULT:      -8.8      0.000      0.000
REMARK  5 active torsions:
REMARK  status: ('A' for Active; 'I' for Inactive)
REMARK    1  A    between atoms: C2_2  and  O1_3 
REMARK    2  A    between atoms: O1_3  and  C3_4 
REMARK       I    between atoms: C3_4  and  N1_6 
REMARK    3  A    between atoms: N1_6  and  C4_7 
REMARK    4  A    between atoms: C11_16  and  N4_17 
REMARK    5  A    between atoms: N4_17  and  C12_18 
ROOT
HETATM    1  C4  UNL     1      24.578   0.195  53.255  1.00  0.00     0.037 A 
HETATM    2  C5  UNL     1      23.472  -0.627  53.259  1.00  0.00     0.030 A 
HETATM    3  C6  UNL     1      22.249  -0.164  52.835  1.00  0.00     0.016 A 
HETATM    4  C7  UNL     1      22.123   1.140  52.399  1.00  0.00     0.000 A 
HETATM    5  C8  UNL     1      20.864   1.512  51.995  1.00  0.00     0.073 A 
HETATM    6  C9  UNL     1      19.759   0.597  52.029  1.00  0.00     0.102 C 
HETATM    7  N2  UNL     1      18.872  -0.135  52.059  1.00  0.00    -0.191 NA
HETATM    8  C10 UNL     1      20.722   2.809  51.559  1.00  0.00     0.142 A 
HETATM    9  N3  UNL     1      21.786   3.620  51.548  1.00  0.00    -0.241 NA
HETATM   10  C11 UNL     1      23.023   3.291  51.933  1.00  0.00     0.139 A 
HETATM   11  C18 UNL     1      23.196   2.004  52.374  1.00  0.00     0.024 A 
HETATM   12  C19 UNL     1      24.385   1.475  52.811  1.00  0.00     0.045 A 
ENDROOT
BRANCH  10  13
HETATM   13  N4  UNL     1      24.118   4.187  51.903  1.00  0.00    -0.340 N 
HETATM   14  H10 UNL     1      24.369   4.762  52.732  1.00  0.00     0.167 HD
BRANCH  13  15
HETATM   15  C12 UNL     1      25.015   4.471  50.858  1.00  0.00     0.033 A 
HETATM   16  C13 UNL     1      25.963   3.588  50.353  1.00  0.00     0.029 A 
HETATM   17  C14 UNL     1      26.835   3.859  49.345  1.00  0.00     0.002 A 
HETATM   18  C15 UNL     1      26.820   5.094  48.743  1.00  0.00     0.000 A 
HETATM   19  C16 UNL     1      25.906   6.018  49.193  1.00  0.00     0.002 A 
HETATM   20  C17 UNL     1      25.053   5.681  50.214  1.00  0.00     0.029 A 
ENDBRANCH  13  15
ENDBRANCH  10  13
BRANCH   1  21
HETATM   21  N1  UNL     1      25.783  -0.390  53.712  1.00  0.00    -0.303 N 
HETATM   22  C3  UNL     1      26.777   0.145  54.560  1.00  0.00     0.365 C 
HETATM   23  O2  UNL     1      26.650   1.291  55.014  1.00  0.00    -0.238 OA
HETATM   24  H6  UNL     1      26.050  -1.358  53.427  1.00  0.00     0.171 HD
BRANCH  22  25
HETATM   25  O1  UNL     1      27.935  -0.490  54.968  1.00  0.00    -0.304 OA
BRANCH  25  26
HETATM   26  C2  UNL     1      29.155  -0.101  54.367  1.00  0.00     0.176 C 
HETATM   27  C1  UNL     1      29.639  -1.273  53.536  1.00  0.00     0.034 C 
ENDBRANCH  25  26
ENDBRANCH  22  25
ENDBRANCH   1  21
TORSDOF 5
ENDMDL
MODEL 2
REMARK VINA RESULT:      -8.5      2.553      5.697
REMARK  5 active torsions:
REMARK  status: ('A' for Active; 'I' for Inactive)
REMARK    1  A    between atoms: C2_2  and  O1_3 
REMARK    2  A    between atoms: O1_3  and  C3_4 
REMARK       I    between atoms: C3_4  and  N1_6 
REMARK    3  A    between atoms: N1_6  and  C4_7 
REMARK    4  A    between atoms: C11_16  and  N4_17 
REMARK    5  A    between atoms: N4_17  and  C12_18 
ROOT
HETATM    1  C4  UNL     1      24.541   2.661  50.266  1.00  0.00     0.037 A 
HETATM    2  C5  UNL     1      23.234   2.539  49.846  1.00  0.00     0.030 A 
HETATM    3  C6  UNL     1      22.342   1.757  50.541  1.00  0.00     0.016 A 
HETATM    4  C7  UNL     1      22.755   1.085  51.674  1.00  0.00     0.000 A 
HETATM    5  C8  UNL     1      21.794   0.330  52.300  1.00  0.00     0.073 A 
HETATM    6  C9  UNL     1      20.451   0.251  51.802  1.00  0.00     0.102 C 
HETATM    7  N2  UNL     1      19.375   0.186  51.401  1.00  0.00    -0.191 NA
HETATM    8  C10 UNL     1      22.192  -0.347  53.431  1.00  0.00     0.142 A 
HETATM    9  N3  UNL     1      23.456  -0.239  53.852  1.00  0.00    -0.241 NA
HETATM   10  C11 UNL     1      24.415   0.487  53.267  1.00  0.00     0.139 A 
HETATM   11  C18 UNL     1      24.049   1.172  52.138  1.00  0.00     0.024 A 
HETATM   12  C19 UNL     1      24.885   1.970  51.395  1.00  0.00     0.045 A 
ENDROOT
BRANCH  10  13
HETATM   13  N4  UNL     1      25.742   0.568  53.752  1.00  0.00    -0.340 N 
HETATM   14  H10 UNL     1      26.049   1.354  54.359  1.00  0.00     0.167 HD
BRANCH  13  15
HETATM   15  C12 UNL     1      26.827  -0.302  53.543  1.00  0.00     0.033 A 
HETATM   16  C13 UNL     1      28.143  -0.047  53.913  1.00  0.00     0.029 A 
HETATM   17  C14 UNL     1      29.195  -0.883  53.709  1.00  0.00     0.002 A 
HETATM   18  C15 UNL     1      28.996  -2.093  53.089  1.00  0.00     0.000 A 
HETATM   19  C16 UNL     1      27.717  -2.412  52.696  1.00  0.00     0.002 A 
HETATM   20  C17 UNL     1      26.698  -1.523  52.931  1.00  0.00     0.029 A 
ENDBRANCH  13  15
ENDBRANCH  10  13
BRANCH   1  21
HETATM   21  N1  UNL     1      25.368   3.491  49.474  1.00  0.00    -0.303 N 
HETATM   22  C3  UNL     1      25.624   4.875  49.585  1.00  0.00     0.365 C 
HETATM   23  O2  UNL     1      25.081   5.533  50.484  1.00  0.00    -0.238 OA
HETATM   24  H6  UNL     1      25.905   3.100  48.668  1.00  0.00     0.171 HD
BRANCH  22  25
HETATM   25  O1  UNL     1      26.451   5.624  48.770  1.00  0.00    -0.304 OA
BRANCH  25  26
HETATM   26  C2  UNL     1      27.760   5.146  48.528  1.00  0.00     0.176 C 
HETATM   27  C1  UNL     1      28.597   6.332  48.089  1.00  0.00     0.034 C 
ENDBRANCH  25  26
ENDBRANCH  22  25
ENDBRANCH   1  21
TORSDOF 5
ENDMDL
MODEL 3
REMARK VINA RESULT:      -8.4      2.762      5.779
REMARK  5 active torsions:
REMARK  status: ('A' for Active; 'I' for Inactive)
REMARK    1  A    between atoms: C2_2  and  O1_3 
REMARK    2  A    between atoms: O1_3  and  C3_4 
REMARK       I    between atoms: C3_4  and  N1_6 
REMARK    3  A    between atoms: N1_6  and  C4_7 
REMARK    4  A    between atoms: C11_16  and  N4_17 
REMARK    5  A    between atoms: N4_17  and  C12_18 
ROOT
HETATM    1  C4  UNL     1      22.537   1.365  51.662  1.00  0.00     0.037 A 
HETATM    2  C5  UNL     1      22.817   0.616  52.784  1.00  0.00     0.030 A 
HETATM    3  C6  UNL     1      24.099   0.534  53.274  1.00  0.00     0.016 A 
HETATM    4  C7  UNL     1      25.121   1.209  52.637  1.00  0.00     0.000 A 
HETATM    5  C8  UNL     1      26.367   1.067  53.198  1.00  0.00     0.073 A 
HETATM    6  C9  UNL     1      26.581   0.267  54.370  1.00  0.00     0.102 C 
HETATM    7  N2  UNL     1      26.753  -0.376  55.308  1.00  0.00    -0.191 NA
HETATM    8  C10 UNL     1      27.397   1.734  52.574  1.00  0.00     0.142 A 
HETATM    9  N3  UNL     1      27.141   2.466  51.484  1.00  0.00    -0.241 NA
HETATM   10  C11 UNL     1      25.944   2.625  50.913  1.00  0.00     0.139 A 
HETATM   11  C18 UNL     1      24.897   1.973  51.512  1.00  0.00     0.024 A 
HETATM   12  C19 UNL     1      23.595   2.010  51.079  1.00  0.00     0.045 A 
ENDROOT
BRANCH  10  13
HETATM   13  N4  UNL     1      25.725   3.412  49.757  1.00  0.00    -0.340 N 
HETATM   14  H10 UNL     1      25.067   3.108  49.013  1.00  0.00     0.167 HD
BRANCH  13  15
HETATM   15  C12 UNL     1      26.289   4.649  49.395  1.00  0.00     0.033 A 
HETATM   16  C13 UNL     1      25.737   5.894  49.672  1.00  0.00     0.029 A 
HETATM   17  C14 UNL     1      26.276   7.091  49.321  1.00  0.00     0.002 A 
HETATM   18  C15 UNL     1      27.465   7.130  48.633  1.00  0.00     0.000 A 
HETATM   19  C16 UNL     1      28.068   5.933  48.325  1.00  0.00     0.002 A 
HETATM   20  C17 UNL     1      27.471   4.758  48.709  1.00  0.00     0.029 A 
ENDBRANCH  13  15
ENDBRANCH  10  13
BRANCH   1  21
HETATM   21  N1  UNL     1      21.184   1.377  51.250  1.00  0.00    -0.303 N 
HETATM   22  C3  UNL     1      20.093   2.110  51.765  1.00  0.00     0.365 C 
HETATM   23  O2  UNL     1      20.263   2.880  52.721  1.00  0.00    -0.238 OA
HETATM   24  H6  UNL     1      20.862   0.785  50.453  1.00  0.00     0.171 HD
BRANCH  22  25
HETATM   25  O1  UNL     1      18.789   2.071  51.307  1.00  0.00    -0.304 OA
BRANCH  25  26
HETATM   26  C2  UNL     1      18.421   1.024  50.432  1.00  0.00     0.176 C 
HETATM   27  C1  UNL     1      17.977  -0.144  51.293  1.00  0.00     0.034 C 
ENDBRANCH  25  26
ENDBRANCH  22  25
ENDBRANCH   1  21
TORSDOF 5
ENDMDL
MODEL 4
REMARK VINA RESULT:      -8.2      1.785      5.165
REMARK  5 active torsions:
REMARK  status: ('A' for Active; 'I' for Inactive)
REMARK    1  A    between atoms: C2_2  and  O1_3 
REMARK    2  A    between atoms: O1_3  and  C3_4 
REMARK       I    between atoms: C3_4  and  N1_6 
REMARK    3  A    between atoms: N1_6  and  C4_7 
REMARK    4  A    between atoms: C11_16  and  N4_17 
REMARK    5  A    between atoms: N4_17  and  C12_18 
ROOT
HETATM    1  C4  UNL     1      26.195   1.457  51.817  1.00  0.00     0.037 A 
HETATM    2  C5  UNL     1      26.764   2.613  51.329  1.00  0.00     0.030 A 
HETATM    3  C6  UNL     1      26.025   3.506  50.590  1.00  0.00     0.016 A 
HETATM    4  C7  UNL     1      24.695   3.245  50.330  1.00  0.00     0.000 A 
HETATM    5  C8  UNL     1      24.038   4.192  49.584  1.00  0.00     0.073 A 
HETATM    6  C9  UNL     1      24.701   5.373  49.110  1.00  0.00     0.102 C 
HETATM    7  N2  UNL     1      25.233   6.319  48.728  1.00  0.00    -0.191 NA
HETATM    8  C10 UNL     1      22.710   3.945  49.316  1.00  0.00     0.142 A 
HETATM    9  N3  UNL     1      22.142   2.829  49.782  1.00  0.00    -0.241 NA
HETATM   10  C11 UNL     1      22.751   1.887  50.510  1.00  0.00     0.139 A 
HETATM   11  C18 UNL     1      24.074   2.105  50.793  1.00  0.00     0.024 A 
HETATM   12  C19 UNL     1      24.872   1.259  51.524  1.00  0.00     0.045 A 
ENDROOT
BRANCH  10  13
HETATM   13  N4  UNL     1      22.104   0.719  50.981  1.00  0.00    -0.340 N 
HETATM   14  H10 UNL     1      21.712   0.016  50.324  1.00  0.00     0.167 HD
BRANCH  13  15
HETATM   15  C12 UNL     1      21.871   0.295  52.301  1.00  0.00     0.033 A 
HETATM   16  C13 UNL     1      22.435  -0.828  52.894  1.00  0.00     0.029 A 
HETATM   17  C14 UNL     1      22.209  -1.244  54.169  1.00  0.00     0.002 A 
HETATM   18  C15 UNL     1      21.360  -0.531  54.980  1.00  0.00     0.000 A 
HETATM   19  C16 UNL     1      20.766   0.594  54.458  1.00  0.00     0.002 A 
HETATM   20  C17 UNL     1      21.036   0.960  53.163  1.00  0.00     0.029 A 
ENDBRANCH  13  15
ENDBRANCH  10  13
BRANCH   1  21
HETATM   21  N1  UNL     1      27.050   0.615  52.564  1.00  0.00    -0.303 N 
HETATM   22  C3  UNL     1      27.235   0.532  53.961  1.00  0.00     0.365 C 
HETATM   23  O2  UNL     1      26.590   1.274  54.714  1.00  0.00    -0.238 OA
HETATM   24  H6  UNL     1      27.669  -0.078  52.088  1.00  0.00     0.171 HD
BRANCH  22  25
HETATM   25  O1  UNL     1      28.095  -0.323  54.625  1.00  0.00    -0.304 OA
BRANCH  25  26
HETATM   26  C2  UNL     1      29.401  -0.490  54.108  1.00  0.00     0.176 C 
HETATM   27  C1  UNL     1      29.428  -1.821  53.381  1.00  0.00     0.034 C 
ENDBRANCH  25  26
ENDBRANCH  22  25
ENDBRANCH   1  21
TORSDOF 5
ENDMDL
MODEL 5
REMARK VINA RESULT:      -7.8      4.408      7.753
REMARK  5 active torsions:
REMARK  status: ('A' for Active; 'I' for Inactive)
REMARK    1  A    between atoms: C2_2  and  O1_3 
REMARK    2  A    between atoms: O1_3  and  C3_4 
REMARK       I    between atoms: C3_4  and  N1_6 
REMARK    3  A    between atoms: N1_6  and  C4_7 
REMARK    4  A    between atoms: C11_16  and  N4_17 
REMARK    5  A    between atoms: N4_17  and  C12_18 
ROOT
HETATM    1  C4  UNL     1      29.354   5.804  47.972  1.00  0.00     0.037 A 
HETATM    2  C5  UNL     1      28.947   7.051  47.552  1.00  0.00     0.030 A 
HETATM    3  C6  UNL     1      27.642   7.455  47.705  1.00  0.00     0.016 A 
HETATM    4  C7  UNL     1      26.725   6.603  48.286  1.00  0.00     0.000 A 
HETATM    5  C8  UNL     1      25.446   7.093  48.396  1.00  0.00     0.073 A 
HETATM    6  C9  UNL     1      25.098   8.406  47.934  1.00  0.00     0.102 C 
HETATM    7  N2  UNL     1      24.818   9.458  47.561  1.00  0.00    -0.191 NA
HETATM    8  C10 UNL     1      24.519   6.255  48.973  1.00  0.00     0.142 A 
HETATM    9  N3  UNL     1      24.898   5.041  49.386  1.00  0.00    -0.241 NA
HETATM   10  C11 UNL     1      26.131   4.534  49.295  1.00  0.00     0.139 A 
HETATM   11  C18 UNL     1      27.077   5.346  48.724  1.00  0.00     0.024 A 
HETATM   12  C19 UNL     1      28.395   5.009  48.540  1.00  0.00     0.045 A 
ENDROOT
BRANCH  10  13
HETATM   13  N4  UNL     1      26.482   3.239  49.748  1.00  0.00    -0.340 N 
HETATM   14  H10 UNL     1      27.078   2.609  49.176  1.00  0.00     0.167 HD
BRANCH  13  15
HETATM   15  C12 UNL     1      26.139   2.586  50.946  1.00  0.00     0.033 A 
HETATM   16  C13 UNL     1      24.858   2.177  51.297  1.00  0.00     0.029 A 
HETATM   17  C14 UNL     1      24.521   1.549  52.455  1.00  0.00     0.002 A 
HETATM   18  C15 UNL     1      25.490   1.274  53.391  1.00  0.00     0.000 A 
HETATM   19  C16 UNL     1      26.782   1.652  53.108  1.00  0.00     0.002 A 
HETATM   20  C17 UNL     1      27.055   2.282  51.920  1.00  0.00     0.029 A 
ENDBRANCH  13  15
ENDBRANCH  10  13
BRANCH   1  21
HETATM   21  N1  UNL     1      30.719   5.497  47.764  1.00  0.00    -0.303 N 
HETATM   22  C3  UNL     1      31.773   5.405  48.699  1.00  0.00     0.365 C 
HETATM   23  O2  UNL     1      31.551   5.609  49.901  1.00  0.00    -0.238 OA
HETATM   24  H6  UNL     1      31.083   5.295  46.807  1.00  0.00     0.171 HD
BRANCH  22  25
HETATM   25  O1  UNL     1      33.092   5.098  48.421  1.00  0.00    -0.304 OA
BRANCH  25  26
HETATM   26  C2  UNL     1      33.357   4.192  47.368  1.00  0.00     0.176 C 
HETATM   27  C1  UNL     1      34.484   3.287  47.829  1.00  0.00     0.034 C 
ENDBRANCH  25  26
ENDBRANCH  22  25
ENDBRANCH   1  21
TORSDOF 5
ENDMDL
MODEL 6
REMARK VINA RESULT:      -7.8      2.475      5.337
REMARK  5 active torsions:
REMARK  status: ('A' for Active; 'I' for Inactive)
REMARK    1  A    between atoms: C2_2  and  O1_3 
REMARK    2  A    between atoms: O1_3  and  C3_4 
REMARK       I    between atoms: C3_4  and  N1_6 
REMARK    3  A    between atoms: N1_6  and  C4_7 
REMARK    4  A    between atoms: C11_16  and  N4_17 
REMARK    5  A    between atoms: N4_17  and  C12_18 
ROOT
HETATM    1  C4  UNL     1      25.040   2.989  50.867  1.00  0.00     0.037 A 
HETATM    2  C5  UNL     1      25.091   3.308  49.528  1.00  0.00     0.030 A 
HETATM    3  C6  UNL     1      23.951   3.303  48.759  1.00  0.00     0.016 A 
HETATM    4  C7  UNL     1      22.739   2.976  49.332  1.00  0.00     0.000 A 
HETATM    5  C8  UNL     1      21.656   2.998  48.486  1.00  0.00     0.073 A 
HETATM    6  C9  UNL     1      21.788   3.341  47.099  1.00  0.00     0.102 C 
HETATM    7  N2  UNL     1      21.895   3.612  45.987  1.00  0.00    -0.191 NA
HETATM    8  C10 UNL     1      20.440   2.674  49.044  1.00  0.00     0.142 A 
HETATM    9  N3  UNL     1      20.374   2.363  50.342  1.00  0.00    -0.241 NA
HETATM   10  C11 UNL     1      21.405   2.332  51.192  1.00  0.00     0.139 A 
HETATM   11  C18 UNL     1      22.630   2.650  50.666  1.00  0.00     0.024 A 
HETATM   12  C19 UNL     1      23.808   2.675  51.373  1.00  0.00     0.045 A 
ENDROOT
BRANCH  10  13
HETATM   13  N4  UNL     1      21.283   1.995  52.561  1.00  0.00    -0.340 N 
HETATM   14  H10 UNL     1      21.109   2.720  53.284  1.00  0.00     0.167 HD
BRANCH  13  15
HETATM   15  C12 UNL     1      21.362   0.735  53.184  1.00  0.00     0.033 A 
HETATM   16  C13 UNL     1      20.303  -0.153  53.333  1.00  0.00     0.029 A 
HETATM   17  C14 UNL     1      20.373  -1.369  53.937  1.00  0.00     0.002 A 
HETATM   18  C15 UNL     1      21.567  -1.803  54.463  1.00  0.00     0.000 A 
HETATM   19  C16 UNL     1      22.658  -0.973  54.351  1.00  0.00     0.002 A 
HETATM   20  C17 UNL     1      22.520   0.242  53.728  1.00  0.00     0.029 A 
ENDBRANCH  13  15
ENDBRANCH  10  13
BRANCH   1  21
HETATM   21  N1  UNL     1      26.274   3.028  51.557  1.00  0.00    -0.303 N 
HETATM   22  C3  UNL     1      27.074   1.965  52.030  1.00  0.00     0.365 C 
HETATM   23  O2  UNL     1      26.711   0.794  51.853  1.00  0.00    -0.238 OA
HETATM   24  H6  UNL     1      26.729   3.938  51.790  1.00  0.00     0.171 HD
BRANCH  22  25
HETATM   25  O1  UNL     1      28.278   2.079  52.700  1.00  0.00    -0.304 OA
BRANCH  25  26
HETATM   26  C2  UNL     1      28.444   1.351  53.900  1.00  0.00     0.176 C 
HETATM   27  C1  UNL     1      29.599   0.391  53.685  1.00  0.00     0.034 C 
ENDBRANCH  25  26
ENDBRANCH  22  25
ENDBRANCH   1  21
TORSDOF 5
ENDMDL
MODEL 7
REMARK VINA RESULT:      -7.7      2.060      2.900
REMARK  5 active torsions:
REMARK  status: ('A' for Active; 'I' for Inactive)
REMARK    1  A    between atoms: C2_2  and  O1_3 
REMARK    2  A    between atoms: O1_3  and  C3_4 
REMARK       I    between atoms: C3_4  and  N1_6 
REMARK    3  A    between atoms: N1_6  and  C4_7 
REMARK    4  A    between atoms: C11_16  and  N4_17 
REMARK    5  A    between atoms: N4_17  and  C12_18 
ROOT
HETATM    1  C4  UNL     1      25.095   1.709  52.451  1.00  0.00     0.037 A 
HETATM    2  C5  UNL     1      23.920   1.037  52.195  1.00  0.00     0.030 A 
HETATM    3  C6  UNL     1      23.093   1.430  51.170  1.00  0.00     0.016 A 
HETATM    4  C7  UNL     1      23.439   2.511  50.385  1.00  0.00     0.000 A 
HETATM    5  C8  UNL     1      22.551   2.829  49.386  1.00  0.00     0.073 A 
HETATM    6  C9  UNL     1      21.345   2.080  49.182  1.00  0.00     0.102 C 
HETATM    7  N2  UNL     1      20.376   1.481  49.020  1.00  0.00    -0.191 NA
HETATM    8  C10 UNL     1      22.883   3.905  48.595  1.00  0.00     0.142 A 
HETATM    9  N3  UNL     1      24.020   4.568  48.829  1.00  0.00    -0.241 NA
HETATM   10  C11 UNL     1      24.906   4.285  49.790  1.00  0.00     0.139 A 
HETATM   11  C18 UNL     1      24.602   3.218  50.595  1.00  0.00     0.024 A 
HETATM   12  C19 UNL     1      25.380   2.771  51.635  1.00  0.00     0.045 A 
ENDROOT
BRANCH  10  13
HETATM   13  N4  UNL     1      26.097   5.020  49.999  1.00  0.00    -0.340 N 
HETATM   14  H10 UNL     1      26.548   5.065  50.933  1.00  0.00     0.167 HD
BRANCH  13  15
HETATM   15  C12 UNL     1      26.857   5.773  49.084  1.00  0.00     0.033 A 
HETATM   16  C13 UNL     1      26.453   6.967  48.498  1.00  0.00     0.029 A 
HETATM   17  C14 UNL     1      27.182   7.695  47.611  1.00  0.00     0.002 A 
HETATM   18  C15 UNL     1      28.427   7.258  47.228  1.00  0.00     0.000 A 
HETATM   19  C16 UNL     1      28.891   6.082  47.770  1.00  0.00     0.002 A 
HETATM   20  C17 UNL     1      28.105   5.394  48.660  1.00  0.00     0.029 A 
ENDBRANCH  13  15
ENDBRANCH  10  13
BRANCH   1  21
HETATM   21  N1  UNL     1      25.866   1.216  53.529  1.00  0.00    -0.303 N 
HETATM   22  C3  UNL     1      26.779   0.140  53.564  1.00  0.00     0.365 C 
HETATM   23  O2  UNL     1      26.993  -0.521  52.539  1.00  0.00    -0.238 OA
HETATM   24  H6  UNL     1      25.811   1.658  54.474  1.00  0.00     0.171 HD
BRANCH  22  25
HETATM   25  O1  UNL     1      27.503  -0.286  54.662  1.00  0.00    -0.304 OA
BRANCH  25  26
HETATM   26  C2  UNL     1      28.904  -0.090  54.654  1.00  0.00     0.176 C 
HETATM   27  C1  UNL     1      29.149   1.376  54.352  1.00  0.00     0.034 C 
ENDBRANCH  25  26
ENDBRANCH  22  25
ENDBRANCH   1  21
TORSDOF 5
ENDMDL
MODEL 8
REMARK VINA RESULT:      -7.7      2.706      7.038
REMARK  5 active torsions:
REMARK  status: ('A' for Active; 'I' for Inactive)
REMARK    1  A    between atoms: C2_2  and  O1_3 
REMARK    2  A    between atoms: O1_3  and  C3_4 
REMARK       I    between atoms: C3_4  and  N1_6 
REMARK    3  A    between atoms: N1_6  and  C4_7 
REMARK    4  A    between atoms: C11_16  and  N4_17 
REMARK    5  A    between atoms: N4_17  and  C12_18 
ROOT
HETATM    1  C4  UNL     1      25.186   3.133  50.960  1.00  0.00     0.037 A 
HETATM    2  C5  UNL     1      26.429   2.546  51.052  1.00  0.00     0.030 A 
HETATM    3  C6  UNL     1      26.612   1.396  51.783  1.00  0.00     0.016 A 
HETATM    4  C7  UNL     1      25.541   0.821  52.436  1.00  0.00     0.000 A 
HETATM    5  C8  UNL     1      25.820  -0.324  53.142  1.00  0.00     0.073 A 
HETATM    6  C9  UNL     1      27.143  -0.877  53.191  1.00  0.00     0.102 C 
HETATM    7  N2  UNL     1      28.204  -1.319  53.232  1.00  0.00    -0.191 NA
HETATM    8  C10 UNL     1      24.762  -0.909  53.799  1.00  0.00     0.142 A 
HETATM    9  N3  UNL     1      23.549  -0.352  53.720  1.00  0.00    -0.241 NA
HETATM   10  C11 UNL     1      23.242   0.759  53.043  1.00  0.00     0.139 A 
HETATM   11  C18 UNL     1      24.277   1.366  52.378  1.00  0.00     0.024 A 
HETATM   12  C19 UNL     1      24.167   2.512  51.630  1.00  0.00     0.045 A 
ENDROOT
BRANCH  10  13
HETATM   13  N4  UNL     1      21.940   1.312  52.990  1.00  0.00    -0.340 N 
HETATM   14  H10 UNL     1      21.765   2.307  53.231  1.00  0.00     0.167 HD
BRANCH  13  15
HETATM   15  C12 UNL     1      20.722   0.701  52.639  1.00  0.00     0.033 A 
HETATM   16  C13 UNL     1      20.052   0.884  51.435  1.00  0.00     0.029 A 
HETATM   17  C14 UNL     1      18.873   0.299  51.092  1.00  0.00     0.002 A 
HETATM   18  C15 UNL     1      18.250  -0.550  51.975  1.00  0.00     0.000 A 
HETATM   19  C16 UNL     1      18.858  -0.777  53.187  1.00  0.00     0.002 A 
HETATM   20  C17 UNL     1      20.049  -0.156  53.471  1.00  0.00     0.029 A 
ENDBRANCH  13  15
ENDBRANCH  10  13
BRANCH   1  21
HETATM   21  N1  UNL     1      25.117   4.311  50.180  1.00  0.00    -0.303 N 
HETATM   22  C3  UNL     1      24.547   5.564  50.492  1.00  0.00     0.365 C 
HETATM   23  O2  UNL     1      24.007   5.740  51.593  1.00  0.00    -0.238 OA
HETATM   24  H6  UNL     1      25.525   4.343  49.220  1.00  0.00     0.171 HD
BRANCH  22  25
HETATM   25  O1  UNL     1      24.518   6.679  49.674  1.00  0.00    -0.304 OA
BRANCH  25  26
HETATM   26  C2  UNL     1      24.602   6.482  48.276  1.00  0.00     0.176 C 
HETATM   27  C1  UNL     1      23.188   6.272  47.768  1.00  0.00     0.034 C 
ENDBRANCH  25  26
ENDBRANCH  22  25
ENDBRANCH   1  21
TORSDOF 5
ENDMDL
MODEL 9
REMARK VINA RESULT:      -7.5      2.948      6.715
REMARK  5 active torsions:
REMARK  status: ('A' for Active; 'I' for Inactive)
REMARK    1  A    between atoms: C2_2  and  O1_3 
REMARK    2  A    between atoms: O1_3  and  C3_4 
REMARK       I    between atoms: C3_4  and  N1_6 
REMARK    3  A    between atoms: N1_6  and  C4_7 
REMARK    4  A    between atoms: C11_16  and  N4_17 
REMARK    5  A    between atoms: N4_17  and  C12_18 
ROOT
HETATM    1  C4  UNL     1      22.110   2.279  50.718  1.00  0.00     0.037 A 
HETATM    2  C5  UNL     1      22.015   3.420  49.951  1.00  0.00     0.030 A 
HETATM    3  C6  UNL     1      23.140   4.128  49.600  1.00  0.00     0.016 A 
HETATM    4  C7  UNL     1      24.381   3.696  50.021  1.00  0.00     0.000 A 
HETATM    5  C8  UNL     1      25.446   4.468  49.623  1.00  0.00     0.073 A 
HETATM    6  C9  UNL     1      25.267   5.645  48.822  1.00  0.00     0.102 C 
HETATM    7  N2  UNL     1      25.123   6.591  48.183  1.00  0.00    -0.191 NA
HETATM    8  C10 UNL     1      26.690   4.050  50.035  1.00  0.00     0.142 A 
HETATM    9  N3  UNL     1      26.800   2.945  50.780  1.00  0.00    -0.241 NA
HETATM   10  C11 UNL     1      25.787   2.171  51.184  1.00  0.00     0.139 A 
HETATM   11  C18 UNL     1      24.534   2.563  50.789  1.00  0.00     0.024 A 
HETATM   12  C19 UNL     1      23.369   1.905  51.101  1.00  0.00     0.045 A 
ENDROOT
BRANCH  10  13
HETATM   13  N4  UNL     1      25.955   1.009  51.974  1.00  0.00    -0.340 N 
HETATM   14  H10 UNL     1      25.159   0.374  52.178  1.00  0.00     0.167 HD
BRANCH  13  15
HETATM   15  C12 UNL     1      27.114   0.508  52.595  1.00  0.00     0.033 A 
HETATM   16  C13 UNL     1      28.096   1.282  53.202  1.00  0.00     0.029 A 
HETATM   17  C14 UNL     1      29.220   0.802  53.799  1.00  0.00     0.002 A 
HETATM   18  C15 UNL     1      29.452  -0.552  53.831  1.00  0.00     0.000 A 
HETATM   19  C16 UNL     1      28.520  -1.378  53.248  1.00  0.00     0.002 A 
HETATM   20  C17 UNL     1      27.406  -0.830  52.662  1.00  0.00     0.029 A 
ENDBRANCH  13  15
ENDBRANCH  10  13
BRANCH   1  21
HETATM   21  N1  UNL     1      20.888   1.633  51.016  1.00  0.00    -0.303 N 
HETATM   22  C3  UNL     1      19.893   1.978  51.955  1.00  0.00     0.365 C 
HETATM   23  O2  UNL     1      20.036   2.984  52.664  1.00  0.00    -0.238 OA
HETATM   24  H6  UNL     1      20.604   0.765  50.509  1.00  0.00     0.171 HD
BRANCH  22  25
HETATM   25  O1  UNL     1      18.714   1.294  52.192  1.00  0.00    -0.304 OA
BRANCH  25  26
HETATM   26  C2  UNL     1      18.712  -0.109  52.016  1.00  0.00     0.176 C 
HETATM   27  C1  UNL     1      19.274  -0.721  53.286  1.00  0.00     0.034 C 
ENDBRANCH  25  26
ENDBRANCH  22  25
ENDBRANCH   1  21
TORSDOF 5
ENDMDL
