MODEL 1
REMARK VINA RESULT:      -9.4      0.000      0.000
REMARK  3 active torsions:
REMARK  status: ('A' for Active; 'I' for Inactive)
REMARK    1  A    between atoms: N1_1  and  C1_2 
REMARK    2  A    between atoms: C2_4  and  N3_5 
REMARK    3  A    between atoms: N3_5  and  C3_6 
ROOT
HETATM    1  C1  UNL     1      23.586   4.295  52.683  1.00  0.00     0.718 C 
HETATM    2  N2  UNL     1      24.481   3.283  52.902  1.00  0.00    -0.051 NA
HETATM    3  C2  UNL     1      25.171   2.507  51.925  1.00  0.00     0.230 A 
HETATM    4  C9  UNL     1      24.825   1.009  51.762  1.00  0.00     0.063 C 
HETATM    5  C10 UNL     1      23.627   1.030  52.300  1.00  0.00     0.012 C 
HETATM    6  C11 UNL     1      22.613   0.361  53.070  1.00  0.00    -0.025 A 
HETATM    7  C12 UNL     1      21.431   0.960  53.344  1.00  0.00     0.012 A 
HETATM    8  C13 UNL     1      20.516   0.243  54.084  1.00  0.00     0.001 A 
HETATM    9  C14 UNL     1      20.821  -1.022  54.510  1.00  0.00     0.000 A 
HETATM   10  C15 UNL     1      22.071  -1.551  54.173  1.00  0.00     0.001 A 
HETATM   11  C16 UNL     1      23.033  -0.884  53.435  1.00  0.00     0.012 A 
HETATM   12  C17 UNL     1      23.480   2.369  51.603  1.00  0.00     0.236 A 
HETATM   13  N4  UNL     1      22.745   3.520  51.614  1.00  0.00    -0.062 NA
HETATM   14  N5  UNL     1      24.545   2.926  50.714  1.00  0.00    -0.339 N 
HETATM   15  H14 UNL     1      25.230   3.315  50.067  1.00  0.00     0.161 HD
ENDROOT
BRANCH   3  16
HETATM   16  N3  UNL     1      26.602   2.646  51.989  1.00  0.00    -0.343 N 
HETATM   17  H3  UNL     1      26.996   3.419  51.395  1.00  0.00     0.164 HD
BRANCH  16  18
HETATM   18  C3  UNL     1      27.519   1.871  52.747  1.00  0.00     0.032 A 
HETATM   19  C4  UNL     1      28.418   2.394  53.648  1.00  0.00     0.029 A 
HETATM   20  C5  UNL     1      29.315   1.663  54.386  1.00  0.00     0.004 A 
HETATM   21  C6  UNL     1      29.310   0.288  54.204  1.00  0.00     0.019 A 
HETATM   22  C7  UNL     1      28.431  -0.281  53.316  1.00  0.00     0.013 A 
HETATM   23 BR1  UNL     1      28.386  -2.184  53.029  1.00  0.00    -0.051 Br
HETATM   24  C8  UNL     1      27.558   0.506  52.608  1.00  0.00     0.048 A 
ENDBRANCH  16  18
ENDBRANCH   3  16
BRANCH   1  25
HETATM   25  N1  UNL     1      23.821   5.485  53.464  1.00  0.00    -0.231 N 
HETATM   26  H1  UNL     1      24.710   5.916  53.081  1.00  0.00     0.174 HD
HETATM   27  H2  UNL     1      23.013   5.505  54.148  1.00  0.00     0.174 HD
ENDBRANCH   1  25
TORSDOF 3
ENDMDL
MODEL 2
REMARK VINA RESULT:      -9.0      3.113      4.800
REMARK  3 active torsions:
REMARK  status: ('A' for Active; 'I' for Inactive)
REMARK    1  A    between atoms: N1_1  and  C1_2 
REMARK    2  A    between atoms: C2_4  and  N3_5 
REMARK    3  A    between atoms: N3_5  and  C3_6 
ROOT
HETATM    1  C1  UNL     1      27.368   0.135  53.413  1.00  0.00     0.718 C 
HETATM    2  N2  UNL     1      26.546   0.418  52.356  1.00  0.00    -0.051 NA
HETATM    3  C2  UNL     1      26.036   1.692  51.970  1.00  0.00     0.230 A 
HETATM    4  C9  UNL     1      24.524   1.981  52.115  1.00  0.00     0.063 C 
HETATM    5  C10 UNL     1      24.240   1.066  53.013  1.00  0.00     0.012 C 
HETATM    6  C11 UNL     1      23.299   0.120  53.550  1.00  0.00    -0.025 A 
HETATM    7  C12 UNL     1      23.608  -0.646  54.622  1.00  0.00     0.012 A 
HETATM    8  C13 UNL     1      22.644  -1.523  55.072  1.00  0.00     0.001 A 
HETATM    9  C14 UNL     1      21.432  -1.591  54.438  1.00  0.00     0.000 A 
HETATM   10  C15 UNL     1      21.212  -0.755  53.338  1.00  0.00     0.001 A 
HETATM   11  C16 UNL     1      22.137   0.144  52.837  1.00  0.00     0.012 A 
HETATM   12  C17 UNL     1      25.585   1.426  53.615  1.00  0.00     0.236 A 
HETATM   13  N4  UNL     1      26.551   0.962  54.461  1.00  0.00    -0.062 NA
HETATM   14  N5  UNL     1      26.440   2.519  53.058  1.00  0.00    -0.339 N 
HETATM   15  H14 UNL     1      27.028   3.286  52.733  1.00  0.00     0.161 HD
ENDROOT
BRANCH   3  16
HETATM   16  N3  UNL     1      26.460   2.106  50.658  1.00  0.00    -0.343 N 
HETATM   17  H3  UNL     1      27.067   1.412  50.153  1.00  0.00     0.164 HD
BRANCH  16  18
HETATM   18  C3  UNL     1      26.155   3.320  49.986  1.00  0.00     0.032 A 
HETATM   19  C4  UNL     1      24.881   3.793  49.777  1.00  0.00     0.029 A 
HETATM   20  C5  UNL     1      24.566   4.960  49.126  1.00  0.00     0.004 A 
HETATM   21  C6  UNL     1      25.623   5.718  48.645  1.00  0.00     0.019 A 
HETATM   22  C7  UNL     1      26.913   5.288  48.830  1.00  0.00     0.013 A 
HETATM   23 BR1  UNL     1      28.413   6.305  48.179  1.00  0.00    -0.051 Br
HETATM   24  C8  UNL     1      27.161   4.111  49.489  1.00  0.00     0.048 A 
ENDBRANCH  16  18
ENDBRANCH   3  16
BRANCH   1  25
HETATM   25  N1  UNL     1      28.493  -0.709  53.091  1.00  0.00    -0.231 N 
HETATM   26  H1  UNL     1      28.608  -0.654  52.039  1.00  0.00     0.174 HD
HETATM   27  H2  UNL     1      28.806  -1.086  54.029  1.00  0.00     0.174 HD
ENDBRANCH   1  25
TORSDOF 3
ENDMDL
MODEL 3
REMARK VINA RESULT:      -9.0      3.424      4.794
REMARK  3 active torsions:
REMARK  status: ('A' for Active; 'I' for Inactive)
REMARK    1  A    between atoms: N1_1  and  C1_2 
REMARK    2  A    between atoms: C2_4  and  N3_5 
REMARK    3  A    between atoms: N3_5  and  C3_6 
ROOT
HETATM    1  C1  UNL     1      25.991   1.428  52.366  1.00  0.00     0.718 C 
HETATM    2  N2  UNL     1      24.941   1.613  51.508  1.00  0.00    -0.051 NA
HETATM    3  C2  UNL     1      24.147   2.786  51.348  1.00  0.00     0.230 A 
HETATM    4  C9  UNL     1      22.666   2.766  51.791  1.00  0.00     0.063 C 
HETATM    5  C10 UNL     1      22.731   1.759  52.630  1.00  0.00     0.012 C 
HETATM    6  C11 UNL     1      22.096   0.616  53.232  1.00  0.00    -0.025 A 
HETATM    7  C12 UNL     1      22.741  -0.141  54.149  1.00  0.00     0.012 A 
HETATM    8  C13 UNL     1      22.055  -1.214  54.676  1.00  0.00     0.001 A 
HETATM    9  C14 UNL     1      20.775  -1.476  54.268  1.00  0.00     0.000 A 
HETATM   10  C15 UNL     1      20.199  -0.630  53.314  1.00  0.00     0.001 A 
HETATM   11  C16 UNL     1      20.832   0.460  52.746  1.00  0.00     0.012 A 
HETATM   12  C17 UNL     1      24.082   2.333  53.013  1.00  0.00     0.236 A 
HETATM   13  N4  UNL     1      25.262   2.013  53.621  1.00  0.00    -0.062 NA
HETATM   14  N5  UNL     1      24.603   3.605  52.422  1.00  0.00    -0.339 N 
HETATM   15  H14 UNL     1      24.970   4.490  52.074  1.00  0.00     0.161 HD
ENDROOT
BRANCH   3  16
HETATM   16  N3  UNL     1      24.226   3.356  50.029  1.00  0.00    -0.343 N 
HETATM   17  H3  UNL     1      23.432   3.097  49.389  1.00  0.00     0.164 HD
BRANCH  16  18
HETATM   18  C3  UNL     1      25.234   4.211  49.507  1.00  0.00     0.032 A 
HETATM   19  C4  UNL     1      26.548   3.844  49.332  1.00  0.00     0.029 A 
HETATM   20  C5  UNL     1      27.536   4.657  48.835  1.00  0.00     0.004 A 
HETATM   21  C6  UNL     1      27.174   5.949  48.484  1.00  0.00     0.019 A 
HETATM   22  C7  UNL     1      25.874   6.361  48.641  1.00  0.00     0.013 A 
HETATM   23 BR1  UNL     1      25.324   8.144  48.169  1.00  0.00    -0.051 Br
HETATM   24  C8  UNL     1      24.932   5.500  49.144  1.00  0.00     0.048 A 
ENDBRANCH  16  18
ENDBRANCH   3  16
BRANCH   1  25
HETATM   25  N1  UNL     1      27.163   0.839  51.765  1.00  0.00    -0.231 N 
HETATM   26  H1  UNL     1      27.155   1.144  50.750  1.00  0.00     0.174 HD
HETATM   27  H2  UNL     1      27.618   0.308  52.559  1.00  0.00     0.174 HD
ENDBRANCH   1  25
TORSDOF 3
ENDMDL
MODEL 4
REMARK VINA RESULT:      -8.7      3.609      4.494
REMARK  3 active torsions:
REMARK  status: ('A' for Active; 'I' for Inactive)
REMARK    1  A    between atoms: N1_1  and  C1_2 
REMARK    2  A    between atoms: C2_4  and  N3_5 
REMARK    3  A    between atoms: N3_5  and  C3_6 
ROOT
HETATM    1  C1  UNL     1      22.289   4.474  51.476  1.00  0.00     0.718 C 
HETATM    2  N2  UNL     1      23.462   3.881  51.856  1.00  0.00    -0.051 NA
HETATM    3  C2  UNL     1      24.355   3.123  51.043  1.00  0.00     0.230 A 
HETATM    4  C9  UNL     1      24.505   1.604  51.291  1.00  0.00     0.063 C 
HETATM    5  C10 UNL     1      23.368   1.400  51.916  1.00  0.00     0.012 C 
HETATM    6  C11 UNL     1      22.627   0.682  52.919  1.00  0.00    -0.025 A 
HETATM    7  C12 UNL     1      21.318   0.941  53.143  1.00  0.00     0.012 A 
HETATM    8  C13 UNL     1      20.687   0.203  54.121  1.00  0.00     0.001 A 
HETATM    9  C14 UNL     1      21.384  -0.748  54.818  1.00  0.00     0.000 A 
HETATM   10  C15 UNL     1      22.734  -0.938  54.509  1.00  0.00     0.001 A 
HETATM   11  C16 UNL     1      23.426  -0.230  53.541  1.00  0.00     0.012 A 
HETATM   12  C17 UNL     1      22.794   2.394  50.924  1.00  0.00     0.236 A 
HETATM   13  N4  UNL     1      21.730   3.225  50.716  1.00  0.00    -0.062 NA
HETATM   14  N5  UNL     1      23.618   2.993  49.829  1.00  0.00    -0.339 N 
HETATM   15  H14 UNL     1      24.137   3.387  49.045  1.00  0.00     0.161 HD
ENDROOT
BRANCH   3  16
HETATM   16  N3  UNL     1      25.667   3.704  50.937  1.00  0.00    -0.343 N 
HETATM   17  H3  UNL     1      26.372   3.325  51.619  1.00  0.00     0.164 HD
BRANCH  16  18
HETATM   18  C3  UNL     1      26.105   4.709  50.034  1.00  0.00     0.032 A 
HETATM   19  C4  UNL     1      27.164   4.567  49.167  1.00  0.00     0.029 A 
HETATM   20  C5  UNL     1      27.605   5.527  48.292  1.00  0.00     0.004 A 
HETATM   21  C6  UNL     1      26.925   6.735  48.286  1.00  0.00     0.019 A 
HETATM   22  C7  UNL     1      25.861   6.926  49.133  1.00  0.00     0.013 A 
HETATM   23 BR1  UNL     1      24.887   8.586  49.162  1.00  0.00    -0.051 Br
HETATM   24  C8  UNL     1      25.470   5.925  49.985  1.00  0.00     0.048 A 
ENDBRANCH  16  18
ENDBRANCH   3  16
BRANCH   1  25
HETATM   25  N1  UNL     1      22.138   5.841  51.910  1.00  0.00    -0.231 N 
HETATM   26  H1  UNL     1      21.157   6.130  51.633  1.00  0.00     0.174 HD
HETATM   27  H2  UNL     1      23.070   6.072  52.356  1.00  0.00     0.174 HD
ENDBRANCH   1  25
TORSDOF 3
ENDMDL
MODEL 5
REMARK VINA RESULT:      -8.5      3.505      5.124
REMARK  3 active torsions:
REMARK  status: ('A' for Active; 'I' for Inactive)
REMARK    1  A    between atoms: N1_1  and  C1_2 
REMARK    2  A    between atoms: C2_4  and  N3_5 
REMARK    3  A    between atoms: N3_5  and  C3_6 
ROOT
HETATM    1  C1  UNL     1      24.571   6.615  50.677  1.00  0.00     0.718 C 
HETATM    2  N2  UNL     1      24.117   5.363  50.993  1.00  0.00    -0.051 NA
HETATM    3  C2  UNL     1      24.843   4.137  50.939  1.00  0.00     0.230 A 
HETATM    4  C9  UNL     1      24.461   3.075  49.883  1.00  0.00     0.063 C 
HETATM    5  C10 UNL     1      23.844   3.863  49.033  1.00  0.00     0.012 C 
HETATM    6  C11 UNL     1      22.798   4.047  48.063  1.00  0.00    -0.025 A 
HETATM    7  C12 UNL     1      22.624   5.233  47.437  1.00  0.00     0.012 A 
HETATM    8  C13 UNL     1      21.599   5.319  46.519  1.00  0.00     0.001 A 
HETATM    9  C14 UNL     1      20.808   4.228  46.273  1.00  0.00     0.000 A 
HETATM   10  C15 UNL     1      21.072   3.047  46.974  1.00  0.00     0.001 A 
HETATM   11  C16 UNL     1      22.083   2.897  47.907  1.00  0.00     0.012 A 
HETATM   12  C17 UNL     1      24.930   4.865  49.375  1.00  0.00     0.236 A 
HETATM   13  N4  UNL     1      25.230   6.196  49.321  1.00  0.00    -0.062 NA
HETATM   14  N5  UNL     1      26.055   4.535  50.303  1.00  0.00    -0.339 N 
HETATM   15  H14 UNL     1      26.860   4.331  50.895  1.00  0.00     0.161 HD
ENDROOT
BRANCH   3  16
HETATM   16  N3  UNL     1      24.972   3.491  52.218  1.00  0.00    -0.343 N 
HETATM   17  H3  UNL     1      24.957   4.142  53.043  1.00  0.00     0.164 HD
BRANCH  16  18
HETATM   18  C3  UNL     1      25.114   2.102  52.482  1.00  0.00     0.032 A 
HETATM   19  C4  UNL     1      26.259   1.379  52.242  1.00  0.00     0.029 A 
HETATM   20  C5  UNL     1      26.414   0.037  52.486  1.00  0.00     0.004 A 
HETATM   21  C6  UNL     1      25.324  -0.637  53.015  1.00  0.00     0.019 A 
HETATM   22  C7  UNL     1      24.158   0.041  53.272  1.00  0.00     0.013 A 
HETATM   23 BR1  UNL     1      22.619  -0.852  54.007  1.00  0.00    -0.051 Br
HETATM   24  C8  UNL     1      24.068   1.383  53.006  1.00  0.00     0.048 A 
ENDBRANCH  16  18
ENDBRANCH   3  16
BRANCH   1  25
HETATM   25  N1  UNL     1      24.260   7.631  51.653  1.00  0.00    -0.231 N 
HETATM   26  H1  UNL     1      25.025   7.580  52.383  1.00  0.00     0.174 HD
HETATM   27  H2  UNL     1      23.368   8.071  51.288  1.00  0.00     0.174 HD
ENDBRANCH   1  25
TORSDOF 3
ENDMDL
MODEL 6
REMARK VINA RESULT:      -8.3      3.225      6.542
REMARK  3 active torsions:
REMARK  status: ('A' for Active; 'I' for Inactive)
REMARK    1  A    between atoms: N1_1  and  C1_2 
REMARK    2  A    between atoms: C2_4  and  N3_5 
REMARK    3  A    between atoms: N3_5  and  C3_6 
ROOT
HETATM    1  C1  UNL     1      26.221   2.209  52.899  1.00  0.00     0.718 C 
HETATM    2  N2  UNL     1      24.971   2.750  52.762  1.00  0.00    -0.051 NA
HETATM    3  C2  UNL     1      23.817   2.136  52.193  1.00  0.00     0.230 A 
HETATM    4  C9  UNL     1      23.257   2.667  50.854  1.00  0.00     0.063 C 
HETATM    5  C10 UNL     1      24.342   3.262  50.415  1.00  0.00     0.012 C 
HETATM    6  C11 UNL     1      24.939   4.342  49.676  1.00  0.00    -0.025 A 
HETATM    7  C12 UNL     1      26.282   4.450  49.555  1.00  0.00     0.012 A 
HETATM    8  C13 UNL     1      26.768   5.514  48.826  1.00  0.00     0.001 A 
HETATM    9  C14 UNL     1      25.898   6.408  48.260  1.00  0.00     0.000 A 
HETATM   10  C15 UNL     1      24.527   6.206  48.444  1.00  0.00     0.001 A 
HETATM   11  C16 UNL     1      23.977   5.161  49.164  1.00  0.00     0.012 A 
HETATM   12  C17 UNL     1      25.076   2.076  51.013  1.00  0.00     0.236 A 
HETATM   13  N4  UNL     1      26.309   1.667  51.433  1.00  0.00    -0.062 NA
HETATM   14  N5  UNL     1      24.355   0.932  51.651  1.00  0.00    -0.339 N 
HETATM   15  H14 UNL     1      23.896   0.115  52.053  1.00  0.00     0.161 HD
ENDROOT
BRANCH   3  16
HETATM   16  N3  UNL     1      22.728   1.990  53.123  1.00  0.00    -0.343 N 
HETATM   17  H3  UNL     1      22.449   2.875  53.616  1.00  0.00     0.164 HD
BRANCH  16  18
HETATM   18  C3  UNL     1      22.006   0.808  53.441  1.00  0.00     0.032 A 
HETATM   19  C4  UNL     1      22.492  -0.211  54.226  1.00  0.00     0.029 A 
HETATM   20  C5  UNL     1      21.813  -1.362  54.539  1.00  0.00     0.004 A 
HETATM   21  C6  UNL     1      20.534  -1.501  54.020  1.00  0.00     0.019 A 
HETATM   22  C7  UNL     1      20.005  -0.510  53.231  1.00  0.00     0.013 A 
HETATM   23 BR1  UNL     1      18.236  -0.657  52.486  1.00  0.00    -0.051 Br
HETATM   24  C8  UNL     1      20.737   0.617  52.954  1.00  0.00     0.048 A 
ENDBRANCH  16  18
ENDBRANCH   3  16
BRANCH   1  25
HETATM   25  N1  UNL     1      26.809   2.377  54.206  1.00  0.00    -0.231 N 
HETATM   26  H1  UNL     1      26.056   2.811  54.812  1.00  0.00     0.174 HD
HETATM   27  H2  UNL     1      27.793   2.002  54.093  1.00  0.00     0.174 HD
ENDBRANCH   1  25
TORSDOF 3
ENDMDL
MODEL 7
REMARK VINA RESULT:      -8.3      2.969      6.474
REMARK  3 active torsions:
REMARK  status: ('A' for Active; 'I' for Inactive)
REMARK    1  A    between atoms: N1_1  and  C1_2 
REMARK    2  A    between atoms: C2_4  and  N3_5 
REMARK    3  A    between atoms: N3_5  and  C3_6 
ROOT
HETATM    1  C1  UNL     1      24.199   3.444  51.017  1.00  0.00     0.718 C 
HETATM    2  N2  UNL     1      24.112   2.083  51.133  1.00  0.00    -0.051 NA
HETATM    3  C2  UNL     1      23.293   1.339  52.033  1.00  0.00     0.230 A 
HETATM    4  C9  UNL     1      23.956   0.533  53.174  1.00  0.00     0.063 C 
HETATM    5  C10 UNL     1      25.097   1.181  53.227  1.00  0.00     0.012 C 
HETATM    6  C11 UNL     1      26.516   1.156  53.461  1.00  0.00    -0.025 A 
HETATM    7  C12 UNL     1      27.265   2.276  53.350  1.00  0.00     0.012 A 
HETATM    8  C13 UNL     1      28.617   2.160  53.595  1.00  0.00     0.001 A 
HETATM    9  C14 UNL     1      29.148   0.945  53.937  1.00  0.00     0.000 A 
HETATM   10  C15 UNL     1      28.286  -0.153  54.025  1.00  0.00     0.001 A 
HETATM   11  C16 UNL     1      26.924  -0.103  53.790  1.00  0.00     0.012 A 
HETATM   12  C17 UNL     1      24.257   2.419  52.974  1.00  0.00     0.236 A 
HETATM   13  N4  UNL     1      24.338   3.715  52.552  1.00  0.00    -0.062 NA
HETATM   14  N5  UNL     1      22.766   2.363  52.873  1.00  0.00    -0.339 N 
HETATM   15  H14 UNL     1      21.747   2.368  52.843  1.00  0.00     0.161 HD
ENDROOT
BRANCH   3  16
HETATM   16  N3  UNL     1      22.333   0.495  51.370  1.00  0.00    -0.343 N 
HETATM   17  H3  UNL     1      22.664   0.084  50.461  1.00  0.00     0.164 HD
BRANCH  16  18
HETATM   18  C3  UNL     1      21.020   0.165  51.800  1.00  0.00     0.032 A 
HETATM   19  C4  UNL     1      20.719  -0.380  53.026  1.00  0.00     0.029 A 
HETATM   20  C5  UNL     1      19.458  -0.711  53.457  1.00  0.00     0.004 A 
HETATM   21  C6  UNL     1      18.410  -0.472  52.581  1.00  0.00     0.019 A 
HETATM   22  C7  UNL     1      18.660   0.071  51.346  1.00  0.00     0.013 A 
HETATM   23 BR1  UNL     1      17.238   0.419  50.096  1.00  0.00    -0.051 Br
HETATM   24  C8  UNL     1      19.944   0.379  50.974  1.00  0.00     0.048 A 
ENDBRANCH  16  18
ENDBRANCH   3  16
BRANCH   1  25
HETATM   25  N1  UNL     1      24.126   3.938  49.664  1.00  0.00    -0.231 N 
HETATM   26  H1  UNL     1      24.016   3.084  49.046  1.00  0.00     0.174 HD
HETATM   27  H2  UNL     1      24.209   4.988  49.770  1.00  0.00     0.174 HD
ENDBRANCH   1  25
TORSDOF 3
ENDMDL
MODEL 8
REMARK VINA RESULT:      -8.3      3.667      6.746
REMARK  3 active torsions:
REMARK  status: ('A' for Active; 'I' for Inactive)
REMARK    1  A    between atoms: N1_1  and  C1_2 
REMARK    2  A    between atoms: C2_4  and  N3_5 
REMARK    3  A    between atoms: N3_5  and  C3_6 
ROOT
HETATM    1  C1  UNL     1      21.889   4.761  49.382  1.00  0.00     0.718 C 
HETATM    2  N2  UNL     1      22.718   3.672  49.371  1.00  0.00    -0.051 NA
HETATM    3  C2  UNL     1      23.229   2.958  50.494  1.00  0.00     0.230 A 
HETATM    4  C9  UNL     1      24.740   3.030  50.815  1.00  0.00     0.063 C 
HETATM    5  C10 UNL     1      25.018   4.144  50.178  1.00  0.00     0.012 C 
HETATM    6  C11 UNL     1      25.957   4.923  49.416  1.00  0.00    -0.025 A 
HETATM    7  C12 UNL     1      25.640   6.160  48.968  1.00  0.00     0.012 A 
HETATM    8  C13 UNL     1      26.602   6.836  48.249  1.00  0.00     0.001 A 
HETATM    9  C14 UNL     1      27.819   6.252  48.015  1.00  0.00     0.000 A 
HETATM   10  C15 UNL     1      28.045   4.969  48.522  1.00  0.00     0.001 A 
HETATM   11  C16 UNL     1      27.123   4.237  49.249  1.00  0.00     0.012 A 
HETATM   12  C17 UNL     1      23.669   4.617  50.684  1.00  0.00     0.236 A 
HETATM   13  N4  UNL     1      22.697   5.551  50.464  1.00  0.00    -0.062 NA
HETATM   14  N5  UNL     1      22.816   3.780  51.584  1.00  0.00    -0.339 N 
HETATM   15  H14 UNL     1      22.230   3.256  52.232  1.00  0.00     0.161 HD
ENDROOT
BRANCH   3  16
HETATM   16  N3  UNL     1      22.813   1.581  50.536  1.00  0.00    -0.343 N 
HETATM   17  H3  UNL     1      22.896   1.069  49.621  1.00  0.00     0.164 HD
BRANCH  16  18
HETATM   18  C3  UNL     1      22.316   0.854  51.651  1.00  0.00     0.032 A 
HETATM   19  C4  UNL     1      23.087   0.436  52.711  1.00  0.00     0.029 A 
HETATM   20  C5  UNL     1      22.627  -0.271  53.793  1.00  0.00     0.004 A 
HETATM   21  C6  UNL     1      21.276  -0.585  53.814  1.00  0.00     0.019 A 
HETATM   22  C7  UNL     1      20.466  -0.189  52.778  1.00  0.00     0.013 A 
HETATM   23 BR1  UNL     1      18.586  -0.603  52.761  1.00  0.00    -0.051 Br
HETATM   24  C8  UNL     1      20.988   0.515  51.724  1.00  0.00     0.048 A 
ENDBRANCH  16  18
ENDBRANCH   3  16
BRANCH   1  25
HETATM   25  N1  UNL     1      20.767   4.672  48.479  1.00  0.00    -0.231 N 
HETATM   26  H1  UNL     1      21.110   4.125  47.640  1.00  0.00     0.174 HD
HETATM   27  H2  UNL     1      19.993   5.191  48.982  1.00  0.00     0.174 HD
ENDBRANCH   1  25
TORSDOF 3
ENDMDL
MODEL 9
REMARK VINA RESULT:      -8.2      3.589      7.005
REMARK  3 active torsions:
REMARK  status: ('A' for Active; 'I' for Inactive)
REMARK    1  A    between atoms: N1_1  and  C1_2 
REMARK    2  A    between atoms: C2_4  and  N3_5 
REMARK    3  A    between atoms: N3_5  and  C3_6 
ROOT
HETATM    1  C1  UNL     1      22.290   5.036  49.685  1.00  0.00     0.718 C 
HETATM    2  N2  UNL     1      23.092   3.946  49.479  1.00  0.00    -0.051 NA
HETATM    3  C2  UNL     1      23.691   3.110  50.466  1.00  0.00     0.230 A 
HETATM    4  C9  UNL     1      25.227   3.130  50.647  1.00  0.00     0.063 C 
HETATM    5  C10 UNL     1      25.467   4.303  50.108  1.00  0.00     0.012 C 
HETATM    6  C11 UNL     1      26.346   5.150  49.346  1.00  0.00    -0.025 A 
HETATM    7  C12 UNL     1      26.015   6.431  49.065  1.00  0.00     0.012 A 
HETATM    8  C13 UNL     1      26.919   7.171  48.333  1.00  0.00     0.001 A 
HETATM    9  C14 UNL     1      28.095   6.603  47.923  1.00  0.00     0.000 A 
HETATM   10  C15 UNL     1      28.342   5.270  48.267  1.00  0.00     0.001 A 
HETATM   11  C16 UNL     1      27.477   4.474  48.997  1.00  0.00     0.012 A 
HETATM   12  C17 UNL     1      24.181   4.734  50.788  1.00  0.00     0.236 A 
HETATM   13  N4  UNL     1      23.213   5.696  50.763  1.00  0.00    -0.062 NA
HETATM   14  N5  UNL     1      23.400   3.814  51.671  1.00  0.00    -0.339 N 
HETATM   15  H14 UNL     1      22.866   3.229  52.313  1.00  0.00     0.161 HD
ENDROOT
BRANCH   3  16
HETATM   16  N3  UNL     1      23.253   1.741  50.401  1.00  0.00    -0.343 N 
HETATM   17  H3  UNL     1      23.863   1.111  49.821  1.00  0.00     0.164 HD
BRANCH  16  18
HETATM   18  C3  UNL     1      22.114   1.160  51.020  1.00  0.00     0.032 A 
HETATM   19  C4  UNL     1      20.836   1.232  50.516  1.00  0.00     0.029 A 
HETATM   20  C5  UNL     1      19.722   0.682  51.101  1.00  0.00     0.004 A 
HETATM   21  C6  UNL     1      19.908   0.002  52.295  1.00  0.00     0.019 A 
HETATM   22  C7  UNL     1      21.166  -0.098  52.837  1.00  0.00     0.013 A 
HETATM   23 BR1  UNL     1      21.473  -1.031  54.492  1.00  0.00    -0.051 Br
HETATM   24  C8  UNL     1      22.238   0.475  52.203  1.00  0.00     0.048 A 
ENDBRANCH  16  18
ENDBRANCH   3  16
BRANCH   1  25
HETATM   25  N1  UNL     1      21.087   5.057  48.889  1.00  0.00    -0.231 N 
HETATM   26  H1  UNL     1      21.300   4.486  48.022  1.00  0.00     0.174 HD
HETATM   27  H2  UNL     1      20.413   5.641  49.461  1.00  0.00     0.174 HD
ENDBRANCH   1  25
TORSDOF 3
ENDMDL
