MODEL 1
REMARK VINA RESULT:      -7.9      0.000      0.000
REMARK  5 active torsions:
REMARK  status: ('A' for Active; 'I' for Inactive)
REMARK    1  A    between atoms: O1_2  and  C2_3 
REMARK    2  A    between atoms: N2_10  and  C8_11 
REMARK    3  A    between atoms: C15_19  and  N3_20 
REMARK       I    between atoms: N3_20  and  C16_21 
REMARK    4  A    between atoms: C16_21  and  C17_23 
REMARK    5  A    between atoms: C17_23  and  C18_24 
ROOT
HETATM    1  C2  UNL     1      23.691   4.739  50.567  1.00  0.00     0.094 A 
HETATM    2  C3  UNL     1      22.563   4.855  49.884  1.00  0.00     0.053 A 
HETATM    3  C4  UNL     1      22.457   3.760  48.914  1.00  0.00     0.112 A 
HETATM    4  C5  UNL     1      22.525   4.227  47.500  1.00  0.00     0.129 A 
HETATM    5  N1  UNL     1      21.673   3.962  46.565  1.00  0.00    -0.273 NA
HETATM    6  C6  UNL     1      20.535   3.151  46.845  1.00  0.00     0.133 A 
HETATM    7  C7  UNL     1      20.303   2.639  48.048  1.00  0.00     0.112 A 
HETATM    8  N2  UNL     1      21.269   2.959  49.048  1.00  0.00    -0.334 N 
HETATM    9  C14 UNL     1      23.718   3.017  49.173  1.00  0.00     0.047 A 
HETATM   10  C15 UNL     1      24.441   3.574  50.129  1.00  0.00     0.067 A 
ENDROOT
BRANCH   8  11
HETATM   11  C8  UNL     1      21.055   2.423  50.372  1.00  0.00     0.037 A 
HETATM   12  C9  UNL     1      20.115   3.134  51.101  1.00  0.00     0.030 A 
HETATM   13  C10 UNL     1      19.803   2.748  52.374  1.00  0.00     0.004 A 
HETATM   14  C11 UNL     1      20.422   1.651  52.933  1.00  0.00     0.019 A 
HETATM   15  C12 UNL     1      21.365   0.947  52.182  1.00  0.00     0.013 A 
HETATM   16 BR1  UNL     1      22.235  -0.580  52.941  1.00  0.00    -0.051 Br
HETATM   17  C13 UNL     1      21.682   1.335  50.898  1.00  0.00     0.048 A 
ENDBRANCH   8  11
BRANCH   1  18
HETATM   18  O1  UNL     1      23.975   5.682  51.536  1.00  0.00    -0.354 OA
HETATM   19  C1  UNL     1      24.246   7.034  51.292  1.00  0.00     0.210 C 
ENDBRANCH   1  18
BRANCH  10  20
HETATM   20  N3  UNL     1      25.693   3.167  50.659  1.00  0.00    -0.325 N 
HETATM   21  C16 UNL     1      25.861   2.450  51.865  1.00  0.00     0.226 C 
HETATM   22  O2  UNL     1      24.865   2.124  52.559  1.00  0.00    -0.273 OA
HETATM   23  H13 UNL     1      26.580   3.389  50.159  1.00  0.00     0.169 HD
BRANCH  21  24
HETATM   24  C17 UNL     1      27.229   2.057  52.355  1.00  0.00     0.152 C 
BRANCH  24  25
HETATM   25  C18 UNL     1      27.176   1.550  53.759  1.00  0.00     0.230 C 
HETATM   26  N4  UNL     1      26.731   0.188  53.797  1.00  0.00    -0.173 NA
HETATM   27  O3  UNL     1      27.478  -0.379  54.782  1.00  0.00    -0.271 OA
HETATM   28  H17 UNL     1      26.890  -0.326  52.899  1.00  0.00     0.157 HD
HETATM   29  C19 UNL     1      28.696   0.252  54.723  1.00  0.00     0.279 C 
HETATM   30  C20 UNL     1      29.648  -0.454  53.777  1.00  0.00     0.072 C 
HETATM   31  O4  UNL     1      28.460   1.542  54.271  1.00  0.00    -0.338 OA
ENDBRANCH  24  25
ENDBRANCH  21  24
ENDBRANCH  10  20
TORSDOF 5
ENDMDL
MODEL 2
REMARK VINA RESULT:      -7.6      1.701      2.403
REMARK  5 active torsions:
REMARK  status: ('A' for Active; 'I' for Inactive)
REMARK    1  A    between atoms: O1_2  and  C2_3 
REMARK    2  A    between atoms: N2_10  and  C8_11 
REMARK    3  A    between atoms: C15_19  and  N3_20 
REMARK       I    between atoms: N3_20  and  C16_21 
REMARK    4  A    between atoms: C16_21  and  C17_23 
REMARK    5  A    between atoms: C17_23  and  C18_24 
ROOT
HETATM    1  C2  UNL     1      23.959   5.398  50.903  1.00  0.00     0.094 A 
HETATM    2  C3  UNL     1      23.106   5.927  50.039  1.00  0.00     0.053 A 
HETATM    3  C4  UNL     1      23.501   5.568  48.673  1.00  0.00     0.112 A 
HETATM    4  C5  UNL     1      23.939   6.742  47.867  1.00  0.00     0.129 A 
HETATM    5  N1  UNL     1      23.489   7.084  46.705  1.00  0.00    -0.273 NA
HETATM    6  C6  UNL     1      22.473   6.306  46.076  1.00  0.00     0.133 A 
HETATM    7  C7  UNL     1      21.955   5.220  46.639  1.00  0.00     0.112 A 
HETATM    8  N2  UNL     1      22.483   4.882  47.921  1.00  0.00    -0.334 N 
HETATM    9  C14 UNL     1      24.716   4.751  48.925  1.00  0.00     0.047 A 
HETATM   10  C15 UNL     1      24.992   4.645  50.213  1.00  0.00     0.067 A 
ENDROOT
BRANCH   8  11
HETATM   11  C8  UNL     1      21.948   3.708  48.569  1.00  0.00     0.037 A 
HETATM   12  C9  UNL     1      22.323   2.526  47.950  1.00  0.00     0.030 A 
HETATM   13  C10 UNL     1      21.895   1.329  48.448  1.00  0.00     0.004 A 
HETATM   14  C11 UNL     1      21.090   1.295  49.566  1.00  0.00     0.019 A 
HETATM   15  C12 UNL     1      20.724   2.496  50.176  1.00  0.00     0.013 A 
HETATM   16 BR1  UNL     1      19.607   2.469  51.730  1.00  0.00    -0.051 Br
HETATM   17  C13 UNL     1      21.154   3.706  49.675  1.00  0.00     0.048 A 
ENDBRANCH   8  11
BRANCH   1  18
HETATM   18  O1  UNL     1      23.755   5.623  52.251  1.00  0.00    -0.354 OA
HETATM   19  C1  UNL     1      23.308   4.665  53.170  1.00  0.00     0.210 C 
ENDBRANCH   1  18
BRANCH  10  20
HETATM   20  N3  UNL     1      26.058   3.956  50.849  1.00  0.00    -0.325 N 
HETATM   21  C16 UNL     1      25.955   2.666  51.417  1.00  0.00     0.226 C 
HETATM   22  O2  UNL     1      24.867   2.038  51.386  1.00  0.00    -0.273 OA
HETATM   23  H13 UNL     1      27.001   4.391  50.927  1.00  0.00     0.169 HD
BRANCH  21  24
HETATM   24  C17 UNL     1      27.138   2.007  52.074  1.00  0.00     0.152 C 
BRANCH  24  25
HETATM   25  C18 UNL     1      26.761   1.398  53.384  1.00  0.00     0.230 C 
HETATM   26  N4  UNL     1      26.459   0.005  53.236  1.00  0.00    -0.173 NA
HETATM   27  O3  UNL     1      26.966  -0.567  54.360  1.00  0.00    -0.271 OA
HETATM   28  H17 UNL     1      26.904  -0.429  52.393  1.00  0.00     0.157 HD
HETATM   29  C19 UNL     1      28.085   0.165  54.667  1.00  0.00     0.279 C 
HETATM   30  C20 UNL     1      29.322  -0.390  53.988  1.00  0.00     0.072 C 
HETATM   31  O4  UNL     1      27.853   1.460  54.228  1.00  0.00    -0.338 OA
ENDBRANCH  24  25
ENDBRANCH  21  24
ENDBRANCH  10  20
TORSDOF 5
ENDMDL
MODEL 3
REMARK VINA RESULT:      -7.5      3.281      6.333
REMARK  5 active torsions:
REMARK  status: ('A' for Active; 'I' for Inactive)
REMARK    1  A    between atoms: O1_2  and  C2_3 
REMARK    2  A    between atoms: N2_10  and  C8_11 
REMARK    3  A    between atoms: C15_19  and  N3_20 
REMARK       I    between atoms: N3_20  and  C16_21 
REMARK    4  A    between atoms: C16_21  and  C17_23 
REMARK    5  A    between atoms: C17_23  and  C18_24 
ROOT
HETATM    1  C2  UNL     1      21.370   3.282  50.257  1.00  0.00     0.094 A 
HETATM    2  C3  UNL     1      22.025   4.303  49.727  1.00  0.00     0.053 A 
HETATM    3  C4  UNL     1      22.403   5.249  50.782  1.00  0.00     0.112 A 
HETATM    4  C5  UNL     1      21.704   6.560  50.665  1.00  0.00     0.129 A 
HETATM    5  N1  UNL     1      22.261   7.726  50.639  1.00  0.00    -0.273 NA
HETATM    6  C6  UNL     1      23.679   7.840  50.728  1.00  0.00     0.133 A 
HETATM    7  C7  UNL     1      24.475   6.782  50.840  1.00  0.00     0.112 A 
HETATM    8  N2  UNL     1      23.814   5.517  50.863  1.00  0.00    -0.334 N 
HETATM    9  C14 UNL     1      21.846   4.581  51.987  1.00  0.00     0.047 A 
HETATM   10  C15 UNL     1      21.246   3.439  51.697  1.00  0.00     0.067 A 
ENDROOT
BRANCH   8  11
HETATM   11  C8  UNL     1      24.642   4.340  50.983  1.00  0.00     0.037 A 
HETATM   12  C9  UNL     1      25.388   4.081  49.845  1.00  0.00     0.030 A 
HETATM   13  C10 UNL     1      26.221   2.999  49.806  1.00  0.00     0.004 A 
HETATM   14  C11 UNL     1      26.321   2.166  50.899  1.00  0.00     0.019 A 
HETATM   15  C12 UNL     1      25.562   2.445  52.037  1.00  0.00     0.013 A 
HETATM   16 BR1  UNL     1      25.687   1.298  53.565  1.00  0.00    -0.051 Br
HETATM   17  C13 UNL     1      24.720   3.535  52.078  1.00  0.00     0.048 A 
ENDBRANCH   8  11
BRANCH   1  18
HETATM   18  O1  UNL     1      20.928   2.275  49.420  1.00  0.00    -0.354 OA
HETATM   19  C1  UNL     1      21.544   1.026  49.265  1.00  0.00     0.210 C 
ENDBRANCH   1  18
BRANCH  10  20
HETATM   20  N3  UNL     1      20.599   2.520  52.563  1.00  0.00    -0.325 N 
HETATM   21  C16 UNL     1      21.179   1.324  53.044  1.00  0.00     0.226 C 
HETATM   22  O2  UNL     1      22.347   1.002  52.713  1.00  0.00    -0.273 OA
HETATM   23  H13 UNL     1      19.627   2.696  52.895  1.00  0.00     0.169 HD
BRANCH  21  24
HETATM   24  C17 UNL     1      20.419   0.404  53.962  1.00  0.00     0.152 C 
BRANCH  24  25
HETATM   25  C18 UNL     1      19.724  -0.672  53.194  1.00  0.00     0.230 C 
HETATM   26  N4  UNL     1      18.430  -0.944  53.748  1.00  0.00    -0.173 NA
HETATM   27  O3  UNL     1      17.646  -1.178  52.662  1.00  0.00    -0.271 OA
HETATM   28  H17 UNL     1      18.037  -0.144  54.297  1.00  0.00     0.157 HD
HETATM   29  C19 UNL     1      18.136  -0.359  51.677  1.00  0.00     0.279 C 
HETATM   30  C20 UNL     1      17.471   1.003  51.697  1.00  0.00     0.072 C 
HETATM   31  O4  UNL     1      19.497  -0.218  51.909  1.00  0.00    -0.338 OA
ENDBRANCH  24  25
ENDBRANCH  21  24
ENDBRANCH  10  20
TORSDOF 5
ENDMDL
MODEL 4
REMARK VINA RESULT:      -7.5      3.410      5.579
REMARK  5 active torsions:
REMARK  status: ('A' for Active; 'I' for Inactive)
REMARK    1  A    between atoms: O1_2  and  C2_3 
REMARK    2  A    between atoms: N2_10  and  C8_11 
REMARK    3  A    between atoms: C15_19  and  N3_20 
REMARK       I    between atoms: N3_20  and  C16_21 
REMARK    4  A    between atoms: C16_21  and  C17_23 
REMARK    5  A    between atoms: C17_23  and  C18_24 
ROOT
HETATM    1  C2  UNL     1      21.704   3.092  49.324  1.00  0.00     0.094 A 
HETATM    2  C3  UNL     1      22.139   4.322  49.099  1.00  0.00     0.053 A 
HETATM    3  C4  UNL     1      22.281   5.037  50.372  1.00  0.00     0.112 A 
HETATM    4  C5  UNL     1      21.322   6.169  50.513  1.00  0.00     0.129 A 
HETATM    5  N1  UNL     1      21.619   7.392  50.804  1.00  0.00    -0.273 NA
HETATM    6  C6  UNL     1      22.977   7.763  51.024  1.00  0.00     0.133 A 
HETATM    7  C7  UNL     1      23.977   6.893  50.943  1.00  0.00     0.112 A 
HETATM    8  N2  UNL     1      23.600   5.555  50.619  1.00  0.00    -0.334 N 
HETATM    9  C14 UNL     1      21.851   3.996  51.341  1.00  0.00     0.047 A 
HETATM   10  C15 UNL     1      21.515   2.864  50.746  1.00  0.00     0.067 A 
ENDROOT
BRANCH   8  11
HETATM   11  C8  UNL     1      24.656   4.575  50.521  1.00  0.00     0.037 A 
HETATM   12  C9  UNL     1      25.520   4.809  49.463  1.00  0.00     0.030 A 
HETATM   13  C10 UNL     1      26.572   3.966  49.240  1.00  0.00     0.004 A 
HETATM   14  C11 UNL     1      26.775   2.883  50.068  1.00  0.00     0.019 A 
HETATM   15  C12 UNL     1      25.895   2.666  51.130  1.00  0.00     0.013 A 
HETATM   16 BR1  UNL     1      26.163   1.167  52.291  1.00  0.00    -0.051 Br
HETATM   17  C13 UNL     1      24.833   3.514  51.356  1.00  0.00     0.048 A 
ENDBRANCH   8  11
BRANCH   1  18
HETATM   18  O1  UNL     1      21.507   2.255  48.242  1.00  0.00    -0.354 OA
HETATM   19  C1  UNL     1      22.499   1.862  47.335  1.00  0.00     0.210 C 
ENDBRANCH   1  18
BRANCH  10  20
HETATM   20  N3  UNL     1      21.057   1.650  51.322  1.00  0.00    -0.325 N 
HETATM   21  C16 UNL     1      19.857   1.509  52.053  1.00  0.00     0.226 C 
HETATM   22  O2  UNL     1      19.102   2.496  52.239  1.00  0.00    -0.273 OA
HETATM   23  H13 UNL     1      21.613   0.773  51.224  1.00  0.00     0.169 HD
BRANCH  21  24
HETATM   24  C17 UNL     1      19.447   0.181  52.631  1.00  0.00     0.152 C 
BRANCH  24  25
HETATM   25  C18 UNL     1      20.027  -0.020  53.992  1.00  0.00     0.230 C 
HETATM   26  N4  UNL     1      20.244  -1.412  54.259  1.00  0.00    -0.173 NA
HETATM   27  O3  UNL     1      21.412  -1.440  54.954  1.00  0.00    -0.271 OA
HETATM   28  H17 UNL     1      20.340  -1.990  53.391  1.00  0.00     0.157 HD
HETATM   29  C19 UNL     1      22.164  -0.412  54.442  1.00  0.00     0.279 C 
HETATM   30  C20 UNL     1      23.007  -0.866  53.266  1.00  0.00     0.072 C 
HETATM   31  O4  UNL     1      21.276   0.570  54.028  1.00  0.00    -0.338 OA
ENDBRANCH  24  25
ENDBRANCH  21  24
ENDBRANCH  10  20
TORSDOF 5
ENDMDL
MODEL 5
REMARK VINA RESULT:      -7.3      8.368     11.521
REMARK  5 active torsions:
REMARK  status: ('A' for Active; 'I' for Inactive)
REMARK    1  A    between atoms: O1_2  and  C2_3 
REMARK    2  A    between atoms: N2_10  and  C8_11 
REMARK    3  A    between atoms: C15_19  and  N3_20 
REMARK       I    between atoms: N3_20  and  C16_21 
REMARK    4  A    between atoms: C16_21  and  C17_23 
REMARK    5  A    between atoms: C17_23  and  C18_24 
ROOT
HETATM    1  C2  UNL     1      31.832   6.554  49.065  1.00  0.00     0.094 A 
HETATM    2  C3  UNL     1      33.046   6.230  48.647  1.00  0.00     0.053 A 
HETATM    3  C4  UNL     1      32.956   5.150  47.658  1.00  0.00     0.112 A 
HETATM    4  C5  UNL     1      33.556   3.873  48.136  1.00  0.00     0.129 A 
HETATM    5  N1  UNL     1      34.450   3.169  47.522  1.00  0.00    -0.273 NA
HETATM    6  C6  UNL     1      34.953   3.600  46.260  1.00  0.00     0.133 A 
HETATM    7  C7  UNL     1      34.538   4.715  45.670  1.00  0.00     0.112 A 
HETATM    8  N2  UNL     1      33.553   5.459  46.386  1.00  0.00    -0.334 N 
HETATM    9  C14 UNL     1      31.488   4.930  47.598  1.00  0.00     0.047 A 
HETATM   10  C15 UNL     1      30.825   5.738  48.408  1.00  0.00     0.067 A 
ENDROOT
BRANCH   8  11
HETATM   11  C8  UNL     1      33.074   6.679  45.779  1.00  0.00     0.037 A 
HETATM   12  C9  UNL     1      32.307   6.459  44.646  1.00  0.00     0.030 A 
HETATM   13  C10 UNL     1      31.781   7.517  43.961  1.00  0.00     0.004 A 
HETATM   14  C11 UNL     1      32.013   8.804  44.397  1.00  0.00     0.019 A 
HETATM   15  C12 UNL     1      32.787   9.005  45.541  1.00  0.00     0.013 A 
HETATM   16 BR1  UNL     1      33.119  10.785  46.162  1.00  0.00    -0.051 Br
HETATM   17  C13 UNL     1      33.319   7.938  46.234  1.00  0.00     0.048 A 
ENDBRANCH   8  11
BRANCH   1  18
HETATM   18  O1  UNL     1      31.705   7.560  50.004  1.00  0.00    -0.354 OA
HETATM   19  C1  UNL     1      31.389   8.894  49.719  1.00  0.00     0.210 C 
ENDBRANCH   1  18
BRANCH  10  20
HETATM   20  N3  UNL     1      29.427   5.834  48.632  1.00  0.00    -0.325 N 
HETATM   21  C16 UNL     1      28.565   6.732  47.962  1.00  0.00     0.226 C 
HETATM   22  O2  UNL     1      29.015   7.525  47.097  1.00  0.00    -0.273 OA
HETATM   23  H13 UNL     1      28.957   5.220  49.331  1.00  0.00     0.169 HD
BRANCH  21  24
HETATM   24  C17 UNL     1      27.091   6.768  48.263  1.00  0.00     0.152 C 
BRANCH  24  25
HETATM   25  C18 UNL     1      26.783   7.746  49.348  1.00  0.00     0.230 C 
HETATM   26  N4  UNL     1      27.974   8.398  49.806  1.00  0.00    -0.173 NA
HETATM   27  O3  UNL     1      27.583   9.678  50.043  1.00  0.00    -0.271 OA
HETATM   28  H17 UNL     1      28.748   8.394  49.099  1.00  0.00     0.157 HD
HETATM   29  C19 UNL     1      26.622   9.945  49.100  1.00  0.00     0.279 C 
HETATM   30  C20 UNL     1      27.225  10.505  47.827  1.00  0.00     0.072 C 
HETATM   31  O4  UNL     1      25.984   8.745  48.825  1.00  0.00    -0.338 OA
ENDBRANCH  24  25
ENDBRANCH  21  24
ENDBRANCH  10  20
TORSDOF 5
ENDMDL
MODEL 6
REMARK VINA RESULT:      -7.3      2.155      2.539
REMARK  5 active torsions:
REMARK  status: ('A' for Active; 'I' for Inactive)
REMARK    1  A    between atoms: O1_2  and  C2_3 
REMARK    2  A    between atoms: N2_10  and  C8_11 
REMARK    3  A    between atoms: C15_19  and  N3_20 
REMARK       I    between atoms: N3_20  and  C16_21 
REMARK    4  A    between atoms: C16_21  and  C17_23 
REMARK    5  A    between atoms: C17_23  and  C18_24 
ROOT
HETATM    1  C2  UNL     1      22.482   3.539  50.966  1.00  0.00     0.094 A 
HETATM    2  C3  UNL     1      21.843   4.154  49.983  1.00  0.00     0.053 A 
HETATM    3  C4  UNL     1      21.605   3.213  48.883  1.00  0.00     0.112 A 
HETATM    4  C5  UNL     1      22.362   3.560  47.647  1.00  0.00     0.129 A 
HETATM    5  N1  UNL     1      21.868   3.703  46.461  1.00  0.00    -0.273 NA
HETATM    6  C6  UNL     1      20.471   3.527  46.245  1.00  0.00     0.133 A 
HETATM    7  C7  UNL     1      19.631   3.213  47.225  1.00  0.00     0.112 A 
HETATM    8  N2  UNL     1      20.221   3.066  48.516  1.00  0.00    -0.334 N 
HETATM    9  C14 UNL     1      22.220   1.972  49.421  1.00  0.00     0.047 A 
HETATM   10  C15 UNL     1      22.732   2.147  50.627  1.00  0.00     0.067 A 
ENDROOT
BRANCH   8  11
HETATM   11  C8  UNL     1      19.344   2.726  49.610  1.00  0.00     0.037 A 
HETATM   12  C9  UNL     1      18.652   3.816  50.113  1.00  0.00     0.030 A 
HETATM   13  C10 UNL     1      17.781   3.653  51.152  1.00  0.00     0.004 A 
HETATM   14  C11 UNL     1      17.589   2.404  51.702  1.00  0.00     0.019 A 
HETATM   15  C12 UNL     1      18.294   1.318  51.180  1.00  0.00     0.013 A 
HETATM   16 BR1  UNL     1      18.040  -0.426  51.930  1.00  0.00    -0.051 Br
HETATM   17  C13 UNL     1      19.174   1.480  50.132  1.00  0.00     0.048 A 
ENDBRANCH   8  11
BRANCH   1  18
HETATM   18  O1  UNL     1      22.799   4.261  52.100  1.00  0.00    -0.354 OA
HETATM   19  C1  UNL     1      23.658   5.367  52.138  1.00  0.00     0.210 C 
ENDBRANCH   1  18
BRANCH  10  20
HETATM   20  N3  UNL     1      23.397   1.213  51.464  1.00  0.00    -0.325 N 
HETATM   21  C16 UNL     1      22.775   0.473  52.495  1.00  0.00     0.226 C 
HETATM   22  O2  UNL     1      21.549   0.612  52.732  1.00  0.00    -0.273 OA
HETATM   23  H13 UNL     1      24.415   1.027  51.348  1.00  0.00     0.169 HD
BRANCH  21  24
HETATM   24  C17 UNL     1      23.557  -0.499  53.338  1.00  0.00     0.152 C 
BRANCH  24  25
HETATM   25  C18 UNL     1      24.896   0.054  53.699  1.00  0.00     0.230 C 
HETATM   26  N4  UNL     1      25.528  -0.745  54.707  1.00  0.00    -0.173 NA
HETATM   27  O3  UNL     1      26.841  -0.748  54.355  1.00  0.00    -0.271 OA
HETATM   28  H17 UNL     1      25.173  -1.730  54.738  1.00  0.00     0.157 HD
HETATM   29  C19 UNL     1      26.850  -0.715  52.983  1.00  0.00     0.279 C 
HETATM   30  C20 UNL     1      26.825  -2.109  52.389  1.00  0.00     0.072 C 
HETATM   31  O4  UNL     1      25.716  -0.020  52.589  1.00  0.00    -0.338 OA
ENDBRANCH  24  25
ENDBRANCH  21  24
ENDBRANCH  10  20
TORSDOF 5
ENDMDL
MODEL 7
REMARK VINA RESULT:      -7.1      3.461      6.890
REMARK  5 active torsions:
REMARK  status: ('A' for Active; 'I' for Inactive)
REMARK    1  A    between atoms: O1_2  and  C2_3 
REMARK    2  A    between atoms: N2_10  and  C8_11 
REMARK    3  A    between atoms: C15_19  and  N3_20 
REMARK       I    between atoms: N3_20  and  C16_21 
REMARK    4  A    between atoms: C16_21  and  C17_23 
REMARK    5  A    between atoms: C17_23  and  C18_24 
ROOT
HETATM    1  C2  UNL     1      22.314   4.297  47.946  1.00  0.00     0.094 A 
HETATM    2  C3  UNL     1      23.208   5.273  47.989  1.00  0.00     0.053 A 
HETATM    3  C4  UNL     1      23.060   6.024  49.240  1.00  0.00     0.112 A 
HETATM    4  C5  UNL     1      22.596   7.424  49.027  1.00  0.00     0.129 A 
HETATM    5  N1  UNL     1      23.160   8.495  49.480  1.00  0.00    -0.273 NA
HETATM    6  C6  UNL     1      24.345   8.398  50.266  1.00  0.00     0.133 A 
HETATM    7  C7  UNL     1      24.910   7.235  50.566  1.00  0.00     0.112 A 
HETATM    8  N2  UNL     1      24.252   6.081  50.044  1.00  0.00    -0.334 N 
HETATM    9  C14 UNL     1      21.933   5.299  49.884  1.00  0.00     0.047 A 
HETATM   10  C15 UNL     1      21.493   4.296  49.145  1.00  0.00     0.067 A 
ENDROOT
BRANCH   8  11
HETATM   11  C8  UNL     1      24.833   4.794  50.345  1.00  0.00     0.037 A 
HETATM   12  C9  UNL     1      25.876   4.455  49.497  1.00  0.00     0.030 A 
HETATM   13  C10 UNL     1      26.528   3.265  49.657  1.00  0.00     0.004 A 
HETATM   14  C11 UNL     1      26.149   2.402  50.662  1.00  0.00     0.019 A 
HETATM   15  C12 UNL     1      25.098   2.762  51.507  1.00  0.00     0.013 A 
HETATM   16 BR1  UNL     1      24.559   1.574  52.909  1.00  0.00    -0.051 Br
HETATM   17  C13 UNL     1      24.438   3.961  51.347  1.00  0.00     0.048 A 
ENDBRANCH   8  11
BRANCH   1  18
HETATM   18  O1  UNL     1      22.294   3.470  46.839  1.00  0.00    -0.354 OA
HETATM   19  C1  UNL     1      21.756   3.808  45.590  1.00  0.00     0.210 C 
ENDBRANCH   1  18
BRANCH  10  20
HETATM   20  N3  UNL     1      20.443   3.379  49.411  1.00  0.00    -0.325 N 
HETATM   21  C16 UNL     1      20.573   2.218  50.206  1.00  0.00     0.226 C 
HETATM   22  O2  UNL     1      21.673   1.928  50.740  1.00  0.00    -0.273 OA
HETATM   23  H13 UNL     1      19.492   3.529  49.013  1.00  0.00     0.169 HD
BRANCH  21  24
HETATM   24  C17 UNL     1      19.405   1.297  50.437  1.00  0.00     0.152 C 
BRANCH  24  25
HETATM   25  C18 UNL     1      18.500   1.826  51.502  1.00  0.00     0.230 C 
HETATM   26  N4  UNL     1      18.945   3.107  51.964  1.00  0.00    -0.173 NA
HETATM   27  O3  UNL     1      17.795   3.802  52.173  1.00  0.00    -0.271 OA
HETATM   28  H17 UNL     1      19.539   3.616  51.268  1.00  0.00     0.157 HD
HETATM   29  C19 UNL     1      16.921   3.356  51.214  1.00  0.00     0.279 C 
HETATM   30  C20 UNL     1      17.025   4.171  49.939  1.00  0.00     0.072 C 
HETATM   31  O4  UNL     1      17.250   2.035  50.951  1.00  0.00    -0.338 OA
ENDBRANCH  24  25
ENDBRANCH  21  24
ENDBRANCH  10  20
TORSDOF 5
ENDMDL
MODEL 8
REMARK VINA RESULT:      -7.0      6.534      9.565
REMARK  5 active torsions:
REMARK  status: ('A' for Active; 'I' for Inactive)
REMARK    1  A    between atoms: O1_2  and  C2_3 
REMARK    2  A    between atoms: N2_10  and  C8_11 
REMARK    3  A    between atoms: C15_19  and  N3_20 
REMARK       I    between atoms: N3_20  and  C16_21 
REMARK    4  A    between atoms: C16_21  and  C17_23 
REMARK    5  A    between atoms: C17_23  and  C18_24 
ROOT
HETATM    1  C2  UNL     1      27.394   8.737  47.716  1.00  0.00     0.094 A 
HETATM    2  C3  UNL     1      28.087   9.827  47.426  1.00  0.00     0.053 A 
HETATM    3  C4  UNL     1      28.645  10.401  48.655  1.00  0.00     0.112 A 
HETATM    4  C5  UNL     1      28.060  11.728  48.995  1.00  0.00     0.129 A 
HETATM    5  N1  UNL     1      28.717  12.815  49.238  1.00  0.00    -0.273 NA
HETATM    6  C6  UNL     1      30.141  12.812  49.191  1.00  0.00     0.133 A 
HETATM    7  C7  UNL     1      30.844  11.723  48.905  1.00  0.00     0.112 A 
HETATM    8  N2  UNL     1      30.076  10.548  48.645  1.00  0.00    -0.334 N 
HETATM    9  C14 UNL     1      28.145   9.444  49.676  1.00  0.00     0.047 A 
HETATM   10  C15 UNL     1      27.419   8.475  49.146  1.00  0.00     0.067 A 
ENDROOT
BRANCH   8  11
HETATM   11  C8  UNL     1      30.801   9.339  48.330  1.00  0.00     0.037 A 
HETATM   12  C9  UNL     1      31.199   8.634  49.454  1.00  0.00     0.030 A 
HETATM   13  C10 UNL     1      31.895   7.467  49.318  1.00  0.00     0.004 A 
HETATM   14  C11 UNL     1      32.202   6.990  48.062  1.00  0.00     0.019 A 
HETATM   15  C12 UNL     1      31.792   7.714  46.942  1.00  0.00     0.013 A 
HETATM   16 BR1  UNL     1      32.208   7.066  45.189  1.00  0.00    -0.051 Br
HETATM   17  C13 UNL     1      31.089   8.892  47.077  1.00  0.00     0.048 A 
ENDBRANCH   8  11
BRANCH   1  18
HETATM   18  O1  UNL     1      26.786   8.047  46.685  1.00  0.00    -0.354 OA
HETATM   19  C1  UNL     1      26.485   8.581  45.425  1.00  0.00     0.210 C 
ENDBRANCH   1  18
BRANCH  10  20
HETATM   20  N3  UNL     1      26.775   7.384  49.784  1.00  0.00    -0.325 N 
HETATM   21  C16 UNL     1      25.423   7.378  50.194  1.00  0.00     0.226 C 
HETATM   22  O2  UNL     1      24.692   8.382  50.005  1.00  0.00    -0.273 OA
HETATM   23  H13 UNL     1      27.295   6.504  49.986  1.00  0.00     0.169 HD
BRANCH  21  24
HETATM   24  C17 UNL     1      24.818   6.174  50.867  1.00  0.00     0.152 C 
BRANCH  24  25
HETATM   25  C18 UNL     1      25.063   4.931  50.076  1.00  0.00     0.230 C 
HETATM   26  N4  UNL     1      26.347   4.372  50.381  1.00  0.00    -0.173 NA
HETATM   27  O3  UNL     1      26.136   3.029  50.365  1.00  0.00    -0.271 OA
HETATM   28  H17 UNL     1      26.711   4.657  51.320  1.00  0.00     0.157 HD
HETATM   29  C19 UNL     1      24.857   2.856  50.831  1.00  0.00     0.279 C 
HETATM   30  C20 UNL     1      24.825   2.709  52.339  1.00  0.00     0.072 C 
HETATM   31  O4  UNL     1      24.136   3.980  50.455  1.00  0.00    -0.338 OA
ENDBRANCH  24  25
ENDBRANCH  21  24
ENDBRANCH  10  20
TORSDOF 5
ENDMDL
MODEL 9
REMARK VINA RESULT:      -7.0      4.853      7.279
REMARK  5 active torsions:
REMARK  status: ('A' for Active; 'I' for Inactive)
REMARK    1  A    between atoms: O1_2  and  C2_3 
REMARK    2  A    between atoms: N2_10  and  C8_11 
REMARK    3  A    between atoms: C15_19  and  N3_20 
REMARK       I    between atoms: N3_20  and  C16_21 
REMARK    4  A    between atoms: C16_21  and  C17_23 
REMARK    5  A    between atoms: C17_23  and  C18_24 
ROOT
HETATM    1  C2  UNL     1      25.801   6.019  49.329  1.00  0.00     0.094 A 
HETATM    2  C3  UNL     1      24.724   5.259  49.455  1.00  0.00     0.053 A 
HETATM    3  C4  UNL     1      23.848   5.811  50.493  1.00  0.00     0.112 A 
HETATM    4  C5  UNL     1      23.735   4.928  51.688  1.00  0.00     0.129 A 
HETATM    5  N1  UNL     1      22.639   4.505  52.228  1.00  0.00    -0.273 NA
HETATM    6  C6  UNL     1      21.381   4.884  51.675  1.00  0.00     0.133 A 
HETATM    7  C7  UNL     1      21.277   5.669  50.609  1.00  0.00     0.112 A 
HETATM    8  N2  UNL     1      22.513   6.109  50.048  1.00  0.00    -0.334 N 
HETATM    9  C14 UNL     1      24.621   7.005  50.923  1.00  0.00     0.047 A 
HETATM   10  C15 UNL     1      25.754   7.138  50.255  1.00  0.00     0.067 A 
ENDROOT
BRANCH   8  11
HETATM   11  C8  UNL     1      22.445   6.965  48.887  1.00  0.00     0.037 A 
HETATM   12  C9  UNL     1      22.262   8.301  49.206  1.00  0.00     0.030 A 
HETATM   13  C10 UNL     1      22.179   9.235  48.212  1.00  0.00     0.004 A 
HETATM   14  C11 UNL     1      22.278   8.849  46.893  1.00  0.00     0.019 A 
HETATM   15  C12 UNL     1      22.464   7.499  46.593  1.00  0.00     0.013 A 
HETATM   16 BR1  UNL     1      22.604   6.944  44.766  1.00  0.00    -0.051 Br
HETATM   17  C13 UNL     1      22.547   6.554  47.593  1.00  0.00     0.048 A 
ENDBRANCH   8  11
BRANCH   1  18
HETATM   18  O1  UNL     1      26.753   5.663  48.393  1.00  0.00    -0.354 OA
HETATM   19  C1  UNL     1      27.882   4.875  48.651  1.00  0.00     0.210 C 
ENDBRANCH   1  18
BRANCH  10  20
HETATM   20  N3  UNL     1      26.754   8.138  50.374  1.00  0.00    -0.325 N 
HETATM   21  C16 UNL     1      27.110   9.044  49.350  1.00  0.00     0.226 C 
HETATM   22  O2  UNL     1      26.533   9.007  48.234  1.00  0.00    -0.273 OA
HETATM   23  H13 UNL     1      27.291   8.250  51.260  1.00  0.00     0.169 HD
BRANCH  21  24
HETATM   24  C17 UNL     1      28.185  10.076  49.561  1.00  0.00     0.152 C 
BRANCH  24  25
HETATM   25  C18 UNL     1      29.546   9.482  49.396  1.00  0.00     0.230 C 
HETATM   26  N4  UNL     1      29.484   8.050  49.389  1.00  0.00    -0.173 NA
HETATM   27  O3  UNL     1      30.409   7.681  48.464  1.00  0.00    -0.271 OA
HETATM   28  H17 UNL     1      28.546   7.676  49.113  1.00  0.00     0.157 HD
HETATM   29  C19 UNL     1      30.381   8.667  47.509  1.00  0.00     0.279 C 
HETATM   30  C20 UNL     1      29.368   8.366  46.422  1.00  0.00     0.072 C 
HETATM   31  O4  UNL     1      30.035   9.845  48.156  1.00  0.00    -0.338 OA
ENDBRANCH  24  25
ENDBRANCH  21  24
ENDBRANCH  10  20
TORSDOF 5
ENDMDL
