MODEL 1
REMARK VINA RESULT:      -9.0      0.000      0.000
REMARK  1 active torsions:
REMARK  status: ('A' for Active; 'I' for Inactive)
REMARK    1  A    between atoms: C3_3  and  C4_4 
ROOT
HETATM    1  C4  UNL     1      23.464  -0.415  53.562  1.00  0.00     0.072 A 
HETATM    2  N1  UNL     1      23.596  -1.092  54.701  1.00  0.00    -0.241 NA
HETATM    3  C5  UNL     1      24.662  -1.163  55.493  1.00  0.00     0.234 A 
HETATM    4  N2  UNL     1      25.720  -0.458  55.073  1.00  0.00    -0.241 NA
HETATM    5  C6  UNL     1      25.662   0.248  53.938  1.00  0.00     0.073 A 
HETATM    6  C7  UNL     1      26.751   0.958  53.501  1.00  0.00     0.035 A 
HETATM    7  C8  UNL     1      26.712   1.682  52.326  1.00  0.00     0.034 A 
HETATM    8  C9  UNL     1      25.559   1.694  51.576  1.00  0.00     0.055 A 
HETATM    9  C10 UNL     1      24.399   0.995  51.949  1.00  0.00     0.070 A 
HETATM   10  C11 UNL     1      24.543   0.306  53.133  1.00  0.00     0.050 A 
HETATM   11  N3  UNL     1      23.202   1.001  51.191  1.00  0.00    -0.383 N 
HETATM   12  C12 UNL     1      22.111   1.807  50.756  1.00  0.00     0.158 C 
HETATM   13  C13 UNL     1      22.343   2.894  49.824  1.00  0.00    -0.040 A 
HETATM   14  C14 UNL     1      22.148   2.732  48.467  1.00  0.00     0.009 A 
HETATM   15  C15 UNL     1      22.357   3.666  47.479  1.00  0.00     0.001 A 
HETATM   16  C16 UNL     1      22.820   4.936  47.842  1.00  0.00     0.011 A 
HETATM   17  C17 UNL     1      23.046   5.181  49.207  1.00  0.00    -0.036 A 
HETATM   18  C18 UNL     1      22.793   4.163  50.088  1.00  0.00     0.020 A 
HETATM   19  C19 UNL     1      23.621   6.397  49.796  1.00  0.00     0.009 C 
HETATM   20  C20 UNL     1      24.931   6.142  49.999  1.00  0.00    -0.004 C 
HETATM   21  C21 UNL     1      25.419   4.809  49.607  1.00  0.00     0.122 C 
HETATM   22 CL1  UNL     1      27.032   5.149  48.820  1.00  0.00    -0.119 Cl
HETATM   23  C22 UNL     1      25.632   3.956  50.815  1.00  0.00     0.144 C 
HETATM   24  N4  UNL     1      25.750   2.541  50.411  1.00  0.00    -0.386 N 
HETATM   25  H9  UNL     1      23.360  -0.023  50.921  1.00  0.00     0.160 HD
HETATM   26  H21 UNL     1      25.885   1.690  49.853  1.00  0.00     0.159 HD
ENDROOT
BRANCH   1  27
HETATM   27  C3  UNL     1      22.177  -0.549  52.949  1.00  0.00     0.028 C 
HETATM   28  C2  UNL     1      21.038  -0.243  53.542  1.00  0.00    -0.029 C 
HETATM   29  C1  UNL     1      20.927   0.280  54.915  1.00  0.00     0.036 C 
ENDBRANCH   1  27
TORSDOF 1
ENDMDL
MODEL 2
REMARK VINA RESULT:      -9.0      2.123      4.084
REMARK  1 active torsions:
REMARK  status: ('A' for Active; 'I' for Inactive)
REMARK    1  A    between atoms: C3_3  and  C4_4 
ROOT
HETATM    1  C4  UNL     1      24.367   0.126  53.937  1.00  0.00     0.072 A 
HETATM    2  N1  UNL     1      24.509  -0.888  54.788  1.00  0.00    -0.241 NA
HETATM    3  C5  UNL     1      23.555  -1.591  55.392  1.00  0.00     0.234 A 
HETATM    4  N2  UNL     1      22.305  -1.214  55.090  1.00  0.00    -0.241 NA
HETATM    5  C6  UNL     1      22.085  -0.203  54.242  1.00  0.00     0.073 A 
HETATM    6  C7  UNL     1      20.805   0.192  53.945  1.00  0.00     0.035 A 
HETATM    7  C8  UNL     1      20.559   1.241  53.081  1.00  0.00     0.034 A 
HETATM    8  C9  UNL     1      21.617   1.906  52.505  1.00  0.00     0.055 A 
HETATM    9  C10 UNL     1      22.957   1.567  52.754  1.00  0.00     0.070 A 
HETATM   10  C11 UNL     1      23.092   0.511  53.628  1.00  0.00     0.050 A 
HETATM   11  N3  UNL     1      24.057   2.239  52.165  1.00  0.00    -0.383 N 
HETATM   12  C12 UNL     1      24.748   2.478  50.943  1.00  0.00     0.158 C 
HETATM   13  C13 UNL     1      24.110   3.250  49.893  1.00  0.00    -0.040 A 
HETATM   14  C14 UNL     1      24.354   4.602  49.745  1.00  0.00     0.009 A 
HETATM   15  C15 UNL     1      23.798   5.450  48.816  1.00  0.00     0.001 A 
HETATM   16  C16 UNL     1      22.875   4.933  47.900  1.00  0.00     0.011 A 
HETATM   17  C17 UNL     1      22.571   3.563  47.985  1.00  0.00    -0.036 A 
HETATM   18  C18 UNL     1      23.201   2.829  48.957  1.00  0.00     0.020 A 
HETATM   19  C19 UNL     1      21.568   2.838  47.197  1.00  0.00     0.009 C 
HETATM   20  C20 UNL     1      20.461   2.758  47.966  1.00  0.00    -0.004 C 
HETATM   21  C21 UNL     1      20.531   3.375  49.302  1.00  0.00     0.122 C 
HETATM   22 CL1  UNL     1      18.914   4.203  49.485  1.00  0.00    -0.119 Cl
HETATM   23  C22 UNL     1      20.667   2.323  50.354  1.00  0.00     0.144 C 
HETATM   24  N4  UNL     1      21.111   2.941  51.621  1.00  0.00    -0.386 N 
HETATM   25  H9  UNL     1      24.311   2.668  53.113  1.00  0.00     0.160 HD
HETATM   26  H21 UNL     1      21.319   3.627  52.355  1.00  0.00     0.159 HD
ENDROOT
BRANCH   1  27
HETATM   27  C3  UNL     1      25.605   0.670  53.465  1.00  0.00     0.028 C 
HETATM   28  C2  UNL     1      26.532  -0.033  52.842  1.00  0.00    -0.029 C 
HETATM   29  C1  UNL     1      26.428  -1.472  52.543  1.00  0.00     0.036 C 
ENDBRANCH   1  27
TORSDOF 1
ENDMDL
MODEL 3
REMARK VINA RESULT:      -8.7      3.967      6.861
REMARK  1 active torsions:
REMARK  status: ('A' for Active; 'I' for Inactive)
REMARK    1  A    between atoms: C3_3  and  C4_4 
ROOT
HETATM    1  C4  UNL     1      24.292   4.288  50.159  1.00  0.00     0.072 A 
HETATM    2  N1  UNL     1      23.069   3.823  50.406  1.00  0.00    -0.241 NA
HETATM    3  C5  UNL     1      21.985   4.511  50.751  1.00  0.00     0.234 A 
HETATM    4  N2  UNL     1      22.171   5.834  50.856  1.00  0.00    -0.241 NA
HETATM    5  C6  UNL     1      23.372   6.373  50.622  1.00  0.00     0.073 A 
HETATM    6  C7  UNL     1      23.565   7.726  50.744  1.00  0.00     0.035 A 
HETATM    7  C8  UNL     1      24.800   8.299  50.519  1.00  0.00     0.034 A 
HETATM    8  C9  UNL     1      25.863   7.500  50.164  1.00  0.00     0.055 A 
HETATM    9  C10 UNL     1      25.753   6.107  50.018  1.00  0.00     0.070 A 
HETATM   10  C11 UNL     1      24.482   5.638  50.266  1.00  0.00     0.050 A 
HETATM   11  N3  UNL     1      26.836   5.271  49.648  1.00  0.00    -0.383 N 
HETATM   12  C12 UNL     1      27.723   4.925  48.589  1.00  0.00     0.158 C 
HETATM   13  C13 UNL     1      28.711   5.885  48.132  1.00  0.00    -0.040 A 
HETATM   14  C14 UNL     1      30.011   5.854  48.596  1.00  0.00     0.009 A 
HETATM   15  C15 UNL     1      31.031   6.716  48.268  1.00  0.00     0.001 A 
HETATM   16  C16 UNL     1      30.770   7.757  47.370  1.00  0.00     0.011 A 
HETATM   17  C17 UNL     1      29.467   7.859  46.853  1.00  0.00    -0.036 A 
HETATM   18  C18 UNL     1      28.545   6.930  47.260  1.00  0.00     0.020 A 
HETATM   19  C19 UNL     1      28.950   8.922  45.983  1.00  0.00     0.009 C 
HETATM   20  C20 UNL     1      28.307   9.796  46.786  1.00  0.00    -0.004 C 
HETATM   21  C21 UNL     1      28.289   9.489  48.226  1.00  0.00     0.122 C 
HETATM   22 CL1  UNL     1      28.580  11.107  49.021  1.00  0.00    -0.119 Cl
HETATM   23  C22 UNL     1      26.945   8.977  48.632  1.00  0.00     0.144 C 
HETATM   24  N4  UNL     1      27.038   8.326  49.954  1.00  0.00    -0.386 N 
HETATM   25  H9  UNL     1      26.860   4.855  50.635  1.00  0.00     0.160 HD
HETATM   26  H21 UNL     1      27.369   8.038  50.882  1.00  0.00     0.159 HD
ENDROOT
BRANCH   1  27
HETATM   27  C3  UNL     1      25.243   3.275  49.811  1.00  0.00     0.028 C 
HETATM   28  C2  UNL     1      25.793   2.447  50.679  1.00  0.00    -0.029 C 
HETATM   29  C1  UNL     1      25.510   2.445  52.125  1.00  0.00     0.036 C 
ENDBRANCH   1  27
TORSDOF 1
ENDMDL
MODEL 4
REMARK VINA RESULT:      -8.6      2.839      4.945
REMARK  1 active torsions:
REMARK  status: ('A' for Active; 'I' for Inactive)
REMARK    1  A    between atoms: C3_3  and  C4_4 
ROOT
HETATM    1  C4  UNL     1      25.315   1.389  52.486  1.00  0.00     0.072 A 
HETATM    2  N1  UNL     1      26.587   1.672  52.764  1.00  0.00    -0.241 NA
HETATM    3  C5  UNL     1      27.415   2.468  52.094  1.00  0.00     0.234 A 
HETATM    4  N2  UNL     1      26.881   3.046  51.010  1.00  0.00    -0.241 NA
HETATM    5  C6  UNL     1      25.609   2.811  50.669  1.00  0.00     0.073 A 
HETATM    6  C7  UNL     1      25.068   3.392  49.551  1.00  0.00     0.035 A 
HETATM    7  C8  UNL     1      23.761   3.150  49.177  1.00  0.00     0.034 A 
HETATM    8  C9  UNL     1      22.983   2.310  49.938  1.00  0.00     0.055 A 
HETATM    9  C10 UNL     1      23.457   1.673  51.097  1.00  0.00     0.070 A 
HETATM   10  C11 UNL     1      24.770   1.979  51.381  1.00  0.00     0.050 A 
HETATM   11  N3  UNL     1      22.667   0.809  51.895  1.00  0.00    -0.383 N 
HETATM   12  C12 UNL     1      21.555   0.746  52.783  1.00  0.00     0.158 C 
HETATM   13  C13 UNL     1      20.218   1.002  52.283  1.00  0.00    -0.040 A 
HETATM   14  C14 UNL     1      19.377  -0.030  51.915  1.00  0.00     0.009 A 
HETATM   15  C15 UNL     1      18.105   0.075  51.403  1.00  0.00     0.001 A 
HETATM   16  C16 UNL     1      17.560   1.350  51.213  1.00  0.00     0.011 A 
HETATM   17  C17 UNL     1      18.354   2.456  51.562  1.00  0.00    -0.036 A 
HETATM   18  C18 UNL     1      19.604   2.210  52.067  1.00  0.00     0.020 A 
HETATM   19  C19 UNL     1      18.023   3.871  51.357  1.00  0.00     0.009 C 
HETATM   20  C20 UNL     1      18.644   4.248  50.218  1.00  0.00    -0.004 C 
HETATM   21  C21 UNL     1      19.434   3.221  49.518  1.00  0.00     0.122 C 
HETATM   22 CL1  UNL     1      19.041   3.493  47.756  1.00  0.00    -0.119 Cl
HETATM   23  C22 UNL     1      20.894   3.450  49.737  1.00  0.00     0.144 C 
HETATM   24  N4  UNL     1      21.650   2.236  49.366  1.00  0.00    -0.386 N 
HETATM   25  H9  UNL     1      23.246  -0.032  51.569  1.00  0.00     0.160 HD
HETATM   26  H21 UNL     1      21.907   1.329  48.961  1.00  0.00     0.159 HD
ENDROOT
BRANCH   1  27
HETATM   27  C3  UNL     1      24.701   0.487  53.414  1.00  0.00     0.028 C 
HETATM   28  C2  UNL     1      25.107  -0.752  53.621  1.00  0.00    -0.029 C 
HETATM   29  C1  UNL     1      26.247  -1.382  52.931  1.00  0.00     0.036 C 
ENDBRANCH   1  27
TORSDOF 1
ENDMDL
MODEL 5
REMARK VINA RESULT:      -8.4      2.726      7.103
REMARK  1 active torsions:
REMARK  status: ('A' for Active; 'I' for Inactive)
REMARK    1  A    between atoms: C3_3  and  C4_4 
ROOT
HETATM    1  C4  UNL     1      23.855   5.636  50.731  1.00  0.00     0.072 A 
HETATM    2  N1  UNL     1      23.372   6.869  50.590  1.00  0.00    -0.241 NA
HETATM    3  C5  UNL     1      22.116   7.279  50.737  1.00  0.00     0.234 A 
HETATM    4  N2  UNL     1      21.247   6.316  51.070  1.00  0.00    -0.241 NA
HETATM    5  C6  UNL     1      21.659   5.053  51.230  1.00  0.00     0.073 A 
HETATM    6  C7  UNL     1      20.766   4.064  51.557  1.00  0.00     0.035 A 
HETATM    7  C8  UNL     1      21.171   2.754  51.714  1.00  0.00     0.034 A 
HETATM    8  C9  UNL     1      22.496   2.429  51.541  1.00  0.00     0.055 A 
HETATM    9  C10 UNL     1      23.476   3.379  51.206  1.00  0.00     0.070 A 
HETATM   10  C11 UNL     1      22.968   4.652  51.071  1.00  0.00     0.050 A 
HETATM   11  N3  UNL     1      24.846   3.061  51.029  1.00  0.00    -0.383 N 
HETATM   12  C12 UNL     1      26.032   2.641  51.696  1.00  0.00     0.158 C 
HETATM   13  C13 UNL     1      26.113   1.303  52.251  1.00  0.00    -0.040 A 
HETATM   14  C14 UNL     1      26.705   0.269  51.553  1.00  0.00     0.009 A 
HETATM   15  C15 UNL     1      26.822  -1.042  51.950  1.00  0.00     0.001 A 
HETATM   16  C16 UNL     1      26.294  -1.419  53.190  1.00  0.00     0.011 A 
HETATM   17  C17 UNL     1      25.672  -0.424  53.962  1.00  0.00    -0.036 A 
HETATM   18  C18 UNL     1      25.628   0.847  53.450  1.00  0.00     0.020 A 
HETATM   19  C19 UNL     1      24.970  -0.614  55.237  1.00  0.00     0.009 C 
HETATM   20  C20 UNL     1      23.655  -0.694  54.942  1.00  0.00    -0.004 C 
HETATM   21  C21 UNL     1      23.282  -0.581  53.522  1.00  0.00     0.122 C 
HETATM   22 CL1  UNL     1      21.989  -1.852  53.307  1.00  0.00    -0.119 Cl
HETATM   23  C22 UNL     1      22.698   0.767  53.243  1.00  0.00     0.144 C 
HETATM   24  N4  UNL     1      22.681   1.010  51.786  1.00  0.00    -0.386 N 
HETATM   25  H9  UNL     1      24.757   3.237  49.976  1.00  0.00     0.160 HD
HETATM   26  H21 UNL     1      22.705   0.868  50.770  1.00  0.00     0.159 HD
ENDROOT
BRANCH   1  27
HETATM   27  C3  UNL     1      25.264   5.530  50.500  1.00  0.00     0.028 C 
HETATM   28  C2  UNL     1      25.859   5.895  49.380  1.00  0.00    -0.029 C 
HETATM   29  C1  UNL     1      25.163   6.463  48.212  1.00  0.00     0.036 C 
ENDBRANCH   1  27
TORSDOF 1
ENDMDL
MODEL 6
REMARK VINA RESULT:      -8.3      1.753      2.093
REMARK  1 active torsions:
REMARK  status: ('A' for Active; 'I' for Inactive)
REMARK    1  A    between atoms: C3_3  and  C4_4 
ROOT
HETATM    1  C4  UNL     1      24.179   0.120  52.968  1.00  0.00     0.072 A 
HETATM    2  N1  UNL     1      24.934  -0.650  53.750  1.00  0.00    -0.241 NA
HETATM    3  C5  UNL     1      26.255  -0.626  53.894  1.00  0.00     0.234 A 
HETATM    4  N2  UNL     1      26.883   0.297  53.153  1.00  0.00    -0.241 NA
HETATM    5  C6  UNL     1      26.191   1.107  52.345  1.00  0.00     0.073 A 
HETATM    6  C7  UNL     1      26.836   2.042  51.575  1.00  0.00     0.035 A 
HETATM    7  C8  UNL     1      26.139   2.878  50.726  1.00  0.00     0.034 A 
HETATM    8  C9  UNL     1      24.769   2.775  50.648  1.00  0.00     0.055 A 
HETATM    9  C10 UNL     1      24.030   1.847  51.400  1.00  0.00     0.070 A 
HETATM   10  C11 UNL     1      24.819   1.062  52.212  1.00  0.00     0.050 A 
HETATM   11  N3  UNL     1      22.620   1.732  51.335  1.00  0.00    -0.383 N 
HETATM   12  C12 UNL     1      21.390   2.379  51.644  1.00  0.00     0.158 C 
HETATM   13  C13 UNL     1      21.014   3.590  50.939  1.00  0.00    -0.040 A 
HETATM   14  C14 UNL     1      20.173   3.554  49.845  1.00  0.00     0.009 A 
HETATM   15  C15 UNL     1      19.764   4.618  49.075  1.00  0.00     0.001 A 
HETATM   16  C16 UNL     1      20.227   5.899  49.396  1.00  0.00     0.011 A 
HETATM   17  C17 UNL     1      21.090   6.021  50.498  1.00  0.00    -0.036 A 
HETATM   18  C18 UNL     1      21.416   4.879  51.183  1.00  0.00     0.020 A 
HETATM   19  C19 UNL     1      21.768   7.242  50.949  1.00  0.00     0.009 C 
HETATM   20  C20 UNL     1      23.018   7.197  50.439  1.00  0.00    -0.004 C 
HETATM   21  C21 UNL     1      23.361   6.024  49.617  1.00  0.00     0.122 C 
HETATM   22 CL1  UNL     1      24.311   6.728  48.226  1.00  0.00    -0.119 Cl
HETATM   23  C22 UNL     1      24.236   5.088  50.386  1.00  0.00     0.144 C 
HETATM   24  N4  UNL     1      24.263   3.770  49.719  1.00  0.00    -0.386 N 
HETATM   25  H9  UNL     1      22.713   0.788  50.836  1.00  0.00     0.160 HD
HETATM   26  H21 UNL     1      24.174   3.026  49.018  1.00  0.00     0.159 HD
ENDROOT
BRANCH   1  27
HETATM   27  C3  UNL     1      22.778  -0.166  53.044  1.00  0.00     0.028 C 
HETATM   28  C2  UNL     1      22.197  -0.756  54.072  1.00  0.00    -0.029 C 
HETATM   29  C1  UNL     1      22.904  -1.203  55.286  1.00  0.00     0.036 C 
ENDBRANCH   1  27
TORSDOF 1
ENDMDL
MODEL 7
REMARK VINA RESULT:      -8.0      5.647      8.942
REMARK  1 active torsions:
REMARK  status: ('A' for Active; 'I' for Inactive)
REMARK    1  A    between atoms: C3_3  and  C4_4 
ROOT
HETATM    1  C4  UNL     1      25.827   5.831  48.881  1.00  0.00     0.072 A 
HETATM    2  N1  UNL     1      24.550   5.459  48.813  1.00  0.00    -0.241 NA
HETATM    3  C5  UNL     1      23.466   6.220  48.936  1.00  0.00     0.234 A 
HETATM    4  N2  UNL     1      23.716   7.518  49.152  1.00  0.00    -0.241 NA
HETATM    5  C6  UNL     1      24.973   7.967  49.231  1.00  0.00     0.073 A 
HETATM    6  C7  UNL     1      25.228   9.294  49.467  1.00  0.00     0.035 A 
HETATM    7  C8  UNL     1      26.519   9.772  49.564  1.00  0.00     0.034 A 
HETATM    8  C9  UNL     1      27.576   8.902  49.421  1.00  0.00     0.055 A 
HETATM    9  C10 UNL     1      27.405   7.529  49.178  1.00  0.00     0.070 A 
HETATM   10  C11 UNL     1      26.082   7.156  49.101  1.00  0.00     0.050 A 
HETATM   11  N3  UNL     1      28.483   6.622  49.024  1.00  0.00    -0.383 N 
HETATM   12  C12 UNL     1      29.565   6.243  48.180  1.00  0.00     0.158 C 
HETATM   13  C13 UNL     1      30.698   7.135  48.015  1.00  0.00    -0.040 A 
HETATM   14  C14 UNL     1      31.849   6.981  48.764  1.00  0.00     0.009 A 
HETATM   15  C15 UNL     1      32.976   7.769  48.727  1.00  0.00     0.001 A 
HETATM   16  C16 UNL     1      33.006   8.859  47.850  1.00  0.00     0.011 A 
HETATM   17  C17 UNL     1      31.871   9.085  47.053  1.00  0.00    -0.036 A 
HETATM   18  C18 UNL     1      30.816   8.220  47.186  1.00  0.00     0.020 A 
HETATM   19  C19 UNL     1      31.649  10.217  46.146  1.00  0.00     0.009 C 
HETATM   20  C20 UNL     1      30.899  11.111  46.825  1.00  0.00    -0.004 C 
HETATM   21  C21 UNL     1      30.523  10.756  48.204  1.00  0.00     0.122 C 
HETATM   22 CL1  UNL     1      30.734  12.315  49.130  1.00  0.00    -0.119 Cl
HETATM   23  C22 UNL     1      29.088  10.341  48.260  1.00  0.00     0.144 C 
HETATM   24  N4  UNL     1      28.824   9.637  49.532  1.00  0.00    -0.386 N 
HETATM   25  H9  UNL     1      28.246   6.170  49.965  1.00  0.00     0.160 HD
HETATM   26  H21 UNL     1      28.907   9.290  50.494  1.00  0.00     0.159 HD
ENDROOT
BRANCH   1  27
HETATM   27  C3  UNL     1      26.758   4.758  48.707  1.00  0.00     0.028 C 
HETATM   28  C2  UNL     1      26.805   3.686  49.476  1.00  0.00    -0.029 C 
HETATM   29  C1  UNL     1      25.908   3.441  50.620  1.00  0.00     0.036 C 
ENDBRANCH   1  27
TORSDOF 1
ENDMDL
MODEL 8
REMARK VINA RESULT:      -8.0      5.690      8.715
REMARK  1 active torsions:
REMARK  status: ('A' for Active; 'I' for Inactive)
REMARK    1  A    between atoms: C3_3  and  C4_4 
ROOT
HETATM    1  C4  UNL     1      25.765   6.240  48.825  1.00  0.00     0.072 A 
HETATM    2  N1  UNL     1      25.432   5.042  49.302  1.00  0.00    -0.241 NA
HETATM    3  C5  UNL     1      26.210   3.974  49.452  1.00  0.00     0.234 A 
HETATM    4  N2  UNL     1      27.482   4.149  49.070  1.00  0.00    -0.241 NA
HETATM    5  C6  UNL     1      27.891   5.325  48.583  1.00  0.00     0.073 A 
HETATM    6  C7  UNL     1      29.190   5.499  48.178  1.00  0.00     0.035 A 
HETATM    7  C8  UNL     1      29.626   6.703  47.661  1.00  0.00     0.034 A 
HETATM    8  C9  UNL     1      28.742   7.751  47.547  1.00  0.00     0.055 A 
HETATM    9  C10 UNL     1      27.396   7.659  47.936  1.00  0.00     0.070 A 
HETATM   10  C11 UNL     1      27.063   6.419  48.436  1.00  0.00     0.050 A 
HETATM   11  N3  UNL     1      26.475   8.730  47.829  1.00  0.00    -0.383 N 
HETATM   12  C12 UNL     1      26.132  10.016  48.335  1.00  0.00     0.158 C 
HETATM   13  C13 UNL     1      27.003  11.148  48.081  1.00  0.00    -0.040 A 
HETATM   14  C14 UNL     1      26.766  12.019  47.036  1.00  0.00     0.009 A 
HETATM   15  C15 UNL     1      27.525  13.106  46.671  1.00  0.00     0.001 A 
HETATM   16  C16 UNL     1      28.676  13.402  47.410  1.00  0.00     0.011 A 
HETATM   17  C17 UNL     1      28.989  12.561  48.491  1.00  0.00    -0.036 A 
HETATM   18  C18 UNL     1      28.144  11.513  48.750  1.00  0.00     0.020 A 
HETATM   19  C19 UNL     1      30.190  12.625  49.332  1.00  0.00     0.009 C 
HETATM   20  C20 UNL     1      31.051  11.708  48.842  1.00  0.00    -0.004 C 
HETATM   21  C21 UNL     1      30.604  10.932  47.673  1.00  0.00     0.122 C 
HETATM   22 CL1  UNL     1      32.085  10.858  46.607  1.00  0.00    -0.119 Cl
HETATM   23  C22 UNL     1      30.223   9.546  48.083  1.00  0.00     0.144 C 
HETATM   24  N4  UNL     1      29.435   8.909  47.008  1.00  0.00    -0.386 N 
HETATM   25  H9  UNL     1      25.961   8.219  47.041  1.00  0.00     0.160 HD
HETATM   26  H21 UNL     1      29.015   8.697  46.096  1.00  0.00     0.159 HD
ENDROOT
BRANCH   1  27
HETATM   27  C3  UNL     1      24.684   7.178  48.794  1.00  0.00     0.028 C 
HETATM   28  C2  UNL     1      23.968   7.517  49.849  1.00  0.00    -0.029 C 
HETATM   29  C1  UNL     1      24.178   6.983  51.207  1.00  0.00     0.036 C 
ENDBRANCH   1  27
TORSDOF 1
ENDMDL
MODEL 9
REMARK VINA RESULT:      -7.9      3.845      6.056
REMARK  1 active torsions:
REMARK  status: ('A' for Active; 'I' for Inactive)
REMARK    1  A    between atoms: C3_3  and  C4_4 
ROOT
HETATM    1  C4  UNL     1      24.270   2.665  52.116  1.00  0.00     0.072 A 
HETATM    2  N1  UNL     1      25.589   2.478  52.113  1.00  0.00    -0.241 NA
HETATM    3  C5  UNL     1      26.265   1.403  52.506  1.00  0.00     0.234 A 
HETATM    4  N2  UNL     1      25.505   0.396  52.955  1.00  0.00    -0.241 NA
HETATM    5  C6  UNL     1      24.173   0.510  52.987  1.00  0.00     0.073 A 
HETATM    6  C7  UNL     1      23.396  -0.517  53.460  1.00  0.00     0.035 A 
HETATM    7  C8  UNL     1      22.020  -0.412  53.512  1.00  0.00     0.034 A 
HETATM    8  C9  UNL     1      21.413   0.744  53.080  1.00  0.00     0.055 A 
HETATM    9  C10 UNL     1      22.132   1.843  52.581  1.00  0.00     0.070 A 
HETATM   10  C11 UNL     1      23.494   1.637  52.574  1.00  0.00     0.050 A 
HETATM   11  N3  UNL     1      21.521   3.038  52.127  1.00  0.00    -0.383 N 
HETATM   12  C12 UNL     1      20.700   3.606  51.111  1.00  0.00     0.158 C 
HETATM   13  C13 UNL     1      19.305   3.220  51.010  1.00  0.00    -0.040 A 
HETATM   14  C14 UNL     1      18.305   3.982  51.582  1.00  0.00     0.009 A 
HETATM   15  C15 UNL     1      16.956   3.716  51.585  1.00  0.00     0.001 A 
HETATM   16  C16 UNL     1      16.498   2.554  50.952  1.00  0.00     0.011 A 
HETATM   17  C17 UNL     1      17.455   1.722  50.347  1.00  0.00    -0.036 A 
HETATM   18  C18 UNL     1      18.769   2.108  50.413  1.00  0.00     0.020 A 
HETATM   19  C19 UNL     1      17.211   0.418  49.720  1.00  0.00     0.009 C 
HETATM   20  C20 UNL     1      17.520  -0.516  50.645  1.00  0.00    -0.004 C 
HETATM   21  C21 UNL     1      17.986  -0.028  51.954  1.00  0.00     0.122 C 
HETATM   22 CL1  UNL     1      17.143  -1.118  53.152  1.00  0.00    -0.119 Cl
HETATM   23  C22 UNL     1      19.464  -0.209  52.081  1.00  0.00     0.144 C 
HETATM   24  N4  UNL     1      19.972   0.607  53.202  1.00  0.00    -0.386 N 
HETATM   25  H9  UNL     1      21.906   3.565  52.977  1.00  0.00     0.160 HD
HETATM   26  H21 UNL     1      20.022   1.172  54.058  1.00  0.00     0.159 HD
ENDROOT
BRANCH   1  27
HETATM   27  C3  UNL     1      23.860   3.946  51.625  1.00  0.00     0.028 C 
HETATM   28  C2  UNL     1      24.087   4.377  50.399  1.00  0.00    -0.029 C 
HETATM   29  C1  UNL     1      24.793   3.604  49.360  1.00  0.00     0.036 C 
ENDBRANCH   1  27
TORSDOF 1
ENDMDL
