MODEL 1
REMARK VINA RESULT:      -8.0      0.000      0.000
REMARK  3 active torsions:
REMARK  status: ('A' for Active; 'I' for Inactive)
REMARK    1  A    between atoms: N1_6  and  C6_7 
REMARK    2  A    between atoms: C10_12  and  C11_13 
REMARK    3  A    between atoms: C16_20  and  N3_21 
ROOT
HETATM    1  C1  UNL     1      21.840   3.705  46.124  1.00  0.00     0.018 C 
HETATM    2  C2  UNL     1      22.262   3.379  47.199  1.00  0.00    -0.078 C 
HETATM    3  C3  UNL     1      22.768   2.996  48.487  1.00  0.00     0.021 A 
HETATM    4  C4  UNL     1      22.303   1.940  49.225  1.00  0.00     0.038 A 
HETATM    5  C5  UNL     1      22.889   1.690  50.453  1.00  0.00     0.095 A 
HETATM    6  N1  UNL     1      23.898   2.422  50.983  1.00  0.00    -0.331 N 
HETATM    7  C16 UNL     1      24.340   3.457  50.237  1.00  0.00     0.124 A 
HETATM    8  C17 UNL     1      23.795   3.745  49.020  1.00  0.00     0.070 A 
ENDROOT
BRANCH   7   9
HETATM    9  N3  UNL     1      25.309   4.121  50.799  1.00  0.00    -0.284 NA
HETATM   10  H16 UNL     1      25.155   4.703  51.636  1.00  0.00     0.188 HD
ENDBRANCH   7   9
BRANCH   6  11
HETATM   11  C6  UNL     1      24.414   2.033  52.294  1.00  0.00     0.145 A 
HETATM   12  C7  UNL     1      23.168   1.628  53.042  1.00  0.00     0.115 A 
HETATM   13  N2  UNL     1      22.752   0.541  53.597  1.00  0.00    -0.275 NA
HETATM   14  C8  UNL     1      23.631  -0.575  53.520  1.00  0.00     0.112 A 
HETATM   15  C9  UNL     1      24.743  -0.299  52.884  1.00  0.00     0.006 A 
HETATM   16  C10 UNL     1      25.340   0.901  52.207  1.00  0.00     0.094 A 
BRANCH  16  17
HETATM   17  C11 UNL     1      26.676   1.043  52.785  1.00  0.00     0.054 C 
HETATM   18  C12 UNL     1      27.399   2.070  53.176  1.00  0.00     0.032 C 
HETATM   19  C13 UNL     1      28.714   2.349  53.756  1.00  0.00     0.197 C 
HETATM   20  O1  UNL     1      29.471   1.229  54.015  1.00  0.00    -0.385 OA
HETATM   21  C14 UNL     1      28.794   0.179  54.571  1.00  0.00     0.194 C 
HETATM   22  C15 UNL     1      28.410  -0.763  53.423  1.00  0.00     0.201 C 
HETATM   23  O2  UNL     1      27.169  -0.281  52.882  1.00  0.00    -0.353 OA
ENDBRANCH  16  17
ENDBRANCH   6  11
TORSDOF 3
ENDMDL
MODEL 2
REMARK VINA RESULT:      -7.8      2.909      6.808
REMARK  3 active torsions:
REMARK  status: ('A' for Active; 'I' for Inactive)
REMARK    1  A    between atoms: N1_6  and  C6_7 
REMARK    2  A    between atoms: C10_12  and  C11_13 
REMARK    3  A    between atoms: C16_20  and  N3_21 
ROOT
HETATM    1  C1  UNL     1      29.851  -1.273  53.591  1.00  0.00     0.018 C 
HETATM    2  C2  UNL     1      28.806  -0.701  53.445  1.00  0.00    -0.078 C 
HETATM    3  C3  UNL     1      27.555  -0.018  53.277  1.00  0.00     0.021 A 
HETATM    4  C4  UNL     1      27.396   1.168  52.613  1.00  0.00     0.038 A 
HETATM    5  C5  UNL     1      26.125   1.710  52.531  1.00  0.00     0.095 A 
HETATM    6  N1  UNL     1      25.017   1.144  53.067  1.00  0.00    -0.331 N 
HETATM    7  C16 UNL     1      25.197  -0.025  53.717  1.00  0.00     0.124 A 
HETATM    8  C17 UNL     1      26.430  -0.599  53.825  1.00  0.00     0.070 A 
ENDROOT
BRANCH   7   9
HETATM    9  N3  UNL     1      24.097  -0.518  54.208  1.00  0.00    -0.284 NA
HETATM   10  H16 UNL     1      24.027  -1.504  54.502  1.00  0.00     0.188 HD
ENDBRANCH   7   9
BRANCH   6  11
HETATM   11  C6  UNL     1      23.741   1.838  52.897  1.00  0.00     0.145 A 
HETATM   12  C7  UNL     1      24.164   3.252  52.584  1.00  0.00     0.115 A 
HETATM   13  N2  UNL     1      23.999   4.053  51.587  1.00  0.00    -0.275 NA
HETATM   14  C8  UNL     1      23.249   3.540  50.492  1.00  0.00     0.112 A 
HETATM   15  C9  UNL     1      22.842   2.310  50.692  1.00  0.00     0.006 A 
HETATM   16  C10 UNL     1      22.961   1.289  51.785  1.00  0.00     0.094 A 
BRANCH  16  17
HETATM   17  C11 UNL     1      21.592   0.843  52.045  1.00  0.00     0.054 C 
HETATM   18  C12 UNL     1      20.552   0.591  51.279  1.00  0.00     0.032 C 
HETATM   19  C13 UNL     1      19.161   0.150  51.402  1.00  0.00     0.197 C 
HETATM   20  O1  UNL     1      18.761  -0.121  52.691  1.00  0.00    -0.385 OA
HETATM   21  C14 UNL     1      19.665  -0.808  53.453  1.00  0.00     0.194 C 
HETATM   22  C15 UNL     1      20.438   0.232  54.274  1.00  0.00     0.201 C 
HETATM   23  O2  UNL     1      21.521   0.694  53.451  1.00  0.00    -0.353 OA
ENDBRANCH  16  17
ENDBRANCH   6  11
TORSDOF 3
ENDMDL
MODEL 3
REMARK VINA RESULT:      -7.8      0.934      1.330
REMARK  3 active torsions:
REMARK  status: ('A' for Active; 'I' for Inactive)
REMARK    1  A    between atoms: N1_6  and  C6_7 
REMARK    2  A    between atoms: C10_12  and  C11_13 
REMARK    3  A    between atoms: C16_20  and  N3_21 
ROOT
HETATM    1  C1  UNL     1      22.032   3.830  46.395  1.00  0.00     0.018 C 
HETATM    2  C2  UNL     1      22.328   3.441  47.490  1.00  0.00    -0.078 C 
HETATM    3  C3  UNL     1      22.681   2.983  48.804  1.00  0.00     0.021 A 
HETATM    4  C4  UNL     1      22.156   1.874  49.411  1.00  0.00     0.038 A 
HETATM    5  C5  UNL     1      22.593   1.553  50.684  1.00  0.00     0.095 A 
HETATM    6  N1  UNL     1      23.511   2.266  51.380  1.00  0.00    -0.331 N 
HETATM    7  C16 UNL     1      24.015   3.355  50.762  1.00  0.00     0.124 A 
HETATM    8  C17 UNL     1      23.616   3.713  49.507  1.00  0.00     0.070 A 
ENDROOT
BRANCH   7   9
HETATM    9  N3  UNL     1      24.891   3.997  51.480  1.00  0.00    -0.284 NA
HETATM   10  H16 UNL     1      24.639   4.839  52.019  1.00  0.00     0.188 HD
ENDBRANCH   7   9
BRANCH   6  11
HETATM   11  C6  UNL     1      23.872   1.801  52.718  1.00  0.00     0.145 A 
HETATM   12  C7  UNL     1      22.542   1.400  53.307  1.00  0.00     0.115 A 
HETATM   13  N2  UNL     1      22.040   0.302  53.760  1.00  0.00    -0.275 NA
HETATM   14  C8  UNL     1      22.894  -0.836  53.722  1.00  0.00     0.112 A 
HETATM   15  C9  UNL     1      24.074  -0.565  53.223  1.00  0.00     0.006 A 
HETATM   16  C10 UNL     1      24.771   0.645  52.674  1.00  0.00     0.094 A 
BRANCH  16  17
HETATM   17  C11 UNL     1      26.041   0.718  53.397  1.00  0.00     0.054 C 
HETATM   18  C12 UNL     1      26.572   0.029  54.383  1.00  0.00     0.032 C 
HETATM   19  C13 UNL     1      27.799  -0.006  55.183  1.00  0.00     0.197 C 
HETATM   20  O1  UNL     1      28.736   0.938  54.829  1.00  0.00    -0.385 OA
HETATM   21  C14 UNL     1      28.915   1.112  53.484  1.00  0.00     0.194 C 
HETATM   22  C15 UNL     1      28.050   2.309  53.070  1.00  0.00     0.201 C 
HETATM   23  O2  UNL     1      26.732   1.802  52.804  1.00  0.00    -0.353 OA
ENDBRANCH  16  17
ENDBRANCH   6  11
TORSDOF 3
ENDMDL
MODEL 4
REMARK VINA RESULT:      -7.7      2.947      5.212
REMARK  3 active torsions:
REMARK  status: ('A' for Active; 'I' for Inactive)
REMARK    1  A    between atoms: N1_6  and  C6_7 
REMARK    2  A    between atoms: C10_12  and  C11_13 
REMARK    3  A    between atoms: C16_20  and  N3_21 
ROOT
HETATM    1  C1  UNL     1      18.892  -1.248  53.456  1.00  0.00     0.018 C 
HETATM    2  C2  UNL     1      19.932  -0.661  53.349  1.00  0.00    -0.078 C 
HETATM    3  C3  UNL     1      21.175   0.047  53.224  1.00  0.00     0.021 A 
HETATM    4  C4  UNL     1      22.409  -0.495  53.463  1.00  0.00     0.038 A 
HETATM    5  C5  UNL     1      23.522   0.311  53.301  1.00  0.00     0.095 A 
HETATM    6  N1  UNL     1      23.477   1.610  52.920  1.00  0.00    -0.331 N 
HETATM    7  C16 UNL     1      22.250   2.123  52.690  1.00  0.00     0.124 A 
HETATM    8  C17 UNL     1      21.122   1.369  52.835  1.00  0.00     0.070 A 
ENDROOT
BRANCH   7   9
HETATM    9  N3  UNL     1      22.272   3.373  52.327  1.00  0.00    -0.284 NA
HETATM   10  H16 UNL     1      22.205   3.652  51.336  1.00  0.00     0.188 HD
ENDBRANCH   7   9
BRANCH   6  11
HETATM   11  C6  UNL     1      24.742   2.333  52.792  1.00  0.00     0.145 A 
HETATM   12  C7  UNL     1      25.585   1.737  53.892  1.00  0.00     0.115 A 
HETATM   13  N2  UNL     1      26.700   1.090  53.936  1.00  0.00    -0.275 NA
HETATM   14  C8  UNL     1      27.332   0.850  52.684  1.00  0.00     0.112 A 
HETATM   15  C9  UNL     1      26.657   1.344  51.675  1.00  0.00     0.006 A 
HETATM   16  C10 UNL     1      25.376   2.104  51.491  1.00  0.00     0.094 A 
BRANCH  16  17
HETATM   17  C11 UNL     1      25.732   3.263  50.673  1.00  0.00     0.054 C 
HETATM   18  C12 UNL     1      26.703   3.519  49.824  1.00  0.00     0.032 C 
HETATM   19  C13 UNL     1      27.168   4.606  48.958  1.00  0.00     0.197 C 
HETATM   20  O1  UNL     1      26.373   5.729  48.979  1.00  0.00    -0.385 OA
HETATM   21  C14 UNL     1      25.025   5.496  48.958  1.00  0.00     0.194 C 
HETATM   22  C15 UNL     1      24.541   5.542  50.413  1.00  0.00     0.201 C 
HETATM   23  O2  UNL     1      24.736   4.228  50.961  1.00  0.00    -0.353 OA
ENDBRANCH  16  17
ENDBRANCH   6  11
TORSDOF 3
ENDMDL
MODEL 5
REMARK VINA RESULT:      -7.4      3.336      6.398
REMARK  3 active torsions:
REMARK  status: ('A' for Active; 'I' for Inactive)
REMARK    1  A    between atoms: N1_6  and  C6_7 
REMARK    2  A    between atoms: C10_12  and  C11_13 
REMARK    3  A    between atoms: C16_20  and  N3_21 
ROOT
HETATM    1  C1  UNL     1      29.021  -0.264  54.354  1.00  0.00     0.018 C 
HETATM    2  C2  UNL     1      28.094   0.243  53.786  1.00  0.00    -0.078 C 
HETATM    3  C3  UNL     1      26.989   0.850  53.101  1.00  0.00     0.021 A 
HETATM    4  C4  UNL     1      25.684   0.453  53.219  1.00  0.00     0.038 A 
HETATM    5  C5  UNL     1      24.722   1.135  52.494  1.00  0.00     0.095 A 
HETATM    6  N1  UNL     1      24.982   2.177  51.668  1.00  0.00    -0.331 N 
HETATM    7  C16 UNL     1      26.275   2.551  51.568  1.00  0.00     0.124 A 
HETATM    8  C17 UNL     1      27.260   1.911  52.261  1.00  0.00     0.070 A 
ENDROOT
BRANCH   7   9
HETATM    9  N3  UNL     1      26.460   3.556  50.761  1.00  0.00    -0.284 NA
HETATM   10  H16 UNL     1      27.056   4.358  51.020  1.00  0.00     0.188 HD
ENDBRANCH   7   9
BRANCH   6  11
HETATM   11  C6  UNL     1      23.857   2.796  50.969  1.00  0.00     0.145 A 
HETATM   12  C7  UNL     1      22.946   1.627  50.691  1.00  0.00     0.115 A 
HETATM   13  N2  UNL     1      21.738   1.315  51.018  1.00  0.00    -0.275 NA
HETATM   14  C8  UNL     1      21.050   2.256  51.833  1.00  0.00     0.112 A 
HETATM   15  C9  UNL     1      21.780   3.307  52.117  1.00  0.00     0.006 A 
HETATM   16  C10 UNL     1      23.168   3.784  51.803  1.00  0.00     0.094 A 
BRANCH  16  17
HETATM   17  C11 UNL     1      23.000   5.142  51.286  1.00  0.00     0.054 C 
HETATM   18  C12 UNL     1      21.982   5.971  51.209  1.00  0.00     0.032 C 
HETATM   19  C13 UNL     1      21.681   7.322  50.729  1.00  0.00     0.197 C 
HETATM   20  O1  UNL     1      22.761   7.993  50.203  1.00  0.00    -0.385 OA
HETATM   21  C14 UNL     1      23.929   7.864  50.902  1.00  0.00     0.194 C 
HETATM   22  C15 UNL     1      24.731   6.743  50.229  1.00  0.00     0.201 C 
HETATM   23  O2  UNL     1      24.280   5.504  50.802  1.00  0.00    -0.353 OA
ENDBRANCH  16  17
ENDBRANCH   6  11
TORSDOF 3
ENDMDL
MODEL 6
REMARK VINA RESULT:      -7.3      2.171      3.055
REMARK  3 active torsions:
REMARK  status: ('A' for Active; 'I' for Inactive)
REMARK    1  A    between atoms: N1_6  and  C6_7 
REMARK    2  A    between atoms: C10_12  and  C11_13 
REMARK    3  A    between atoms: C16_20  and  N3_21 
ROOT
HETATM    1  C1  UNL     1      24.493   7.421  47.367  1.00  0.00     0.018 C 
HETATM    2  C2  UNL     1      24.207   6.601  48.195  1.00  0.00    -0.078 C 
HETATM    3  C3  UNL     1      23.862   5.626  49.189  1.00  0.00     0.021 A 
HETATM    4  C4  UNL     1      23.414   4.360  48.918  1.00  0.00     0.038 A 
HETATM    5  C5  UNL     1      23.119   3.527  49.983  1.00  0.00     0.095 A 
HETATM    6  N1  UNL     1      23.241   3.877  51.286  1.00  0.00    -0.331 N 
HETATM    7  C16 UNL     1      23.684   5.129  51.529  1.00  0.00     0.124 A 
HETATM    8  C17 UNL     1      23.989   5.988  50.514  1.00  0.00     0.070 A 
ENDROOT
BRANCH   7   9
HETATM    9  N3  UNL     1      23.781   5.405  52.797  1.00  0.00    -0.284 NA
HETATM   10  H16 UNL     1      24.595   5.908  53.183  1.00  0.00     0.188 HD
ENDBRANCH   7   9
BRANCH   6  11
HETATM   11  C6  UNL     1      22.890   2.885  52.300  1.00  0.00     0.145 A 
HETATM   12  C7  UNL     1      21.385   2.830  52.213  1.00  0.00     0.115 A 
HETATM   13  N2  UNL     1      20.521   1.912  51.939  1.00  0.00    -0.275 NA
HETATM   14  C8  UNL     1      21.051   0.626  51.640  1.00  0.00     0.112 A 
HETATM   15  C9  UNL     1      22.359   0.593  51.698  1.00  0.00     0.006 A 
HETATM   16  C10 UNL     1      23.460   1.568  52.001  1.00  0.00     0.094 A 
BRANCH  16  17
HETATM   17  C11 UNL     1      24.283   0.914  53.019  1.00  0.00     0.054 C 
HETATM   18  C12 UNL     1      24.156  -0.186  53.728  1.00  0.00     0.032 C 
HETATM   19  C13 UNL     1      24.882  -0.940  54.753  1.00  0.00     0.197 C 
HETATM   20  O1  UNL     1      26.090  -0.388  55.116  1.00  0.00    -0.385 OA
HETATM   21  C14 UNL     1      26.852   0.087  54.085  1.00  0.00     0.194 C 
HETATM   22  C15 UNL     1      26.580   1.593  53.985  1.00  0.00     0.201 C 
HETATM   23  O2  UNL     1      25.412   1.755  53.164  1.00  0.00    -0.353 OA
ENDBRANCH  16  17
ENDBRANCH   6  11
TORSDOF 3
ENDMDL
MODEL 7
REMARK VINA RESULT:      -7.1      6.971      9.472
REMARK  3 active torsions:
REMARK  status: ('A' for Active; 'I' for Inactive)
REMARK    1  A    between atoms: N1_6  and  C6_7 
REMARK    2  A    between atoms: C10_12  and  C11_13 
REMARK    3  A    between atoms: C16_20  and  N3_21 
ROOT
HETATM    1  C1  UNL     1      35.172   3.528  45.891  1.00  0.00     0.018 C 
HETATM    2  C2  UNL     1      34.245   4.174  46.294  1.00  0.00    -0.078 C 
HETATM    3  C3  UNL     1      33.140   4.950  46.783  1.00  0.00     0.021 A 
HETATM    4  C4  UNL     1      32.391   5.806  46.022  1.00  0.00     0.038 A 
HETATM    5  C5  UNL     1      31.353   6.489  46.632  1.00  0.00     0.095 A 
HETATM    6  N1  UNL     1      31.023   6.369  47.941  1.00  0.00    -0.331 N 
HETATM    7  C16 UNL     1      31.776   5.519  48.671  1.00  0.00     0.124 A 
HETATM    8  C17 UNL     1      32.809   4.823  48.116  1.00  0.00     0.070 A 
ENDROOT
BRANCH   7   9
HETATM    9  N3  UNL     1      31.410   5.448  49.918  1.00  0.00    -0.284 NA
HETATM   10  H16 UNL     1      30.533   4.984  50.202  1.00  0.00     0.188 HD
ENDBRANCH   7   9
BRANCH   6  11
HETATM   11  C6  UNL     1      29.898   7.158  48.440  1.00  0.00     0.145 A 
HETATM   12  C7  UNL     1      30.283   8.569  48.071  1.00  0.00     0.115 A 
HETATM   13  N2  UNL     1      29.767   9.490  47.330  1.00  0.00    -0.275 NA
HETATM   14  C8  UNL     1      28.546   9.156  46.680  1.00  0.00     0.112 A 
HETATM   15  C9  UNL     1      28.143   7.941  46.956  1.00  0.00     0.006 A 
HETATM   16  C10 UNL     1      28.638   6.793  47.788  1.00  0.00     0.094 A 
BRANCH  16  17
HETATM   17  C11 UNL     1      27.502   6.407  48.625  1.00  0.00     0.054 C 
HETATM   18  C12 UNL     1      26.535   7.074  49.217  1.00  0.00     0.032 C 
HETATM   19  C13 UNL     1      25.365   6.822  50.061  1.00  0.00     0.197 C 
HETATM   20  O1  UNL     1      25.142   5.494  50.343  1.00  0.00    -0.385 OA
HETATM   21  C14 UNL     1      25.303   4.635  49.291  1.00  0.00     0.194 C 
HETATM   22  C15 UNL     1      26.724   4.067  49.392  1.00  0.00     0.201 C 
HETATM   23  O2  UNL     1      27.596   4.999  48.733  1.00  0.00    -0.353 OA
ENDBRANCH  16  17
ENDBRANCH   6  11
TORSDOF 3
ENDMDL
MODEL 8
REMARK VINA RESULT:      -6.9      4.094      6.599
REMARK  3 active torsions:
REMARK  status: ('A' for Active; 'I' for Inactive)
REMARK    1  A    between atoms: N1_6  and  C6_7 
REMARK    2  A    between atoms: C10_12  and  C11_13 
REMARK    3  A    between atoms: C16_20  and  N3_21 
ROOT
HETATM    1  C1  UNL     1      25.127   5.979  50.262  1.00  0.00     0.018 C 
HETATM    2  C2  UNL     1      24.593   4.974  50.642  1.00  0.00    -0.078 C 
HETATM    3  C3  UNL     1      23.956   3.768  51.091  1.00  0.00     0.021 A 
HETATM    4  C4  UNL     1      24.069   3.250  52.353  1.00  0.00     0.038 A 
HETATM    5  C5  UNL     1      23.396   2.076  52.643  1.00  0.00     0.095 A 
HETATM    6  N1  UNL     1      22.627   1.396  51.758  1.00  0.00    -0.331 N 
HETATM    7  C16 UNL     1      22.530   1.926  50.520  1.00  0.00     0.124 A 
HETATM    8  C17 UNL     1      23.175   3.081  50.186  1.00  0.00     0.070 A 
ENDROOT
BRANCH   7   9
HETATM    9  N3  UNL     1      21.779   1.229  49.718  1.00  0.00    -0.284 NA
HETATM   10  H16 UNL     1      21.230   1.673  48.966  1.00  0.00     0.188 HD
ENDBRANCH   7   9
BRANCH   6  11
HETATM   11  C6  UNL     1      21.978   0.168  52.214  1.00  0.00     0.145 A 
HETATM   12  C7  UNL     1      23.065  -0.517  53.004  1.00  0.00     0.115 A 
HETATM   13  N2  UNL     1      23.200  -0.896  54.229  1.00  0.00    -0.275 NA
HETATM   14  C8  UNL     1      22.096  -0.634  55.088  1.00  0.00     0.112 A 
HETATM   15  C9  UNL     1      21.105  -0.040  54.470  1.00  0.00     0.006 A 
HETATM   16  C10 UNL     1      20.826   0.443  53.076  1.00  0.00     0.094 A 
BRANCH  16  17
HETATM   17  C11 UNL     1      19.531  -0.138  52.721  1.00  0.00     0.054 C 
HETATM   18  C12 UNL     1      18.710  -0.975  53.317  1.00  0.00     0.032 C 
HETATM   19  C13 UNL     1      17.417  -1.623  53.083  1.00  0.00     0.197 C 
HETATM   20  O1  UNL     1      16.813  -1.274  51.896  1.00  0.00    -0.385 OA
HETATM   21  C14 UNL     1      16.871   0.054  51.576  1.00  0.00     0.194 C 
HETATM   22  C15 UNL     1      18.063   0.233  50.627  1.00  0.00     0.201 C 
HETATM   23  O2  UNL     1      19.230   0.405  51.448  1.00  0.00    -0.353 OA
ENDBRANCH  16  17
ENDBRANCH   6  11
TORSDOF 3
ENDMDL
MODEL 9
REMARK VINA RESULT:      -6.9      3.530      4.939
REMARK  3 active torsions:
REMARK  status: ('A' for Active; 'I' for Inactive)
REMARK    1  A    between atoms: N1_6  and  C6_7 
REMARK    2  A    between atoms: C10_12  and  C11_13 
REMARK    3  A    between atoms: C16_20  and  N3_21 
ROOT
HETATM    1  C1  UNL     1      17.493   2.059  51.547  1.00  0.00     0.018 C 
HETATM    2  C2  UNL     1      18.667   2.294  51.627  1.00  0.00    -0.078 C 
HETATM    3  C3  UNL     1      20.070   2.579  51.729  1.00  0.00     0.021 A 
HETATM    4  C4  UNL     1      21.057   1.632  51.783  1.00  0.00     0.038 A 
HETATM    5  C5  UNL     1      22.371   2.058  51.880  1.00  0.00     0.095 A 
HETATM    6  N1  UNL     1      22.752   3.357  51.926  1.00  0.00    -0.331 N 
HETATM    7  C16 UNL     1      21.762   4.273  51.871  1.00  0.00     0.124 A 
HETATM    8  C17 UNL     1      20.453   3.904  51.775  1.00  0.00     0.070 A 
ENDROOT
BRANCH   7   9
HETATM    9  N3  UNL     1      22.192   5.500  51.920  1.00  0.00    -0.284 NA
HETATM   10  H16 UNL     1      21.850   6.222  51.267  1.00  0.00     0.188 HD
ENDBRANCH   7   9
BRANCH   6  11
HETATM   11  C6  UNL     1      24.181   3.649  52.029  1.00  0.00     0.145 A 
HETATM   12  C7  UNL     1      24.605   2.848  53.235  1.00  0.00     0.115 A 
HETATM   13  N2  UNL     1      25.442   1.888  53.442  1.00  0.00    -0.275 NA
HETATM   14  C8  UNL     1      26.167   1.436  52.305  1.00  0.00     0.112 A 
HETATM   15  C9  UNL     1      25.854   2.091  51.214  1.00  0.00     0.006 A 
HETATM   16  C10 UNL     1      24.920   3.206  50.844  1.00  0.00     0.094 A 
BRANCH  16  17
HETATM   17  C11 UNL     1      25.746   4.178  50.130  1.00  0.00     0.054 C 
HETATM   18  C12 UNL     1      26.806   4.085  49.356  1.00  0.00     0.032 C 
HETATM   19  C13 UNL     1      27.709   4.951  48.595  1.00  0.00     0.197 C 
HETATM   20  O1  UNL     1      27.394   6.290  48.651  1.00  0.00    -0.385 OA
HETATM   21  C14 UNL     1      26.064   6.585  48.539  1.00  0.00     0.194 C 
HETATM   22  C15 UNL     1      25.521   6.747  49.965  1.00  0.00     0.201 C 
HETATM   23  O2  UNL     1      25.165   5.434  50.429  1.00  0.00    -0.353 OA
ENDBRANCH  16  17
ENDBRANCH   6  11
TORSDOF 3
ENDMDL
