MODEL 1
REMARK VINA RESULT:      -8.3      0.000      0.000
REMARK  5 active torsions:
REMARK  status: ('A' for Active; 'I' for Inactive)
REMARK    1  A    between atoms: C2_2  and  C3_3 
REMARK    2  A    between atoms: C3_3  and  C4_4 
REMARK    3  A    between atoms: C4_4  and  C5_5 
REMARK    4  A    between atoms: C5_5  and  C6_6 
REMARK       I    between atoms: C6_6  and  N1_8 
REMARK    5  A    between atoms: N1_8  and  C7_9 
ROOT
HETATM    1  C7  UNL     1      26.405   2.010  51.757  1.00  0.00     0.029 C 
HETATM    2  C8  UNL     1      26.672   2.902  50.838  1.00  0.00     0.027 C 
HETATM    3  C9  UNL     1      26.009   3.817  49.951  1.00  0.00     0.004 C 
HETATM    4  C10 UNL     1      24.844   4.339  49.520  1.00  0.00     0.034 C 
HETATM    5  C11 UNL     1      23.370   4.292  49.723  1.00  0.00     0.085 A 
HETATM    6  N2  UNL     1      23.120   5.328  50.520  1.00  0.00    -0.259 NA
HETATM    7  C12 UNL     1      21.913   5.652  50.985  1.00  0.00     0.117 A 
HETATM    8  C13 UNL     1      20.849   4.860  50.616  1.00  0.00     0.022 A 
HETATM    9  C14 UNL     1      21.145   3.777  49.775  1.00  0.00     0.035 A 
HETATM   10  C15 UNL     1      22.390   3.440  49.293  1.00  0.00     0.084 A 
HETATM   11  N3  UNL     1      22.142   2.265  48.494  1.00  0.00    -0.262 NA
HETATM   12  C16 UNL     1      21.848   1.135  49.103  1.00  0.00     0.097 C 
HETATM   13  C17 UNL     1      21.847   1.359  50.520  1.00  0.00     0.056 C 
HETATM   14  C18 UNL     1      21.613   0.554  51.521  1.00  0.00     0.081 C 
HETATM   15  N4  UNL     1      21.779   1.394  52.682  1.00  0.00    -0.296 NA
HETATM   16  C19 UNL     1      23.030   1.758  52.927  1.00  0.00     0.294 C 
HETATM   17  N5  UNL     1      24.430   2.097  53.106  1.00  0.00    -0.383 N 
HETATM   18  C20 UNL     1      24.963   1.764  51.831  1.00  0.00     0.177 C 
HETATM   19  H19 UNL     1      24.568   2.451  54.061  1.00  0.00     0.160 HD
ENDROOT
BRANCH   1  20
HETATM   20  N1  UNL     1      27.172   1.181  52.565  1.00  0.00    -0.329 N 
HETATM   21  C6  UNL     1      28.009   1.536  53.648  1.00  0.00     0.223 C 
HETATM   22  O1  UNL     1      28.176   2.714  54.039  1.00  0.00    -0.273 OA
HETATM   23  H8  UNL     1      27.209   0.153  52.448  1.00  0.00     0.168 HD
BRANCH  21  24
HETATM   24  C5  UNL     1      28.825   0.646  54.509  1.00  0.00     0.120 C 
BRANCH  24  25
HETATM   25  C4  UNL     1      29.755  -0.074  53.621  1.00  0.00     0.076 C 
BRANCH  25  26
HETATM   26  C3  UNL     1      29.374  -1.296  53.375  1.00  0.00    -0.171 C 
BRANCH  26  27
HETATM   27  C2  UNL     1      28.857  -2.465  53.048  1.00  0.00     0.062 C 
HETATM   28  C1  UNL     1      27.441  -2.462  52.632  1.00  0.00     0.023 C 
ENDBRANCH  26  27
ENDBRANCH  25  26
ENDBRANCH  24  25
ENDBRANCH  21  24
ENDBRANCH   1  20
TORSDOF 5
ENDMDL
MODEL 2
REMARK VINA RESULT:      -8.2      1.873      2.429
REMARK  5 active torsions:
REMARK  status: ('A' for Active; 'I' for Inactive)
REMARK    1  A    between atoms: C2_2  and  C3_3 
REMARK    2  A    between atoms: C3_3  and  C4_4 
REMARK    3  A    between atoms: C4_4  and  C5_5 
REMARK    4  A    between atoms: C5_5  and  C6_6 
REMARK       I    between atoms: C6_6  and  N1_8 
REMARK    5  A    between atoms: N1_8  and  C7_9 
ROOT
HETATM    1  C7  UNL     1      26.016   2.517  51.395  1.00  0.00     0.029 C 
HETATM    2  C8  UNL     1      26.713   3.013  50.406  1.00  0.00     0.027 C 
HETATM    3  C9  UNL     1      26.682   4.087  49.452  1.00  0.00     0.004 C 
HETATM    4  C10 UNL     1      26.038   5.176  48.988  1.00  0.00     0.034 C 
HETATM    5  C11 UNL     1      24.841   6.034  49.202  1.00  0.00     0.085 A 
HETATM    6  N2  UNL     1      25.302   7.058  49.915  1.00  0.00    -0.259 NA
HETATM    7  C12 UNL     1      24.553   8.069  50.359  1.00  0.00     0.117 A 
HETATM    8  C13 UNL     1      23.209   8.052  50.062  1.00  0.00     0.022 A 
HETATM    9  C14 UNL     1      22.756   6.959  49.309  1.00  0.00     0.035 A 
HETATM   10  C15 UNL     1      23.525   5.915  48.848  1.00  0.00     0.084 A 
HETATM   11  N3  UNL     1      22.583   5.077  48.148  1.00  0.00    -0.262 NA
HETATM   12  C16 UNL     1      21.705   4.388  48.847  1.00  0.00     0.097 C 
HETATM   13  C17 UNL     1      21.914   4.654  50.242  1.00  0.00     0.056 C 
HETATM   14  C18 UNL     1      21.298   4.213  51.305  1.00  0.00     0.081 C 
HETATM   15  N4  UNL     1      21.994   4.855  52.394  1.00  0.00    -0.296 NA
HETATM   16  C19 UNL     1      23.225   4.410  52.602  1.00  0.00     0.294 C 
HETATM   17  N5  UNL     1      24.558   3.852  52.744  1.00  0.00    -0.383 N 
HETATM   18  C20 UNL     1      24.718   3.190  51.498  1.00  0.00     0.177 C 
HETATM   19  H19 UNL     1      24.930   4.110  53.667  1.00  0.00     0.160 HD
ENDROOT
BRANCH   1  20
HETATM   20  N1  UNL     1      26.178   1.444  52.262  1.00  0.00    -0.329 N 
HETATM   21  C6  UNL     1      26.679   1.449  53.584  1.00  0.00     0.223 C 
HETATM   22  O1  UNL     1      27.066   2.483  54.176  1.00  0.00    -0.273 OA
HETATM   23  H8  UNL     1      25.929   0.471  52.011  1.00  0.00     0.168 HD
BRANCH  21  24
HETATM   24  C5  UNL     1      26.849   0.301  54.508  1.00  0.00     0.120 C 
BRANCH  24  25
HETATM   25  C4  UNL     1      28.268   0.277  54.905  1.00  0.00     0.076 C 
BRANCH  25  26
HETATM   26  C3  UNL     1      28.997  -0.473  54.127  1.00  0.00    -0.171 C 
BRANCH  26  27
HETATM   27  C2  UNL     1      29.641  -1.360  53.393  1.00  0.00     0.062 C 
HETATM   28  C1  UNL     1      28.915  -2.608  53.084  1.00  0.00     0.023 C 
ENDBRANCH  26  27
ENDBRANCH  25  26
ENDBRANCH  24  25
ENDBRANCH  21  24
ENDBRANCH   1  20
TORSDOF 5
ENDMDL
MODEL 3
REMARK VINA RESULT:      -7.8      2.504      3.615
REMARK  5 active torsions:
REMARK  status: ('A' for Active; 'I' for Inactive)
REMARK    1  A    between atoms: C2_2  and  C3_3 
REMARK    2  A    between atoms: C3_3  and  C4_4 
REMARK    3  A    between atoms: C4_4  and  C5_5 
REMARK    4  A    between atoms: C5_5  and  C6_6 
REMARK       I    between atoms: C6_6  and  N1_8 
REMARK    5  A    between atoms: N1_8  and  C7_9 
ROOT
HETATM    1  C7  UNL     1      25.735   2.520  51.274  1.00  0.00     0.029 C 
HETATM    2  C8  UNL     1      26.588   2.937  50.374  1.00  0.00     0.027 C 
HETATM    3  C9  UNL     1      26.788   4.016  49.447  1.00  0.00     0.004 C 
HETATM    4  C10 UNL     1      26.333   5.179  48.942  1.00  0.00     0.034 C 
HETATM    5  C11 UNL     1      25.232   6.175  49.049  1.00  0.00     0.085 A 
HETATM    6  N2  UNL     1      25.733   7.129  49.828  1.00  0.00    -0.259 NA
HETATM    7  C12 UNL     1      25.068   8.219  50.215  1.00  0.00     0.117 A 
HETATM    8  C13 UNL     1      23.772   8.368  49.777  1.00  0.00     0.022 A 
HETATM    9  C14 UNL     1      23.273   7.346  48.957  1.00  0.00     0.035 A 
HETATM   10  C15 UNL     1      23.956   6.220  48.556  1.00  0.00     0.084 A 
HETATM   11  N3  UNL     1      23.000   5.510  47.743  1.00  0.00    -0.262 NA
HETATM   12  C16 UNL     1      21.976   4.927  48.330  1.00  0.00     0.097 C 
HETATM   13  C17 UNL     1      22.066   5.152  49.745  1.00  0.00     0.056 C 
HETATM   14  C18 UNL     1      21.292   4.779  50.728  1.00  0.00     0.081 C 
HETATM   15  N4  UNL     1      21.939   5.321  51.898  1.00  0.00    -0.296 NA
HETATM   16  C19 UNL     1      23.079   4.728  52.224  1.00  0.00     0.294 C 
HETATM   17  N5  UNL     1      24.312   4.011  52.492  1.00  0.00    -0.383 N 
HETATM   18  C20 UNL     1      24.524   3.345  51.255  1.00  0.00     0.177 C 
HETATM   19  H19 UNL     1      24.612   4.213  53.454  1.00  0.00     0.160 HD
ENDROOT
BRANCH   1  20
HETATM   20  N1  UNL     1      25.673   1.428  52.129  1.00  0.00    -0.329 N 
HETATM   21  C6  UNL     1      26.001   1.366  53.503  1.00  0.00     0.223 C 
HETATM   22  O1  UNL     1      26.415   2.347  54.163  1.00  0.00    -0.273 OA
HETATM   23  H8  UNL     1      25.358   0.489  51.826  1.00  0.00     0.168 HD
BRANCH  21  24
HETATM   24  C5  UNL     1      25.932   0.197  54.413  1.00  0.00     0.120 C 
BRANCH  24  25
HETATM   25  C4  UNL     1      25.097  -0.816  53.745  1.00  0.00     0.076 C 
BRANCH  25  26
HETATM   26  C3  UNL     1      23.822  -0.625  53.937  1.00  0.00    -0.171 C 
BRANCH  26  27
HETATM   27  C2  UNL     1      22.543  -0.309  54.018  1.00  0.00     0.062 C 
HETATM   28  C1  UNL     1      21.637  -1.361  54.520  1.00  0.00     0.023 C 
ENDBRANCH  26  27
ENDBRANCH  25  26
ENDBRANCH  24  25
ENDBRANCH  21  24
ENDBRANCH   1  20
TORSDOF 5
ENDMDL
MODEL 4
REMARK VINA RESULT:      -7.6      3.472      5.106
REMARK  5 active torsions:
REMARK  status: ('A' for Active; 'I' for Inactive)
REMARK    1  A    between atoms: C2_2  and  C3_3 
REMARK    2  A    between atoms: C3_3  and  C4_4 
REMARK    3  A    between atoms: C4_4  and  C5_5 
REMARK    4  A    between atoms: C5_5  and  C6_6 
REMARK       I    between atoms: C6_6  and  N1_8 
REMARK    5  A    between atoms: N1_8  and  C7_9 
ROOT
HETATM    1  C7  UNL     1      26.230   4.053  49.847  1.00  0.00     0.029 C 
HETATM    2  C8  UNL     1      27.290   4.305  49.123  1.00  0.00     0.027 C 
HETATM    3  C9  UNL     1      27.893   5.368  48.367  1.00  0.00     0.004 C 
HETATM    4  C10 UNL     1      27.825   6.648  47.953  1.00  0.00     0.034 C 
HETATM    5  C11 UNL     1      27.001   7.885  48.037  1.00  0.00     0.085 A 
HETATM    6  N2  UNL     1      27.595   8.605  48.984  1.00  0.00    -0.259 NA
HETATM    7  C12 UNL     1      27.168   9.795  49.411  1.00  0.00     0.117 A 
HETATM    8  C13 UNL     1      26.034  10.316  48.831  1.00  0.00     0.022 A 
HETATM    9  C14 UNL     1      25.433   9.533  47.834  1.00  0.00     0.035 A 
HETATM   10  C15 UNL     1      25.870   8.306  47.391  1.00  0.00     0.084 A 
HETATM   11  N3  UNL     1      24.908   7.942  46.380  1.00  0.00    -0.262 NA
HETATM   12  C16 UNL     1      23.692   7.601  46.755  1.00  0.00     0.097 C 
HETATM   13  C17 UNL     1      23.612   7.675  48.186  1.00  0.00     0.056 C 
HETATM   14  C18 UNL     1      22.626   7.437  49.008  1.00  0.00     0.081 C 
HETATM   15  N4  UNL     1      23.196   7.689  50.309  1.00  0.00    -0.296 NA
HETATM   16  C19 UNL     1      24.088   6.792  50.705  1.00  0.00     0.294 C 
HETATM   17  N5  UNL     1      25.047   5.757  51.042  1.00  0.00    -0.383 N 
HETATM   18  C20 UNL     1      25.279   5.166  49.771  1.00  0.00     0.177 C 
HETATM   19  H19 UNL     1      25.234   5.791  52.052  1.00  0.00     0.160 HD
ENDROOT
BRANCH   1  20
HETATM   20  N1  UNL     1      25.767   2.947  50.547  1.00  0.00    -0.329 N 
HETATM   21  C6  UNL     1      26.402   2.238  51.592  1.00  0.00     0.223 C 
HETATM   22  O1  UNL     1      27.532   2.533  52.045  1.00  0.00    -0.273 OA
HETATM   23  H8  UNL     1      24.849   2.505  50.363  1.00  0.00     0.168 HD
BRANCH  21  24
HETATM   24  C5  UNL     1      25.902   1.058  52.339  1.00  0.00     0.120 C 
BRANCH  24  25
HETATM   25  C4  UNL     1      26.737  -0.088  51.937  1.00  0.00     0.076 C 
BRANCH  25  26
HETATM   26  C3  UNL     1      27.536  -0.488  52.886  1.00  0.00    -0.171 C 
BRANCH  26  27
HETATM   27  C2  UNL     1      28.458  -0.790  53.781  1.00  0.00     0.062 C 
HETATM   28  C1  UNL     1      29.839  -0.375  53.464  1.00  0.00     0.023 C 
ENDBRANCH  26  27
ENDBRANCH  25  26
ENDBRANCH  24  25
ENDBRANCH  21  24
ENDBRANCH   1  20
TORSDOF 5
ENDMDL
MODEL 5
REMARK VINA RESULT:      -7.5      3.426      5.457
REMARK  5 active torsions:
REMARK  status: ('A' for Active; 'I' for Inactive)
REMARK    1  A    between atoms: C2_2  and  C3_3 
REMARK    2  A    between atoms: C3_3  and  C4_4 
REMARK    3  A    between atoms: C4_4  and  C5_5 
REMARK    4  A    between atoms: C5_5  and  C6_6 
REMARK       I    between atoms: C6_6  and  N1_8 
REMARK    5  A    between atoms: N1_8  and  C7_9 
ROOT
HETATM    1  C7  UNL     1      26.020   3.862  49.922  1.00  0.00     0.029 C 
HETATM    2  C8  UNL     1      27.095   4.074  49.208  1.00  0.00     0.027 C 
HETATM    3  C9  UNL     1      27.760   5.123  48.484  1.00  0.00     0.004 C 
HETATM    4  C10 UNL     1      27.764   6.416  48.105  1.00  0.00     0.034 C 
HETATM    5  C11 UNL     1      27.010   7.694  48.222  1.00  0.00     0.085 A 
HETATM    6  N2  UNL     1      27.639   8.353  49.191  1.00  0.00    -0.259 NA
HETATM    7  C12 UNL     1      27.278   9.552  49.649  1.00  0.00     0.117 A 
HETATM    8  C13 UNL     1      26.176  10.152  49.081  1.00  0.00     0.022 A 
HETATM    9  C14 UNL     1      25.537   9.432  48.062  1.00  0.00     0.035 A 
HETATM   10  C15 UNL     1      25.907   8.194  47.586  1.00  0.00     0.084 A 
HETATM   11  N3  UNL     1      24.930   7.913  46.563  1.00  0.00    -0.262 NA
HETATM   12  C16 UNL     1      23.696   7.630  46.925  1.00  0.00     0.097 C 
HETATM   13  C17 UNL     1      23.614   7.668  48.357  1.00  0.00     0.056 C 
HETATM   14  C18 UNL     1      22.613   7.463  49.170  1.00  0.00     0.081 C 
HETATM   15  N4  UNL     1      23.191   7.646  50.479  1.00  0.00    -0.296 NA
HETATM   16  C19 UNL     1      24.030   6.690  50.852  1.00  0.00     0.294 C 
HETATM   17  N5  UNL     1      24.929   5.594  51.162  1.00  0.00    -0.383 N 
HETATM   18  C20 UNL     1      25.133   5.027  49.875  1.00  0.00     0.177 C 
HETATM   19  H19 UNL     1      25.113   5.590  52.173  1.00  0.00     0.160 HD
ENDROOT
BRANCH   1  20
HETATM   20  N1  UNL     1      25.493   2.764  50.590  1.00  0.00    -0.329 N 
HETATM   21  C6  UNL     1      26.120   1.932  51.546  1.00  0.00     0.223 C 
HETATM   22  O1  UNL     1      27.300   2.088  51.935  1.00  0.00    -0.273 OA
HETATM   23  H8  UNL     1      24.525   2.425  50.446  1.00  0.00     0.168 HD
BRANCH  21  24
HETATM   24  C5  UNL     1      25.552   0.762  52.259  1.00  0.00     0.120 C 
BRANCH  24  25
HETATM   25  C4  UNL     1      24.399   1.251  53.035  1.00  0.00     0.076 C 
BRANCH  25  26
HETATM   26  C3  UNL     1      23.528   0.316  53.289  1.00  0.00    -0.171 C 
BRANCH  26  27
HETATM   27  C2  UNL     1      22.650  -0.665  53.382  1.00  0.00     0.062 C 
HETATM   28  C1  UNL     1      22.029  -0.866  54.706  1.00  0.00     0.023 C 
ENDBRANCH  26  27
ENDBRANCH  25  26
ENDBRANCH  24  25
ENDBRANCH  21  24
ENDBRANCH   1  20
TORSDOF 5
ENDMDL
MODEL 6
REMARK VINA RESULT:      -7.4      5.085      7.629
REMARK  5 active torsions:
REMARK  status: ('A' for Active; 'I' for Inactive)
REMARK    1  A    between atoms: C2_2  and  C3_3 
REMARK    2  A    between atoms: C3_3  and  C4_4 
REMARK    3  A    between atoms: C4_4  and  C5_5 
REMARK    4  A    between atoms: C5_5  and  C6_6 
REMARK       I    between atoms: C6_6  and  N1_8 
REMARK    5  A    between atoms: N1_8  and  C7_9 
ROOT
HETATM    1  C7  UNL     1      26.721   5.285  49.095  1.00  0.00     0.029 C 
HETATM    2  C8  UNL     1      27.865   4.935  48.566  1.00  0.00     0.027 C 
HETATM    3  C9  UNL     1      29.079   5.514  48.061  1.00  0.00     0.004 C 
HETATM    4  C10 UNL     1      29.795   6.632  47.829  1.00  0.00     0.034 C 
HETATM    5  C11 UNL     1      29.772   8.113  47.976  1.00  0.00     0.085 A 
HETATM    6  N2  UNL     1      30.464   8.337  49.089  1.00  0.00    -0.259 NA
HETATM    7  C12 UNL     1      30.674   9.543  49.620  1.00  0.00     0.117 A 
HETATM    8  C13 UNL     1      30.138  10.633  48.971  1.00  0.00     0.022 A 
HETATM    9  C14 UNL     1      29.416  10.362  47.800  1.00  0.00     0.035 A 
HETATM   10  C15 UNL     1      29.197   9.120  47.249  1.00  0.00     0.084 A 
HETATM   11  N3  UNL     1      28.408   9.398  46.075  1.00  0.00    -0.262 NA
HETATM   12  C16 UNL     1      27.155   9.776  46.227  1.00  0.00     0.097 C 
HETATM   13  C17 UNL     1      26.852   9.819  47.629  1.00  0.00     0.056 C 
HETATM   14  C18 UNL     1      25.757  10.135  48.266  1.00  0.00     0.081 C 
HETATM   15  N4  UNL     1      26.109   9.970  49.655  1.00  0.00    -0.296 NA
HETATM   16  C19 UNL     1      26.279   8.712  50.037  1.00  0.00     0.294 C 
HETATM   17  N5  UNL     1      26.441   7.304  50.350  1.00  0.00    -0.383 N 
HETATM   18  C20 UNL     1      26.557   6.740  49.051  1.00  0.00     0.177 C 
HETATM   19  H19 UNL     1      26.417   7.184  51.370  1.00  0.00     0.160 HD
ENDROOT
BRANCH   1  20
HETATM   20  N1  UNL     1      25.609   4.595  49.560  1.00  0.00    -0.329 N 
HETATM   21  C6  UNL     1      25.567   3.439  50.373  1.00  0.00     0.223 C 
HETATM   22  O1  UNL     1      26.588   2.855  50.802  1.00  0.00    -0.273 OA
HETATM   23  H8  UNL     1      24.636   4.878  49.345  1.00  0.00     0.168 HD
BRANCH  21  24
HETATM   24  C5  UNL     1      24.376   2.707  50.869  1.00  0.00     0.120 C 
BRANCH  24  25
HETATM   25  C4  UNL     1      24.468   2.686  52.340  1.00  0.00     0.076 C 
BRANCH  25  26
HETATM   26  C3  UNL     1      24.203   1.515  52.845  1.00  0.00    -0.171 C 
BRANCH  26  27
HETATM   27  C2  UNL     1      24.088   0.284  53.309  1.00  0.00     0.062 C 
HETATM   28  C1  UNL     1      22.728  -0.291  53.313  1.00  0.00     0.023 C 
ENDBRANCH  26  27
ENDBRANCH  25  26
ENDBRANCH  24  25
ENDBRANCH  21  24
ENDBRANCH   1  20
TORSDOF 5
ENDMDL
MODEL 7
REMARK VINA RESULT:      -6.9      2.280      4.270
REMARK  5 active torsions:
REMARK  status: ('A' for Active; 'I' for Inactive)
REMARK    1  A    between atoms: C2_2  and  C3_3 
REMARK    2  A    between atoms: C3_3  and  C4_4 
REMARK    3  A    between atoms: C4_4  and  C5_5 
REMARK    4  A    between atoms: C5_5  and  C6_6 
REMARK       I    between atoms: C6_6  and  N1_8 
REMARK    5  A    between atoms: N1_8  and  C7_9 
ROOT
HETATM    1  C7  UNL     1      23.750   2.551  52.367  1.00  0.00     0.029 C 
HETATM    2  C8  UNL     1      22.461   2.714  52.519  1.00  0.00     0.027 C 
HETATM    3  C9  UNL     1      21.366   3.474  51.984  1.00  0.00     0.004 C 
HETATM    4  C10 UNL     1      20.948   4.387  51.085  1.00  0.00     0.034 C 
HETATM    5  C11 UNL     1      21.408   5.257  49.969  1.00  0.00     0.085 A 
HETATM    6  N2  UNL     1      21.095   4.570  48.874  1.00  0.00    -0.259 NA
HETATM    7  C12 UNL     1      21.356   4.971  47.628  1.00  0.00     0.117 A 
HETATM    8  C13 UNL     1      21.994   6.179  47.463  1.00  0.00     0.022 A 
HETATM    9  C14 UNL     1      22.309   6.878  48.636  1.00  0.00     0.035 A 
HETATM   10  C15 UNL     1      22.042   6.469  49.923  1.00  0.00     0.084 A 
HETATM   11  N3  UNL     1      22.568   7.535  50.739  1.00  0.00    -0.262 NA
HETATM   12  C16 UNL     1      23.874   7.673  50.839  1.00  0.00     0.097 C 
HETATM   13  C17 UNL     1      24.507   6.651  50.055  1.00  0.00     0.056 C 
HETATM   14  C18 UNL     1      25.767   6.385  49.841  1.00  0.00     0.081 C 
HETATM   15  N4  UNL     1      25.731   5.233  48.973  1.00  0.00    -0.296 NA
HETATM   16  C19 UNL     1      25.323   4.115  49.554  1.00  0.00     0.294 C 
HETATM   17  N5  UNL     1      24.865   2.948  50.286  1.00  0.00    -0.383 N 
HETATM   18  C20 UNL     1      24.288   3.548  51.437  1.00  0.00     0.177 C 
HETATM   19  H19 UNL     1      25.102   2.104  49.749  1.00  0.00     0.160 HD
ENDROOT
BRANCH   1  20
HETATM   20  N1  UNL     1      24.710   1.748  52.967  1.00  0.00    -0.329 N 
HETATM   21  C6  UNL     1      24.664   0.357  53.216  1.00  0.00     0.223 C 
HETATM   22  O1  UNL     1      23.692  -0.371  52.910  1.00  0.00    -0.273 OA
HETATM   23  H8  UNL     1      25.616   2.111  53.313  1.00  0.00     0.168 HD
BRANCH  21  24
HETATM   24  C5  UNL     1      25.693  -0.498  53.857  1.00  0.00     0.120 C 
BRANCH  24  25
HETATM   25  C4  UNL     1      26.496  -1.087  52.771  1.00  0.00     0.076 C 
BRANCH  25  26
HETATM   26  C3  UNL     1      27.762  -1.170  53.067  1.00  0.00    -0.171 C 
BRANCH  26  27
HETATM   27  C2  UNL     1      29.047  -1.087  53.355  1.00  0.00     0.062 C 
HETATM   28  C1  UNL     1      29.552   0.250  53.725  1.00  0.00     0.023 C 
ENDBRANCH  26  27
ENDBRANCH  25  26
ENDBRANCH  24  25
ENDBRANCH  21  24
ENDBRANCH   1  20
TORSDOF 5
ENDMDL
MODEL 8
REMARK VINA RESULT:      -6.9      3.926      6.826
REMARK  5 active torsions:
REMARK  status: ('A' for Active; 'I' for Inactive)
REMARK    1  A    between atoms: C2_2  and  C3_3 
REMARK    2  A    between atoms: C3_3  and  C4_4 
REMARK    3  A    between atoms: C4_4  and  C5_5 
REMARK    4  A    between atoms: C5_5  and  C6_6 
REMARK       I    between atoms: C6_6  and  N1_8 
REMARK    5  A    between atoms: N1_8  and  C7_9 
ROOT
HETATM    1  C7  UNL     1      20.970   0.540  52.746  1.00  0.00     0.029 C 
HETATM    2  C8  UNL     1      22.263   0.346  52.762  1.00  0.00     0.027 C 
HETATM    3  C9  UNL     1      23.480   0.919  52.255  1.00  0.00     0.004 C 
HETATM    4  C10 UNL     1      24.062   1.904  51.543  1.00  0.00     0.034 C 
HETATM    5  C11 UNL     1      23.776   3.143  50.768  1.00  0.00     0.085 A 
HETATM    6  N2  UNL     1      24.009   4.126  51.633  1.00  0.00    -0.259 NA
HETATM    7  C12 UNL     1      23.850   5.423  51.366  1.00  0.00     0.117 A 
HETATM    8  C13 UNL     1      23.414   5.771  50.108  1.00  0.00     0.022 A 
HETATM    9  C14 UNL     1      23.179   4.711  49.219  1.00  0.00     0.035 A 
HETATM   10  C15 UNL     1      23.342   3.372  49.491  1.00  0.00     0.084 A 
HETATM   11  N3  UNL     1      22.967   2.723  48.259  1.00  0.00    -0.262 NA
HETATM   12  C16 UNL     1      21.697   2.706  47.912  1.00  0.00     0.097 C 
HETATM   13  C17 UNL     1      20.933   3.385  48.920  1.00  0.00     0.056 C 
HETATM   14  C18 UNL     1      19.654   3.624  49.018  1.00  0.00     0.081 C 
HETATM   15  N4  UNL     1      19.533   4.338  50.266  1.00  0.00    -0.296 NA
HETATM   16  C19 UNL     1      19.743   3.601  51.347  1.00  0.00     0.294 C 
HETATM   17  N5  UNL     1      19.992   2.706  52.463  1.00  0.00    -0.383 N 
HETATM   18  C20 UNL     1      20.622   1.613  51.810  1.00  0.00     0.177 C 
HETATM   19  H19 UNL     1      19.640   3.143  53.324  1.00  0.00     0.160 HD
ENDROOT
BRANCH   1  20
HETATM   20  N1  UNL     1      19.878  -0.109  53.307  1.00  0.00    -0.329 N 
HETATM   21  C6  UNL     1      18.714  -0.590  52.665  1.00  0.00     0.223 C 
HETATM   22  O1  UNL     1      18.505  -0.483  51.435  1.00  0.00    -0.273 OA
HETATM   23  H8  UNL     1      19.805  -0.322  54.318  1.00  0.00     0.168 HD
BRANCH  21  24
HETATM   24  C5  UNL     1      17.551  -1.285  53.269  1.00  0.00     0.120 C 
BRANCH  24  25
HETATM   25  C4  UNL     1      18.062  -2.528  53.873  1.00  0.00     0.076 C 
BRANCH  25  26
HETATM   26  C3  UNL     1      17.306  -3.560  53.621  1.00  0.00    -0.171 C 
BRANCH  26  27
HETATM   27  C2  UNL     1      16.454  -4.502  53.264  1.00  0.00     0.062 C 
HETATM   28  C1  UNL     1      15.859  -5.296  54.357  1.00  0.00     0.023 C 
ENDBRANCH  26  27
ENDBRANCH  25  26
ENDBRANCH  24  25
ENDBRANCH  21  24
ENDBRANCH   1  20
TORSDOF 5
ENDMDL
MODEL 9
REMARK VINA RESULT:      -6.6      2.310      3.476
REMARK  5 active torsions:
REMARK  status: ('A' for Active; 'I' for Inactive)
REMARK    1  A    between atoms: C2_2  and  C3_3 
REMARK    2  A    between atoms: C3_3  and  C4_4 
REMARK    3  A    between atoms: C4_4  and  C5_5 
REMARK    4  A    between atoms: C5_5  and  C6_6 
REMARK       I    between atoms: C6_6  and  N1_8 
REMARK    5  A    between atoms: N1_8  and  C7_9 
ROOT
HETATM    1  C7  UNL     1      25.545   3.119  50.169  1.00  0.00     0.029 C 
HETATM    2  C8  UNL     1      26.335   4.001  49.614  1.00  0.00     0.027 C 
HETATM    3  C9  UNL     1      26.289   5.284  48.967  1.00  0.00     0.004 C 
HETATM    4  C10 UNL     1      25.536   6.324  48.559  1.00  0.00     0.034 C 
HETATM    5  C11 UNL     1      24.143   6.848  48.531  1.00  0.00     0.085 A 
HETATM    6  N2  UNL     1      24.092   7.685  49.564  1.00  0.00    -0.259 NA
HETATM    7  C12 UNL     1      23.007   8.366  49.933  1.00  0.00     0.117 A 
HETATM    8  C13 UNL     1      21.858   8.193  49.195  1.00  0.00     0.022 A 
HETATM    9  C14 UNL     1      21.945   7.305  48.113  1.00  0.00     0.035 A 
HETATM   10  C15 UNL     1      23.063   6.600  47.728  1.00  0.00     0.084 A 
HETATM   11  N3  UNL     1      22.618   5.848  46.582  1.00  0.00    -0.262 NA
HETATM   12  C16 UNL     1      21.795   4.836  46.768  1.00  0.00     0.097 C 
HETATM   13  C17 UNL     1      21.522   4.714  48.172  1.00  0.00     0.056 C 
HETATM   14  C18 UNL     1      20.772   3.876  48.835  1.00  0.00     0.081 C 
HETATM   15  N4  UNL     1      20.933   4.286  50.209  1.00  0.00    -0.296 NA
HETATM   16  C19 UNL     1      22.127   4.032  50.725  1.00  0.00     0.294 C 
HETATM   17  N5  UNL     1      23.464   3.711  51.191  1.00  0.00    -0.383 N 
HETATM   18  C20 UNL     1      24.141   3.484  49.963  1.00  0.00     0.177 C 
HETATM   19  H19 UNL     1      23.477   3.750  52.218  1.00  0.00     0.160 HD
ENDROOT
BRANCH   1  20
HETATM   20  N1  UNL     1      25.736   1.888  50.782  1.00  0.00    -0.329 N 
HETATM   21  C6  UNL     1      26.691   1.530  51.762  1.00  0.00     0.223 C 
HETATM   22  O1  UNL     1      27.538   2.326  52.228  1.00  0.00    -0.273 OA
HETATM   23  H8  UNL     1      25.158   1.054  50.570  1.00  0.00     0.168 HD
BRANCH  21  24
HETATM   24  C5  UNL     1      26.889   0.214  52.416  1.00  0.00     0.120 C 
BRANCH  24  25
HETATM   25  C4  UNL     1      26.274   0.303  53.752  1.00  0.00     0.076 C 
BRANCH  25  26
HETATM   26  C3  UNL     1      25.030  -0.087  53.762  1.00  0.00    -0.171 C 
BRANCH  26  27
HETATM   27  C2  UNL     1      23.734  -0.327  53.826  1.00  0.00     0.062 C 
HETATM   28  C1  UNL     1      22.861   0.572  53.047  1.00  0.00     0.023 C 
ENDBRANCH  26  27
ENDBRANCH  25  26
ENDBRANCH  24  25
ENDBRANCH  21  24
ENDBRANCH   1  20
TORSDOF 5
ENDMDL
