MODEL 1
REMARK VINA RESULT:      -9.8      0.000      0.000
REMARK  1 active torsions:
REMARK  status: ('A' for Active; 'I' for Inactive)
REMARK    1  A    between atoms: C7_9  and  C8_10 
ROOT
HETATM    1  C1  UNL     1      24.585   8.124  49.332  1.00  0.00     0.144 C 
HETATM    2  N1  UNL     1      24.075   6.848  49.836  1.00  0.00    -0.391 N 
HETATM    3  C2  UNL     1      25.082   6.046  50.389  1.00  0.00     0.137 C 
HETATM    4  C3  UNL     1      26.007   5.463  49.312  1.00  0.00     0.133 C 
HETATM    5  N2  UNL     1      26.750   4.324  49.878  1.00  0.00    -0.414 N 
HETATM    6  C4  UNL     1      25.896   3.218  50.335  1.00  0.00     0.022 C 
HETATM    7  C5  UNL     1      26.765   2.816  51.285  1.00  0.00     0.107 C 
HETATM    8  C6  UNL     1      27.341   2.068  52.362  1.00  0.00    -0.006 C 
HETATM    9  C7  UNL     1      26.942   1.036  53.039  1.00  0.00    -0.016 C 
HETATM   10  C9  UNL     1      26.149   0.021  53.608  1.00  0.00     0.009 C 
HETATM   11  C10 UNL     1      24.932  -0.492  53.734  1.00  0.00    -0.020 C 
HETATM   12  C11 UNL     1      23.683  -0.010  53.160  1.00  0.00     0.020 C 
HETATM   13  C12 UNL     1      22.384  -0.084  52.945  1.00  0.00    -0.002 C 
HETATM   14  C13 UNL     1      21.519   0.864  52.149  1.00  0.00     0.007 C 
HETATM   15  C14 UNL     1      20.860   0.207  50.987  1.00  0.00     0.020 C 
HETATM   16  C15 UNL     1      19.834   1.064  50.356  1.00  0.00     0.115 C 
HETATM   17  N3  UNL     1      20.235   2.274  49.722  1.00  0.00    -0.405 N 
HETATM   18  C16 UNL     1      20.969   3.560  49.760  1.00  0.00     0.120 A 
HETATM   19  C17 UNL     1      19.967   4.462  50.204  1.00  0.00     0.038 A 
HETATM   20  C18 UNL     1      20.677   5.706  50.348  1.00  0.00     0.242 A 
HETATM   21  N4  UNL     1      22.037   5.562  50.009  1.00  0.00     0.121 N 
HETATM   22  C19 UNL     1      22.068   4.215  49.674  1.00  0.00     0.286 A 
HETATM   23  O2  UNL     1      22.952   5.048  49.638  1.00  0.00    -0.149 OA
HETATM   24  C20 UNL     1      22.072   2.861  49.344  1.00  0.00     0.080 A 
HETATM   25  C21 UNL     1      23.441   3.263  49.216  1.00  0.00     0.078 C 
HETATM   26  C22 UNL     1      24.587   3.224  49.768  1.00  0.00     0.025 C 
HETATM   27  C23 UNL     1      22.739   6.863  50.169  1.00  0.00     0.404 C 
HETATM   28  H8  UNL     1      27.771   4.180  49.986  1.00  0.00     0.153 HD
HETATM   29  H22 UNL     1      19.765   2.348  48.749  1.00  0.00     0.154 HD
ENDROOT
BRANCH   9  30
HETATM   30  C8  UNL     1      28.265   1.276  53.683  1.00  0.00     0.389 C 
HETATM   31  O1  UNL     1      28.903   2.220  54.204  1.00  0.00    -0.405 OA
ENDBRANCH   9  30
TORSDOF 1
ENDMDL
MODEL 2
REMARK VINA RESULT:      -9.3      1.760      2.098
REMARK  1 active torsions:
REMARK  status: ('A' for Active; 'I' for Inactive)
REMARK    1  A    between atoms: C7_9  and  C8_10 
ROOT
HETATM    1  C1  UNL     1      23.547   6.512  49.699  1.00  0.00     0.144 C 
HETATM    2  N1  UNL     1      23.027   5.359  50.435  1.00  0.00    -0.391 N 
HETATM    3  C2  UNL     1      24.042   4.591  51.021  1.00  0.00     0.137 C 
HETATM    4  C3  UNL     1      24.837   3.798  49.974  1.00  0.00     0.133 C 
HETATM    5  N2  UNL     1      25.576   2.715  50.646  1.00  0.00    -0.414 N 
HETATM    6  C4  UNL     1      24.716   1.743  51.338  1.00  0.00     0.022 C 
HETATM    7  C5  UNL     1      25.649   1.438  52.264  1.00  0.00     0.107 C 
HETATM    8  C6  UNL     1      26.285   0.827  53.392  1.00  0.00    -0.006 C 
HETATM    9  C7  UNL     1      25.903  -0.066  54.251  1.00  0.00    -0.016 C 
HETATM   10  C9  UNL     1      25.118  -0.935  55.034  1.00  0.00     0.009 C 
HETATM   11  C10 UNL     1      23.896  -1.350  55.339  1.00  0.00    -0.020 C 
HETATM   12  C11 UNL     1      22.623  -0.887  54.803  1.00  0.00     0.020 C 
HETATM   13  C12 UNL     1      21.308  -0.914  54.711  1.00  0.00    -0.002 C 
HETATM   14  C13 UNL     1      20.419  -0.047  53.851  1.00  0.00     0.007 C 
HETATM   15  C14 UNL     1      19.627  -0.831  52.864  1.00  0.00     0.020 C 
HETATM   16  C15 UNL     1      18.588  -0.018  52.196  1.00  0.00     0.115 C 
HETATM   17  N3  UNL     1      18.985   1.056  51.350  1.00  0.00    -0.405 N 
HETATM   18  C16 UNL     1      19.778   2.288  51.128  1.00  0.00     0.120 A 
HETATM   19  C17 UNL     1      18.864   3.304  51.508  1.00  0.00     0.038 A 
HETATM   20  C18 UNL     1      19.640   4.511  51.399  1.00  0.00     0.242 A 
HETATM   21  N4  UNL     1      20.956   4.237  50.975  1.00  0.00     0.121 N 
HETATM   22  C19 UNL     1      20.893   2.855  50.851  1.00  0.00     0.286 A 
HETATM   23  O2  UNL     1      21.808   3.620  50.613  1.00  0.00    -0.149 OA
HETATM   24  C20 UNL     1      20.805   1.469  50.735  1.00  0.00     0.080 A 
HETATM   25  C21 UNL     1      22.174   1.765  50.434  1.00  0.00     0.078 C 
HETATM   26  C22 UNL     1      23.363   1.742  50.888  1.00  0.00     0.025 C 
HETATM   27  C23 UNL     1      21.729   5.503  50.872  1.00  0.00     0.404 C 
HETATM   28  H8  UNL     1      26.594   2.529  50.690  1.00  0.00     0.153 HD
HETATM   29  H22 UNL     1      18.432   1.011  50.420  1.00  0.00     0.154 HD
ENDROOT
BRANCH   9  30
HETATM   30  C8  UNL     1      27.288   0.189  54.738  1.00  0.00     0.389 C 
HETATM   31  O1  UNL     1      28.025   1.162  55.021  1.00  0.00    -0.405 OA
ENDBRANCH   9  30
TORSDOF 1
ENDMDL
MODEL 3
REMARK VINA RESULT:      -9.2      2.603      5.823
REMARK  1 active torsions:
REMARK  status: ('A' for Active; 'I' for Inactive)
REMARK    1  A    between atoms: C7_9  and  C8_10 
ROOT
HETATM    1  C1  UNL     1      21.475   5.457  47.905  1.00  0.00     0.144 C 
HETATM    2  N1  UNL     1      22.068   4.503  48.842  1.00  0.00    -0.391 N 
HETATM    3  C2  UNL     1      21.107   3.715  49.490  1.00  0.00     0.137 C 
HETATM    4  C3  UNL     1      20.311   4.521  50.526  1.00  0.00     0.133 C 
HETATM    5  N2  UNL     1      19.642   3.590  51.452  1.00  0.00    -0.414 N 
HETATM    6  C4  UNL     1      20.565   2.733  52.212  1.00  0.00     0.022 C 
HETATM    7  C5  UNL     1      19.679   1.724  52.329  1.00  0.00     0.107 C 
HETATM    8  C6  UNL     1      19.107   0.460  52.688  1.00  0.00    -0.006 C 
HETATM    9  C7  UNL     1      19.556  -0.561  53.349  1.00  0.00    -0.016 C 
HETATM   10  C9  UNL     1      20.403  -1.486  53.990  1.00  0.00     0.009 C 
HETATM   11  C10 UNL     1      21.651  -1.825  54.283  1.00  0.00    -0.020 C 
HETATM   12  C11 UNL     1      22.885  -1.144  53.912  1.00  0.00     0.020 C 
HETATM   13  C12 UNL     1      24.196  -1.004  53.915  1.00  0.00    -0.002 C 
HETATM   14  C13 UNL     1      25.018   0.067  53.238  1.00  0.00     0.007 C 
HETATM   15  C14 UNL     1      25.808   0.884  54.198  1.00  0.00     0.020 C 
HETATM   16  C15 UNL     1      26.788   1.763  53.525  1.00  0.00     0.115 C 
HETATM   17  N3  UNL     1      26.318   2.812  52.685  1.00  0.00    -0.405 N 
HETATM   18  C16 UNL     1      25.466   3.273  51.564  1.00  0.00     0.120 A 
HETATM   19  C17 UNL     1      26.349   3.172  50.458  1.00  0.00     0.038 A 
HETATM   20  C18 UNL     1      25.519   3.518  49.335  1.00  0.00     0.242 A 
HETATM   21  N4  UNL     1      24.202   3.812  49.742  1.00  0.00     0.121 N 
HETATM   22  C19 UNL     1      24.319   3.623  51.112  1.00  0.00     0.286 A 
HETATM   23  O2  UNL     1      23.365   3.988  50.453  1.00  0.00    -0.149 OA
HETATM   24  C20 UNL     1      24.462   3.426  52.484  1.00  0.00     0.080 A 
HETATM   25  C21 UNL     1      23.072   3.728  52.311  1.00  0.00     0.078 C 
HETATM   26  C22 UNL     1      21.901   3.229  52.270  1.00  0.00     0.025 C 
HETATM   27  C23 UNL     1      23.373   4.165  48.559  1.00  0.00     0.404 C 
HETATM   28  H8  UNL     1      18.635   3.461  51.657  1.00  0.00     0.153 HD
HETATM   29  H22 UNL     1      26.840   3.731  52.922  1.00  0.00     0.154 HD
ENDROOT
BRANCH   9  30
HETATM   30  C8  UNL     1      18.179  -1.037  53.036  1.00  0.00     0.389 C 
HETATM   31  O1  UNL     1      17.005  -0.850  53.430  1.00  0.00    -0.405 OA
ENDBRANCH   9  30
TORSDOF 1
ENDMDL
MODEL 4
REMARK VINA RESULT:      -9.0      2.141      5.415
REMARK  1 active torsions:
REMARK  status: ('A' for Active; 'I' for Inactive)
REMARK    1  A    between atoms: C7_9  and  C8_10 
ROOT
HETATM    1  C1  UNL     1      17.535  -0.542  51.778  1.00  0.00     0.144 C 
HETATM    2  N1  UNL     1      18.654   0.312  51.379  1.00  0.00    -0.391 N 
HETATM    3  C2  UNL     1      19.882  -0.134  51.885  1.00  0.00     0.137 C 
HETATM    4  C3  UNL     1      19.998   0.103  53.397  1.00  0.00     0.133 C 
HETATM    5  N2  UNL     1      21.416   0.022  53.790  1.00  0.00    -0.414 N 
HETATM    6  C4  UNL     1      22.275   1.026  53.145  1.00  0.00     0.022 C 
HETATM    7  C5  UNL     1      23.377   0.248  53.191  1.00  0.00     0.107 C 
HETATM    8  C6  UNL     1      24.730  -0.191  53.029  1.00  0.00    -0.006 C 
HETATM    9  C7  UNL     1      25.790   0.366  52.532  1.00  0.00    -0.016 C 
HETATM   10  C9  UNL     1      26.660   1.224  51.830  1.00  0.00     0.009 C 
HETATM   11  C10 UNL     1      26.769   2.269  51.021  1.00  0.00    -0.020 C 
HETATM   12  C11 UNL     1      25.706   3.075  50.436  1.00  0.00     0.020 C 
HETATM   13  C12 UNL     1      25.258   4.073  49.700  1.00  0.00    -0.002 C 
HETATM   14  C13 UNL     1      23.823   4.454  49.425  1.00  0.00     0.007 C 
HETATM   15  C14 UNL     1      23.482   5.818  49.915  1.00  0.00     0.020 C 
HETATM   16  C15 UNL     1      22.163   6.281  49.435  1.00  0.00     0.115 C 
HETATM   17  N3  UNL     1      20.990   5.598  49.864  1.00  0.00    -0.405 N 
HETATM   18  C16 UNL     1      20.234   4.336  50.047  1.00  0.00     0.120 A 
HETATM   19  C17 UNL     1      19.492   4.256  48.840  1.00  0.00     0.038 A 
HETATM   20  C18 UNL     1      18.822   2.987  48.943  1.00  0.00     0.242 A 
HETATM   21  N4  UNL     1      19.144   2.334  50.149  1.00  0.00     0.121 N 
HETATM   22  C19 UNL     1      20.005   3.266  50.713  1.00  0.00     0.286 A 
HETATM   23  O2  UNL     1      19.601   2.208  51.156  1.00  0.00    -0.149 OA
HETATM   24  C20 UNL     1      20.865   4.217  51.257  1.00  0.00     0.080 A 
HETATM   25  C21 UNL     1      20.888   3.138  52.199  1.00  0.00     0.078 C 
HETATM   26  C22 UNL     1      21.566   2.148  52.624  1.00  0.00     0.025 C 
HETATM   27  C23 UNL     1      18.436   1.028  50.223  1.00  0.00     0.404 C 
HETATM   28  H8  UNL     1      21.889  -0.615  54.457  1.00  0.00     0.153 HD
HETATM   29  H22 UNL     1      20.246   6.317  50.186  1.00  0.00     0.154 HD
ENDROOT
BRANCH   9  30
HETATM   30  C8  UNL     1      26.357  -0.946  52.952  1.00  0.00     0.389 C 
HETATM   31  O1  UNL     1      27.432  -1.410  53.398  1.00  0.00    -0.405 OA
ENDBRANCH   9  30
TORSDOF 1
ENDMDL
MODEL 5
REMARK VINA RESULT:      -8.9      1.401      1.853
REMARK  1 active torsions:
REMARK  status: ('A' for Active; 'I' for Inactive)
REMARK    1  A    between atoms: C7_9  and  C8_10 
ROOT
HETATM    1  C1  UNL     1      26.026   9.093  48.905  1.00  0.00     0.144 C 
HETATM    2  N1  UNL     1      25.166   8.015  49.394  1.00  0.00    -0.391 N 
HETATM    3  C2  UNL     1      25.895   6.909  49.853  1.00  0.00     0.137 C 
HETATM    4  C3  UNL     1      26.535   6.126  48.698  1.00  0.00     0.133 C 
HETATM    5  N2  UNL     1      26.909   4.783  49.174  1.00  0.00    -0.414 N 
HETATM    6  C4  UNL     1      25.773   3.976  49.644  1.00  0.00     0.022 C 
HETATM    7  C5  UNL     1      26.517   3.271  50.522  1.00  0.00     0.107 C 
HETATM    8  C6  UNL     1      26.881   2.323  51.532  1.00  0.00    -0.006 C 
HETATM    9  C7  UNL     1      26.211   1.432  52.195  1.00  0.00    -0.016 C 
HETATM   10  C9  UNL     1      25.167   0.687  52.777  1.00  0.00     0.009 C 
HETATM   11  C10 UNL     1      23.859   0.573  52.962  1.00  0.00    -0.020 C 
HETATM   12  C11 UNL     1      22.798   1.451  52.488  1.00  0.00     0.020 C 
HETATM   13  C12 UNL     1      21.533   1.799  52.354  1.00  0.00    -0.002 C 
HETATM   14  C13 UNL     1      20.973   3.011  51.649  1.00  0.00     0.007 C 
HETATM   15  C14 UNL     1      20.084   2.658  50.509  1.00  0.00     0.020 C 
HETATM   16  C15 UNL     1      19.350   3.826  49.977  1.00  0.00     0.115 C 
HETATM   17  N3  UNL     1      20.079   4.882  49.362  1.00  0.00    -0.405 N 
HETATM   18  C16 UNL     1      21.183   5.871  49.399  1.00  0.00     0.120 A 
HETATM   19  C17 UNL     1      20.539   7.015  49.939  1.00  0.00     0.038 A 
HETATM   20  C18 UNL     1      21.611   7.965  50.082  1.00  0.00     0.242 A 
HETATM   21  N4  UNL     1      22.838   7.422  49.652  1.00  0.00     0.121 N 
HETATM   22  C19 UNL     1      22.426   6.153  49.267  1.00  0.00     0.286 A 
HETATM   23  O2  UNL     1      23.524   6.669  49.204  1.00  0.00    -0.149 OA
HETATM   24  C20 UNL     1      21.987   4.886  48.888  1.00  0.00     0.080 A 
HETATM   25  C21 UNL     1      23.405   4.846  48.688  1.00  0.00     0.078 C 
HETATM   26  C22 UNL     1      24.506   4.421  49.163  1.00  0.00     0.025 C 
HETATM   27  C23 UNL     1      23.921   8.428  49.813  1.00  0.00     0.404 C 
HETATM   28  H8  UNL     1      27.836   4.321  49.211  1.00  0.00     0.153 HD
HETATM   29  H22 UNL     1      19.609   5.153  48.424  1.00  0.00     0.154 HD
ENDROOT
BRANCH   9  30
HETATM   30  C8  UNL     1      27.572   1.212  52.761  1.00  0.00     0.389 C 
HETATM   31  O1  UNL     1      28.630   1.855  52.951  1.00  0.00    -0.405 OA
ENDBRANCH   9  30
TORSDOF 1
ENDMDL
MODEL 6
REMARK VINA RESULT:      -8.8      1.867      5.099
REMARK  1 active torsions:
REMARK  status: ('A' for Active; 'I' for Inactive)
REMARK    1  A    between atoms: C7_9  and  C8_10 
ROOT
HETATM    1  C1  UNL     1      17.748   1.447  49.830  1.00  0.00     0.144 C 
HETATM    2  N1  UNL     1      19.133   1.914  49.762  1.00  0.00    -0.391 N 
HETATM    3  C2  UNL     1      19.960   1.288  50.703  1.00  0.00     0.137 C 
HETATM    4  C3  UNL     1      19.672   1.772  52.131  1.00  0.00     0.133 C 
HETATM    5  N2  UNL     1      20.813   1.427  52.997  1.00  0.00    -0.414 N 
HETATM    6  C4  UNL     1      22.082   2.053  52.595  1.00  0.00     0.022 C 
HETATM    7  C5  UNL     1      22.839   1.055  53.096  1.00  0.00     0.107 C 
HETATM    8  C6  UNL     1      23.988   0.280  53.457  1.00  0.00    -0.006 C 
HETATM    9  C7  UNL     1      25.263   0.459  53.306  1.00  0.00    -0.016 C 
HETATM   10  C9  UNL     1      26.516   0.932  52.870  1.00  0.00     0.009 C 
HETATM   11  C10 UNL     1      27.167   1.747  52.051  1.00  0.00    -0.020 C 
HETATM   12  C11 UNL     1      26.617   2.660  51.057  1.00  0.00     0.020 C 
HETATM   13  C12 UNL     1      26.728   3.579  50.119  1.00  0.00    -0.002 C 
HETATM   14  C13 UNL     1      25.623   4.236  49.327  1.00  0.00     0.007 C 
HETATM   15  C14 UNL     1      25.561   5.709  49.533  1.00  0.00     0.020 C 
HETATM   16  C15 UNL     1      24.647   6.378  48.582  1.00  0.00     0.115 C 
HETATM   17  N3  UNL     1      23.253   6.093  48.642  1.00  0.00    -0.405 N 
HETATM   18  C16 UNL     1      22.146   5.109  48.674  1.00  0.00     0.120 A 
HETATM   19  C17 UNL     1      21.820   4.984  47.298  1.00  0.00     0.038 A 
HETATM   20  C18 UNL     1      20.811   3.957  47.286  1.00  0.00     0.242 A 
HETATM   21  N4  UNL     1      20.543   3.487  48.587  1.00  0.00     0.121 N 
HETATM   22  C19 UNL     1      21.421   4.273  49.321  1.00  0.00     0.286 A 
HETATM   23  O2  UNL     1      20.612   3.447  49.697  1.00  0.00    -0.149 OA
HETATM   24  C20 UNL     1      22.312   5.073  50.034  1.00  0.00     0.080 A 
HETATM   25  C21 UNL     1      21.729   4.218  51.025  1.00  0.00     0.078 C 
HETATM   26  C22 UNL     1      21.925   3.194  51.754  1.00  0.00     0.025 C 
HETATM   27  C23 UNL     1      19.499   2.429  48.538  1.00  0.00     0.404 C 
HETATM   28  H8  UNL     1      20.852   0.833  53.846  1.00  0.00     0.153 HD
HETATM   29  H22 UNL     1      22.691   7.017  48.614  1.00  0.00     0.154 HD
ENDROOT
BRANCH   9  30
HETATM   30  C8  UNL     1      25.266  -0.848  54.023  1.00  0.00     0.389 C 
HETATM   31  O1  UNL     1      25.293  -1.278  55.200  1.00  0.00    -0.405 OA
ENDBRANCH   9  30
TORSDOF 1
ENDMDL
MODEL 7
REMARK VINA RESULT:      -8.8      2.419      6.021
REMARK  1 active torsions:
REMARK  status: ('A' for Active; 'I' for Inactive)
REMARK    1  A    between atoms: C7_9  and  C8_10 
ROOT
HETATM    1  C1  UNL     1      25.482   6.210  49.076  1.00  0.00     0.144 C 
HETATM    2  N1  UNL     1      25.008   5.012  49.768  1.00  0.00    -0.391 N 
HETATM    3  C2  UNL     1      23.610   4.941  49.831  1.00  0.00     0.137 C 
HETATM    4  C3  UNL     1      23.029   5.965  50.816  1.00  0.00     0.133 C 
HETATM    5  N2  UNL     1      21.651   5.575  51.160  1.00  0.00    -0.414 N 
HETATM    6  C4  UNL     1      21.545   4.263  51.815  1.00  0.00     0.022 C 
HETATM    7  C5  UNL     1      20.303   4.024  51.345  1.00  0.00     0.107 C 
HETATM    8  C6  UNL     1      19.055   3.369  51.095  1.00  0.00    -0.006 C 
HETATM    9  C7  UNL     1      18.556   2.235  51.476  1.00  0.00    -0.016 C 
HETATM   10  C9  UNL     1      18.407   0.928  51.980  1.00  0.00     0.009 C 
HETATM   11  C10 UNL     1      19.014  -0.142  52.474  1.00  0.00    -0.020 C 
HETATM   12  C11 UNL     1      20.438  -0.352  52.701  1.00  0.00     0.020 C 
HETATM   13  C12 UNL     1      21.470  -1.064  53.109  1.00  0.00    -0.002 C 
HETATM   14  C13 UNL     1      22.931  -0.685  53.076  1.00  0.00     0.007 C 
HETATM   15  C14 UNL     1      23.547  -0.636  54.430  1.00  0.00     0.020 C 
HETATM   16  C15 UNL     1      25.019  -0.506  54.381  1.00  0.00     0.115 C 
HETATM   17  N3  UNL     1      25.592   0.680  53.841  1.00  0.00    -0.405 N 
HETATM   18  C16 UNL     1      25.688   1.676  52.749  1.00  0.00     0.120 A 
HETATM   19  C17 UNL     1      26.742   1.150  51.958  1.00  0.00     0.038 A 
HETATM   20  C18 UNL     1      26.793   2.044  50.831  1.00  0.00     0.242 A 
HETATM   21  N4  UNL     1      25.819   3.057  50.936  1.00  0.00     0.121 N 
HETATM   22  C19 UNL     1      25.228   2.708  52.143  1.00  0.00     0.286 A 
HETATM   23  O2  UNL     1      25.004   3.650  51.408  1.00  0.00    -0.149 OA
HETATM   24  C20 UNL     1      24.652   2.336  53.356  1.00  0.00     0.080 A 
HETATM   25  C21 UNL     1      23.871   3.455  52.919  1.00  0.00     0.078 C 
HETATM   26  C22 UNL     1      22.764   3.806  52.398  1.00  0.00     0.025 C 
HETATM   27  C23 UNL     1      25.899   3.961  49.758  1.00  0.00     0.404 C 
HETATM   28  H8  UNL     1      20.759   6.087  51.028  1.00  0.00     0.153 HD
HETATM   29  H22 UNL     1      26.370   1.043  54.502  1.00  0.00     0.154 HD
ENDROOT
BRANCH   9  30
HETATM   30  C8  UNL     1      17.423   2.758  50.660  1.00  0.00     0.389 C 
HETATM   31  O1  UNL     1      16.639   3.735  50.651  1.00  0.00    -0.405 OA
ENDBRANCH   9  30
TORSDOF 1
ENDMDL
MODEL 8
REMARK VINA RESULT:      -8.3      2.560      3.797
REMARK  1 active torsions:
REMARK  status: ('A' for Active; 'I' for Inactive)
REMARK    1  A    between atoms: C7_9  and  C8_10 
ROOT
HETATM    1  C1  UNL     1      19.545   5.970  48.393  1.00  0.00     0.144 C 
HETATM    2  N1  UNL     1      19.608   4.852  49.335  1.00  0.00    -0.391 N 
HETATM    3  C2  UNL     1      20.923   4.469  49.630  1.00  0.00     0.137 C 
HETATM    4  C3  UNL     1      21.591   3.752  48.448  1.00  0.00     0.133 C 
HETATM    5  N2  UNL     1      22.768   3.012  48.934  1.00  0.00    -0.414 N 
HETATM    6  C4  UNL     1      22.456   1.973  49.926  1.00  0.00     0.022 C 
HETATM    7  C5  UNL     1      23.656   2.064  50.536  1.00  0.00     0.107 C 
HETATM    8  C6  UNL     1      24.730   1.820  51.451  1.00  0.00    -0.006 C 
HETATM    9  C7  UNL     1      24.877   1.004  52.449  1.00  0.00    -0.016 C 
HETATM   10  C9  UNL     1      24.629   0.097  53.497  1.00  0.00     0.009 C 
HETATM   11  C10 UNL     1      23.715  -0.563  54.195  1.00  0.00    -0.020 C 
HETATM   12  C11 UNL     1      22.266  -0.530  54.050  1.00  0.00     0.020 C 
HETATM   13  C12 UNL     1      21.044  -0.906  54.372  1.00  0.00    -0.002 C 
HETATM   14  C13 UNL     1      19.740  -0.440  53.772  1.00  0.00     0.007 C 
HETATM   15  C14 UNL     1      18.968  -1.543  53.138  1.00  0.00     0.020 C 
HETATM   16  C15 UNL     1      17.595  -1.138  52.769  1.00  0.00     0.115 C 
HETATM   17  N3  UNL     1      17.411  -0.143  51.767  1.00  0.00    -0.405 N 
HETATM   18  C16 UNL     1      17.718   1.200  51.221  1.00  0.00     0.120 A 
HETATM   19  C17 UNL     1      16.691   1.995  51.792  1.00  0.00     0.038 A 
HETATM   20  C18 UNL     1      17.021   3.328  51.361  1.00  0.00     0.242 A 
HETATM   21  N4  UNL     1      18.188   3.336  50.570  1.00  0.00     0.121 N 
HETATM   22  C19 UNL     1      18.497   1.983  50.571  1.00  0.00     0.286 A 
HETATM   23  O2  UNL     1      19.047   2.908  50.007  1.00  0.00    -0.149 OA
HETATM   24  C20 UNL     1      18.787   0.619  50.588  1.00  0.00     0.080 A 
HETATM   25  C21 UNL     1      19.871   1.204  49.856  1.00  0.00     0.078 C 
HETATM   26  C22 UNL     1      21.092   1.556  49.920  1.00  0.00     0.025 C 
HETATM   27  C23 UNL     1      18.499   4.726  50.142  1.00  0.00     0.404 C 
HETATM   28  H8  UNL     1      23.768   3.101  48.672  1.00  0.00     0.153 HD
HETATM   29  H22 UNL     1      16.659  -0.472  51.060  1.00  0.00     0.154 HD
ENDROOT
BRANCH   9  30
HETATM   30  C8  UNL     1      26.207   1.677  52.462  1.00  0.00     0.389 C 
HETATM   31  O1  UNL     1      27.420   1.368  52.523  1.00  0.00    -0.405 OA
ENDBRANCH   9  30
TORSDOF 1
ENDMDL
MODEL 9
REMARK VINA RESULT:      -8.2      3.046      6.388
REMARK  1 active torsions:
REMARK  status: ('A' for Active; 'I' for Inactive)
REMARK    1  A    between atoms: C7_9  and  C8_10 
ROOT
HETATM    1  C1  UNL     1      18.075   3.810  46.945  1.00  0.00     0.144 C 
HETATM    2  N1  UNL     1      19.058   3.298  47.900  1.00  0.00    -0.391 N 
HETATM    3  C2  UNL     1      18.503   2.387  48.809  1.00  0.00     0.137 C 
HETATM    4  C3  UNL     1      17.594   3.081  49.832  1.00  0.00     0.133 C 
HETATM    5  N2  UNL     1      17.391   2.184  50.984  1.00  0.00    -0.414 N 
HETATM    6  C4  UNL     1      18.628   1.834  51.697  1.00  0.00     0.022 C 
HETATM    7  C5  UNL     1      18.163   0.637  52.108  1.00  0.00     0.107 C 
HETATM    8  C6  UNL     1      18.104  -0.647  52.740  1.00  0.00    -0.006 C 
HETATM    9  C7  UNL     1      18.946  -1.322  53.459  1.00  0.00    -0.016 C 
HETATM   10  C9  UNL     1      20.124  -1.783  54.080  1.00  0.00     0.009 C 
HETATM   11  C10 UNL     1      21.436  -1.639  54.208  1.00  0.00    -0.020 C 
HETATM   12  C11 UNL     1      22.311  -0.685  53.540  1.00  0.00     0.020 C 
HETATM   13  C12 UNL     1      23.486  -0.134  53.304  1.00  0.00    -0.002 C 
HETATM   14  C13 UNL     1      23.810   0.990  52.349  1.00  0.00     0.007 C 
HETATM   15  C14 UNL     1      24.367   2.188  53.033  1.00  0.00     0.020 C 
HETATM   16  C15 UNL     1      24.906   3.185  52.083  1.00  0.00     0.115 C 
HETATM   17  N3  UNL     1      24.016   3.843  51.189  1.00  0.00    -0.405 N 
HETATM   18  C16 UNL     1      22.942   3.779  50.170  1.00  0.00     0.120 A 
HETATM   19  C17 UNL     1      23.682   3.752  48.959  1.00  0.00     0.038 A 
HETATM   20  C18 UNL     1      22.668   3.588  47.951  1.00  0.00     0.242 A 
HETATM   21  N4  UNL     1      21.383   3.518  48.524  1.00  0.00     0.121 N 
HETATM   22  C19 UNL     1      21.703   3.648  49.869  1.00  0.00     0.286 A 
HETATM   23  O2  UNL     1      20.617   3.552  49.331  1.00  0.00    -0.149 OA
HETATM   24  C20 UNL     1      22.052   3.778  51.211  1.00  0.00     0.080 A 
HETATM   25  C21 UNL     1      20.633   3.578  51.230  1.00  0.00     0.078 C 
HETATM   26  C22 UNL     1      19.709   2.733  51.458  1.00  0.00     0.025 C 
HETATM   27  C23 UNL     1      20.361   3.349  47.457  1.00  0.00     0.404 C 
HETATM   28  H8  UNL     1      16.517   1.781  51.371  1.00  0.00     0.153 HD
HETATM   29  H22 UNL     1      24.211   4.908  51.197  1.00  0.00     0.154 HD
ENDROOT
BRANCH   9  30
HETATM   30  C8  UNL     1      17.792  -2.265  53.455  1.00  0.00     0.389 C 
HETATM   31  O1  UNL     1      16.703  -2.419  52.856  1.00  0.00    -0.405 OA
ENDBRANCH   9  30
TORSDOF 1
ENDMDL
