MODEL 1
REMARK VINA RESULT:      -9.3      0.000      0.000
REMARK  4 active torsions:
REMARK  status: ('A' for Active; 'I' for Inactive)
REMARK    1  A    between atoms: O1_2  and  C2_3 
REMARK    2  A    between atoms: N3_10  and  C7_11 
REMARK    3  A    between atoms: C10_14  and  C11_15 
REMARK    4  A    between atoms: C23_29  and  O2_30 
ROOT
HETATM    1  C7  UNL     1      21.353   1.254  51.790  1.00  0.00     0.037 A 
HETATM    2  C8  UNL     1      22.409   1.900  51.180  1.00  0.00     0.031 A 
HETATM    3  C9  UNL     1      23.734   1.651  51.407  1.00  0.00     0.016 A 
HETATM    4  C10 UNL     1      24.077   0.698  52.300  1.00  0.00     0.000 A 
HETATM    5  C18 UNL     1      23.098   0.020  52.942  1.00  0.00     0.023 A 
HETATM    6  C19 UNL     1      21.748   0.293  52.691  1.00  0.00    -0.035 A 
HETATM    7  C20 UNL     1      20.756  -0.492  53.443  1.00  0.00     0.050 C 
ENDROOT
BRANCH   1   8
HETATM    8  N3  UNL     1      20.024   1.593  51.485  1.00  0.00    -0.359 N 
HETATM    9  C6  UNL     1      19.509   2.728  52.236  1.00  0.00     0.275 C 
HETATM   10  N2  UNL     1      18.252   3.242  51.909  1.00  0.00    -0.266 NA
HETATM   11  C5  UNL     1      17.829   3.898  50.878  1.00  0.00     0.192 C 
HETATM   12  N1  UNL     1      16.452   4.189  51.049  1.00  0.00    -0.385 NA
HETATM   13  C4  UNL     1      15.651   3.286  51.470  1.00  0.00     0.270 C 
HETATM   14  C3  UNL     1      16.126   1.947  51.765  1.00  0.00     0.101 C 
HETATM   15  C2  UNL     1      15.607   0.877  52.326  1.00  0.00     0.088 C 
HETATM   16  C23 UNL     1      16.833   0.054  52.132  1.00  0.00     0.093 C 
HETATM   17  C22 UNL     1      17.936   0.441  51.471  1.00  0.00     0.032 C 
HETATM   18  C21 UNL     1      18.948   1.174  50.692  1.00  0.00     0.155 C 
BRANCH  15  19
HETATM   19  O1  UNL     1      14.554   0.165  52.962  1.00  0.00    -0.357 OA
HETATM   20  C1  UNL     1      13.471   0.962  53.435  1.00  0.00     0.209 C 
ENDBRANCH  15  19
BRANCH  16  21
HETATM   21  O2  UNL     1      16.769  -1.237  52.716  1.00  0.00    -0.358 OA
HETATM   22  H22 UNL     1      16.826  -1.409  53.692  1.00  0.00     0.217 HD
ENDBRANCH  16  21
ENDBRANCH   1   8
BRANCH   4  23
HETATM   23  C11 UNL     1      25.433   0.356  52.617  1.00  0.00     0.109 A 
HETATM   24  N4  UNL     1      26.183  -0.738  52.636  1.00  0.00    -0.240 NA
HETATM   25  C12 UNL     1      27.443  -0.570  53.013  1.00  0.00     0.075 A 
HETATM   26  C13 UNL     1      28.274  -1.666  53.053  1.00  0.00     0.033 A 
HETATM   27  C17 UNL     1      28.067   0.699  53.403  1.00  0.00     0.035 A 
HETATM   28  C14 UNL     1      29.591  -1.572  53.433  1.00  0.00     0.002 A 
HETATM   29  C15 UNL     1      30.170  -0.377  53.798  1.00  0.00     0.002 A 
HETATM   30  C16 UNL     1      29.428   0.774  53.791  1.00  0.00     0.021 A 
HETATM   31  S1  UNL     1      26.584   1.757  53.176  1.00  0.00    -0.068 SA
ENDBRANCH   4  23
TORSDOF 4
ENDMDL
MODEL 2
REMARK VINA RESULT:      -8.9      1.029      1.385
REMARK  4 active torsions:
REMARK  status: ('A' for Active; 'I' for Inactive)
REMARK    1  A    between atoms: O1_2  and  C2_3 
REMARK    2  A    between atoms: N3_10  and  C7_11 
REMARK    3  A    between atoms: C10_14  and  C11_15 
REMARK    4  A    between atoms: C23_29  and  O2_30 
ROOT
HETATM    1  C7  UNL     1      20.965   1.214  51.660  1.00  0.00     0.037 A 
HETATM    2  C8  UNL     1      21.963   1.686  50.832  1.00  0.00     0.031 A 
HETATM    3  C9  UNL     1      23.304   1.633  51.092  1.00  0.00     0.016 A 
HETATM    4  C10 UNL     1      23.726   1.080  52.248  1.00  0.00     0.000 A 
HETATM    5  C18 UNL     1      22.808   0.595  53.115  1.00  0.00     0.023 A 
HETATM    6  C19 UNL     1      21.439   0.660  52.826  1.00  0.00    -0.035 A 
HETATM    7  C20 UNL     1      20.516   0.113  53.833  1.00  0.00     0.050 C 
ENDROOT
BRANCH   1   8
HETATM    8  N3  UNL     1      19.612   1.323  51.297  1.00  0.00    -0.359 N 
HETATM    9  C6  UNL     1      19.012   2.612  51.605  1.00  0.00     0.275 C 
HETATM   10  N2  UNL     1      17.717   2.881  51.156  1.00  0.00    -0.266 NA
HETATM   11  C5  UNL     1      17.239   3.089  49.973  1.00  0.00     0.192 C 
HETATM   12  N1  UNL     1      15.844   3.321  50.072  1.00  0.00    -0.385 NA
HETATM   13  C4  UNL     1      15.118   2.576  50.816  1.00  0.00     0.270 C 
HETATM   14  C3  UNL     1      15.699   1.472  51.558  1.00  0.00     0.101 C 
HETATM   15  C2  UNL     1      15.269   0.643  52.483  1.00  0.00     0.088 C 
HETATM   16  C23 UNL     1      16.555  -0.104  52.558  1.00  0.00     0.093 C 
HETATM   17  C22 UNL     1      17.621   0.096  51.766  1.00  0.00     0.032 C 
HETATM   18  C21 UNL     1      18.568   0.569  50.743  1.00  0.00     0.155 C 
BRANCH  15  19
HETATM   19  O1  UNL     1      14.278   0.134  53.366  1.00  0.00    -0.357 OA
HETATM   20  C1  UNL     1      13.090   0.915  53.473  1.00  0.00     0.209 C 
ENDBRANCH  15  19
BRANCH  16  21
HETATM   21  O2  UNL     1      16.596  -1.098  53.569  1.00  0.00    -0.358 OA
HETATM   22  H22 UNL     1      17.111  -1.011  54.414  1.00  0.00     0.217 HD
ENDBRANCH  16  21
ENDBRANCH   1   8
BRANCH   4  23
HETATM   23  C11 UNL     1      25.106   0.975  52.622  1.00  0.00     0.109 A 
HETATM   24  N4  UNL     1      26.102   1.801  52.917  1.00  0.00    -0.240 NA
HETATM   25  C12 UNL     1      27.259   1.229  53.218  1.00  0.00     0.075 A 
HETATM   26  C13 UNL     1      28.332   2.032  53.534  1.00  0.00     0.033 A 
HETATM   27  C17 UNL     1      27.528  -0.212  53.254  1.00  0.00     0.035 A 
HETATM   28  C14 UNL     1      29.562   1.514  53.857  1.00  0.00     0.002 A 
HETATM   29  C15 UNL     1      29.807   0.159  53.889  1.00  0.00     0.002 A 
HETATM   30  C16 UNL     1      28.805  -0.726  53.591  1.00  0.00     0.021 A 
HETATM   31  S1  UNL     1      25.843  -0.766  52.778  1.00  0.00    -0.068 SA
ENDBRANCH   4  23
TORSDOF 4
ENDMDL
MODEL 3
REMARK VINA RESULT:      -8.6      6.084      7.436
REMARK  4 active torsions:
REMARK  status: ('A' for Active; 'I' for Inactive)
REMARK    1  A    between atoms: O1_2  and  C2_3 
REMARK    2  A    between atoms: N3_10  and  C7_11 
REMARK    3  A    between atoms: C10_14  and  C11_15 
REMARK    4  A    between atoms: C23_29  and  O2_30 
ROOT
HETATM    1  C7  UNL     1      24.818   4.118  49.824  1.00  0.00     0.037 A 
HETATM    2  C8  UNL     1      24.675   5.330  49.179  1.00  0.00     0.031 A 
HETATM    3  C9  UNL     1      25.687   6.058  48.617  1.00  0.00     0.016 A 
HETATM    4  C10 UNL     1      26.948   5.582  48.679  1.00  0.00     0.000 A 
HETATM    5  C18 UNL     1      27.172   4.399  49.296  1.00  0.00     0.023 A 
HETATM    6  C19 UNL     1      26.119   3.671  49.864  1.00  0.00    -0.035 A 
HETATM    7  C20 UNL     1      26.461   2.400  50.519  1.00  0.00     0.050 C 
ENDROOT
BRANCH   1   8
HETATM    8  N3  UNL     1      23.708   3.454  50.372  1.00  0.00    -0.359 N 
HETATM    9  C6  UNL     1      23.015   4.204  51.407  1.00  0.00     0.275 C 
HETATM   10  N2  UNL     1      21.814   3.704  51.917  1.00  0.00    -0.266 NA
HETATM   11  C5  UNL     1      20.636   3.588  51.395  1.00  0.00     0.192 C 
HETATM   12  N1  UNL     1      19.762   3.014  52.352  1.00  0.00    -0.385 NA
HETATM   13  C4  UNL     1      20.138   2.008  53.047  1.00  0.00     0.270 C 
HETATM   14  C3  UNL     1      21.453   1.424  52.861  1.00  0.00     0.101 C 
HETATM   15  C2  UNL     1      22.166   0.515  53.488  1.00  0.00     0.088 C 
HETATM   16  C23 UNL     1      23.308   0.604  52.537  1.00  0.00     0.093 C 
HETATM   17  C22 UNL     1      23.333   1.343  51.415  1.00  0.00     0.032 C 
HETATM   18  C21 UNL     1      23.016   2.238  50.290  1.00  0.00     0.155 C 
BRANCH  15  19
HETATM   19  O1  UNL     1      22.377  -0.437  54.522  1.00  0.00    -0.357 OA
HETATM   20  C1  UNL     1      21.531  -1.584  54.484  1.00  0.00     0.209 C 
ENDBRANCH  15  19
BRANCH  16  21
HETATM   21  O2  UNL     1      24.433  -0.180  52.898  1.00  0.00    -0.358 OA
HETATM   22  H22 UNL     1      24.557  -0.596  53.791  1.00  0.00     0.217 HD
ENDBRANCH  16  21
ENDBRANCH   1   8
BRANCH   4  23
HETATM   23  C11 UNL     1      28.083   6.262  48.126  1.00  0.00     0.109 A 
HETATM   24  N4  UNL     1      29.389   6.052  48.021  1.00  0.00    -0.240 NA
HETATM   25  C12 UNL     1      30.079   6.997  47.398  1.00  0.00     0.075 A 
HETATM   26  C13 UNL     1      31.439   6.839  47.255  1.00  0.00     0.033 A 
HETATM   27  C17 UNL     1      29.533   8.233  46.828  1.00  0.00     0.035 A 
HETATM   28  C14 UNL     1      32.221   7.774  46.623  1.00  0.00     0.002 A 
HETATM   29  C15 UNL     1      31.701   8.932  46.090  1.00  0.00     0.002 A 
HETATM   30  C16 UNL     1      30.358   9.185  46.179  1.00  0.00     0.021 A 
HETATM   31  S1  UNL     1      27.779   7.933  47.282  1.00  0.00    -0.068 SA
ENDBRANCH   4  23
TORSDOF 4
ENDMDL
MODEL 4
REMARK VINA RESULT:      -8.5      8.359     11.405
REMARK  4 active torsions:
REMARK  status: ('A' for Active; 'I' for Inactive)
REMARK    1  A    between atoms: O1_2  and  C2_3 
REMARK    2  A    between atoms: N3_10  and  C7_11 
REMARK    3  A    between atoms: C10_14  and  C11_15 
REMARK    4  A    between atoms: C23_29  and  O2_30 
ROOT
HETATM    1  C7  UNL     1      26.802   5.671  48.911  1.00  0.00     0.037 A 
HETATM    2  C8  UNL     1      27.210   4.352  48.920  1.00  0.00     0.031 A 
HETATM    3  C9  UNL     1      26.581   3.328  49.571  1.00  0.00     0.016 A 
HETATM    4  C10 UNL     1      25.461   3.592  50.278  1.00  0.00     0.000 A 
HETATM    5  C18 UNL     1      24.997   4.862  50.319  1.00  0.00     0.023 A 
HETATM    6  C19 UNL     1      25.659   5.894  49.643  1.00  0.00    -0.035 A 
HETATM    7  C20 UNL     1      25.083   7.243  49.753  1.00  0.00     0.050 C 
ENDROOT
BRANCH   1   8
HETATM    8  N3  UNL     1      27.528   6.648  48.210  1.00  0.00    -0.359 N 
HETATM    9  C6  UNL     1      28.964   6.417  48.175  1.00  0.00     0.275 C 
HETATM   10  N2  UNL     1      29.765   7.243  47.384  1.00  0.00    -0.266 NA
HETATM   11  C5  UNL     1      29.884   7.358  46.101  1.00  0.00     0.192 C 
HETATM   12  N1  UNL     1      30.851   8.355  45.815  1.00  0.00    -0.385 NA
HETATM   13  C4  UNL     1      30.839   9.465  46.450  1.00  0.00     0.270 C 
HETATM   14  C3  UNL     1      29.833   9.735  47.460  1.00  0.00     0.101 C 
HETATM   15  C2  UNL     1      29.640  10.679  48.354  1.00  0.00     0.088 C 
HETATM   16  C23 UNL     1      28.366  10.092  48.852  1.00  0.00     0.093 C 
HETATM   17  C22 UNL     1      27.745   9.020  48.332  1.00  0.00     0.032 C 
HETATM   18  C21 UNL     1      27.347   7.856  47.523  1.00  0.00     0.155 C 
BRANCH  15  19
HETATM   19  O1  UNL     1      29.997  11.881  49.023  1.00  0.00    -0.357 OA
HETATM   20  C1  UNL     1      29.701  13.087  48.322  1.00  0.00     0.209 C 
ENDBRANCH  15  19
BRANCH  16  21
HETATM   21  O2  UNL     1      27.808  10.764  49.969  1.00  0.00    -0.358 OA
HETATM   22  H22 UNL     1      28.284  11.461  50.492  1.00  0.00     0.217 HD
ENDBRANCH  16  21
ENDBRANCH   1   8
BRANCH   4  23
HETATM   23  C11 UNL     1      24.723   2.596  50.999  1.00  0.00     0.109 A 
HETATM   24  N4  UNL     1      23.489   2.111  51.003  1.00  0.00    -0.240 NA
HETATM   25  C12 UNL     1      23.247   1.150  51.884  1.00  0.00     0.075 A 
HETATM   26  C13 UNL     1      21.985   0.604  51.938  1.00  0.00     0.033 A 
HETATM   27  C17 UNL     1      24.210   0.589  52.838  1.00  0.00     0.035 A 
HETATM   28  C14 UNL     1      21.657  -0.394  52.823  1.00  0.00     0.002 A 
HETATM   29  C15 UNL     1      22.567  -0.916  53.715  1.00  0.00     0.002 A 
HETATM   30  C16 UNL     1      23.851  -0.441  53.742  1.00  0.00     0.021 A 
HETATM   31  S1  UNL     1      25.642   1.629  52.348  1.00  0.00    -0.068 SA
ENDBRANCH   4  23
TORSDOF 4
ENDMDL
MODEL 5
REMARK VINA RESULT:      -8.4      2.462      3.271
REMARK  4 active torsions:
REMARK  status: ('A' for Active; 'I' for Inactive)
REMARK    1  A    between atoms: O1_2  and  C2_3 
REMARK    2  A    between atoms: N3_10  and  C7_11 
REMARK    3  A    between atoms: C10_14  and  C11_15 
REMARK    4  A    between atoms: C23_29  and  O2_30 
ROOT
HETATM    1  C7  UNL     1      21.401   1.706  51.935  1.00  0.00     0.037 A 
HETATM    2  C8  UNL     1      22.454   2.029  51.104  1.00  0.00     0.031 A 
HETATM    3  C9  UNL     1      23.755   1.647  51.282  1.00  0.00     0.016 A 
HETATM    4  C10 UNL     1      24.074   0.889  52.352  1.00  0.00     0.000 A 
HETATM    5  C18 UNL     1      23.097   0.530  53.216  1.00  0.00     0.023 A 
HETATM    6  C19 UNL     1      21.771   0.933  53.012  1.00  0.00    -0.035 A 
HETATM    7  C20 UNL     1      20.780   0.501  54.009  1.00  0.00     0.050 C 
ENDROOT
BRANCH   1   8
HETATM    8  N3  UNL     1      20.099   2.156  51.661  1.00  0.00    -0.359 N 
HETATM    9  C6  UNL     1      19.325   1.265  50.810  1.00  0.00     0.275 C 
HETATM   10  N2  UNL     1      17.972   1.540  50.593  1.00  0.00    -0.266 NA
HETATM   11  C5  UNL     1      16.943   1.476  51.373  1.00  0.00     0.192 C 
HETATM   12  N1  UNL     1      15.789   1.862  50.647  1.00  0.00    -0.385 NA
HETATM   13  C4  UNL     1      15.819   2.893  49.890  1.00  0.00     0.270 C 
HETATM   14  C3  UNL     1      17.023   3.694  49.770  1.00  0.00     0.101 C 
HETATM   15  C2  UNL     1      17.408   4.688  49.000  1.00  0.00     0.088 C 
HETATM   16  C23 UNL     1      18.735   4.823  49.662  1.00  0.00     0.093 C 
HETATM   17  C22 UNL     1      19.141   4.138  50.743  1.00  0.00     0.032 C 
HETATM   18  C21 UNL     1      19.247   3.241  51.907  1.00  0.00     0.155 C 
BRANCH  15  19
HETATM   19  O1  UNL     1      17.212   5.625  47.950  1.00  0.00    -0.357 OA
HETATM   20  C1  UNL     1      16.464   5.151  46.833  1.00  0.00     0.209 C 
ENDBRANCH  15  19
BRANCH  16  21
HETATM   21  O2  UNL     1      19.598   5.771  49.055  1.00  0.00    -0.358 OA
HETATM   22  H22 UNL     1      20.498   5.555  48.697  1.00  0.00     0.217 HD
ENDBRANCH  16  21
ENDBRANCH   1   8
BRANCH   4  23
HETATM   23  C11 UNL     1      25.404   0.434  52.636  1.00  0.00     0.109 A 
HETATM   24  N4  UNL     1      26.062  -0.718  52.633  1.00  0.00    -0.240 NA
HETATM   25  C12 UNL     1      27.339  -0.657  52.981  1.00  0.00     0.075 A 
HETATM   26  C13 UNL     1      28.077  -1.819  52.998  1.00  0.00     0.033 A 
HETATM   27  C17 UNL     1      28.074   0.553  53.363  1.00  0.00     0.035 A 
HETATM   28  C14 UNL     1      29.406  -1.837  53.348  1.00  0.00     0.002 A 
HETATM   29  C15 UNL     1      30.089  -0.696  53.705  1.00  0.00     0.002 A 
HETATM   30  C16 UNL     1      29.445   0.513  53.720  1.00  0.00     0.021 A 
HETATM   31  S1  UNL     1      26.679   1.732  53.174  1.00  0.00    -0.068 SA
ENDBRANCH   4  23
TORSDOF 4
ENDMDL
MODEL 6
REMARK VINA RESULT:      -8.4      8.966     12.830
REMARK  4 active torsions:
REMARK  status: ('A' for Active; 'I' for Inactive)
REMARK    1  A    between atoms: O1_2  and  C2_3 
REMARK    2  A    between atoms: N3_10  and  C7_11 
REMARK    3  A    between atoms: C10_14  and  C11_15 
REMARK    4  A    between atoms: C23_29  and  O2_30 
ROOT
HETATM    1  C7  UNL     1      27.720   6.450  48.530  1.00  0.00     0.037 A 
HETATM    2  C8  UNL     1      27.965   5.097  48.646  1.00  0.00     0.031 A 
HETATM    3  C9  UNL     1      27.039   4.145  48.971  1.00  0.00     0.016 A 
HETATM    4  C10 UNL     1      25.766   4.524  49.207  1.00  0.00     0.000 A 
HETATM    5  C18 UNL     1      25.445   5.835  49.115  1.00  0.00     0.023 A 
HETATM    6  C19 UNL     1      26.411   6.792  48.779  1.00  0.00    -0.035 A 
HETATM    7  C20 UNL     1      25.969   8.193  48.710  1.00  0.00     0.050 C 
ENDROOT
BRANCH   1   8
HETATM    8  N3  UNL     1      28.749   7.346  48.194  1.00  0.00    -0.359 N 
HETATM    9  C6  UNL     1      28.971   7.491  46.764  1.00  0.00     0.275 C 
HETATM   10  N2  UNL     1      29.868   8.463  46.313  1.00  0.00    -0.266 NA
HETATM   11  C5  UNL     1      29.807   9.754  46.302  1.00  0.00     0.192 C 
HETATM   12  N1  UNL     1      30.995  10.267  45.722  1.00  0.00    -0.385 NA
HETATM   13  C4  UNL     1      32.134   9.791  46.059  1.00  0.00     0.270 C 
HETATM   14  C3  UNL     1      32.236   8.732  47.045  1.00  0.00     0.101 C 
HETATM   15  C2  UNL     1      33.204   7.960  47.486  1.00  0.00     0.088 C 
HETATM   16  C23 UNL     1      32.338   7.263  48.477  1.00  0.00     0.093 C 
HETATM   17  C22 UNL     1      31.059   7.568  48.746  1.00  0.00     0.032 C 
HETATM   18  C21 UNL     1      29.715   8.169  48.789  1.00  0.00     0.155 C 
BRANCH  15  19
HETATM   19  O1  UNL     1      34.549   7.498  47.501  1.00  0.00    -0.357 OA
HETATM   20  C1  UNL     1      35.491   8.368  48.125  1.00  0.00     0.209 C 
ENDBRANCH  15  19
BRANCH  16  21
HETATM   21  O2  UNL     1      32.975   6.197  49.163  1.00  0.00    -0.358 OA
HETATM   22  H22 UNL     1      32.850   5.238  48.938  1.00  0.00     0.217 HD
ENDBRANCH  16  21
ENDBRANCH   1   8
BRANCH   4  23
HETATM   23  C11 UNL     1      24.716   3.612  49.557  1.00  0.00     0.109 A 
HETATM   24  N4  UNL     1      23.628   3.113  48.985  1.00  0.00    -0.240 NA
HETATM   25  C12 UNL     1      22.926   2.262  49.719  1.00  0.00     0.075 A 
HETATM   26  C13 UNL     1      21.785   1.708  49.183  1.00  0.00     0.033 A 
HETATM   27  C17 UNL     1      23.243   1.832  51.085  1.00  0.00     0.035 A 
HETATM   28  C14 UNL     1      21.006   0.819  49.882  1.00  0.00     0.002 A 
HETATM   29  C15 UNL     1      21.311   0.420  51.164  1.00  0.00     0.002 A 
HETATM   30  C16 UNL     1      22.426   0.912  51.788  1.00  0.00     0.021 A 
HETATM   31  S1  UNL     1      24.775   2.825  51.282  1.00  0.00    -0.068 SA
ENDBRANCH   4  23
TORSDOF 4
ENDMDL
MODEL 7
REMARK VINA RESULT:      -8.3      2.430      3.056
REMARK  4 active torsions:
REMARK  status: ('A' for Active; 'I' for Inactive)
REMARK    1  A    between atoms: O1_2  and  C2_3 
REMARK    2  A    between atoms: N3_10  and  C7_11 
REMARK    3  A    between atoms: C10_14  and  C11_15 
REMARK    4  A    between atoms: C23_29  and  O2_30 
ROOT
HETATM    1  C7  UNL     1      20.579   0.678  52.162  1.00  0.00     0.037 A 
HETATM    2  C8  UNL     1      21.090   0.360  53.404  1.00  0.00     0.031 A 
HETATM    3  C9  UNL     1      22.417   0.256  53.716  1.00  0.00     0.016 A 
HETATM    4  C10 UNL     1      23.335   0.476  52.752  1.00  0.00     0.000 A 
HETATM    5  C18 UNL     1      22.914   0.792  51.506  1.00  0.00     0.023 A 
HETATM    6  C19 UNL     1      21.548   0.893  51.210  1.00  0.00    -0.035 A 
HETATM    7  C20 UNL     1      21.187   1.235  49.826  1.00  0.00     0.050 C 
ENDROOT
BRANCH   1   8
HETATM    8  N3  UNL     1      19.192   0.754  51.948  1.00  0.00    -0.359 N 
HETATM    9  C6  UNL     1      18.534  -0.539  51.832  1.00  0.00     0.275 C 
HETATM   10  N2  UNL     1      17.139  -0.585  51.765  1.00  0.00    -0.266 NA
HETATM   11  C5  UNL     1      16.224  -0.344  52.646  1.00  0.00     0.192 C 
HETATM   12  N1  UNL     1      14.951  -0.546  52.057  1.00  0.00    -0.385 NA
HETATM   13  C4  UNL     1      14.701  -0.084  50.890  1.00  0.00     0.270 C 
HETATM   14  C3  UNL     1      15.702   0.665  50.155  1.00  0.00     0.101 C 
HETATM   15  C2  UNL     1      15.804   1.130  48.929  1.00  0.00     0.088 C 
HETATM   16  C23 UNL     1      17.135   1.755  49.166  1.00  0.00     0.093 C 
HETATM   17  C22 UNL     1      17.773   1.808  50.347  1.00  0.00     0.032 C 
HETATM   18  C21 UNL     1      18.168   1.692  51.761  1.00  0.00     0.155 C 
BRANCH  15  19
HETATM   19  O1  UNL     1      15.324   1.330  47.607  1.00  0.00    -0.357 OA
HETATM   20  C1  UNL     1      14.426   0.334  47.121  1.00  0.00     0.209 C 
ENDBRANCH  15  19
BRANCH  16  21
HETATM   21  O2  UNL     1      17.727   2.326  48.011  1.00  0.00    -0.358 OA
HETATM   22  H22 UNL     1      17.720   1.900  47.114  1.00  0.00     0.217 HD
ENDBRANCH  16  21
ENDBRANCH   1   8
BRANCH   4  23
HETATM   23  C11 UNL     1      24.751   0.393  52.967  1.00  0.00     0.109 A 
HETATM   24  N4  UNL     1      25.688  -0.546  52.932  1.00  0.00    -0.240 NA
HETATM   25  C12 UNL     1      26.920  -0.145  53.214  1.00  0.00     0.075 A 
HETATM   26  C13 UNL     1      27.938  -1.071  53.193  1.00  0.00     0.033 A 
HETATM   27  C17 UNL     1      27.327   1.222  53.557  1.00  0.00     0.035 A 
HETATM   28  C14 UNL     1      29.239  -0.732  53.475  1.00  0.00     0.002 A 
HETATM   29  C15 UNL     1      29.614   0.553  53.796  1.00  0.00     0.002 A 
HETATM   30  C16 UNL     1      28.675   1.550  53.843  1.00  0.00     0.021 A 
HETATM   31  S1  UNL     1      25.662   1.988  53.439  1.00  0.00    -0.068 SA
ENDBRANCH   4  23
TORSDOF 4
ENDMDL
MODEL 8
REMARK VINA RESULT:      -8.2      8.247     11.057
REMARK  4 active torsions:
REMARK  status: ('A' for Active; 'I' for Inactive)
REMARK    1  A    between atoms: O1_2  and  C2_3 
REMARK    2  A    between atoms: N3_10  and  C7_11 
REMARK    3  A    between atoms: C10_14  and  C11_15 
REMARK    4  A    between atoms: C23_29  and  O2_30 
ROOT
HETATM    1  C7  UNL     1      25.566   6.466  49.765  1.00  0.00     0.037 A 
HETATM    2  C8  UNL     1      26.081   5.196  49.606  1.00  0.00     0.031 A 
HETATM    3  C9  UNL     1      25.592   4.059  50.187  1.00  0.00     0.016 A 
HETATM    4  C10 UNL     1      24.512   4.149  50.992  1.00  0.00     0.000 A 
HETATM    5  C18 UNL     1      23.949   5.361  51.200  1.00  0.00     0.023 A 
HETATM    6  C19 UNL     1      24.469   6.511  50.593  1.00  0.00    -0.035 A 
HETATM    7  C20 UNL     1      23.793   7.784  50.884  1.00  0.00     0.050 C 
ENDROOT
BRANCH   1   8
HETATM    8  N3  UNL     1      26.152   7.570  49.123  1.00  0.00    -0.359 N 
HETATM    9  C6  UNL     1      26.233   7.446  47.676  1.00  0.00     0.275 C 
HETATM   10  N2  UNL     1      26.662   8.544  46.925  1.00  0.00    -0.266 NA
HETATM   11  C5  UNL     1      26.106   9.682  46.665  1.00  0.00     0.192 C 
HETATM   12  N1  UNL     1      26.974  10.443  45.842  1.00  0.00    -0.385 NA
HETATM   13  C4  UNL     1      28.223  10.509  46.112  1.00  0.00     0.270 C 
HETATM   14  C3  UNL     1      28.773   9.825  47.267  1.00  0.00     0.101 C 
HETATM   15  C2  UNL     1      29.985   9.587  47.719  1.00  0.00     0.088 C 
HETATM   16  C23 UNL     1      29.503   8.875  48.935  1.00  0.00     0.093 C 
HETATM   17  C22 UNL     1      28.219   8.745  49.306  1.00  0.00     0.032 C 
HETATM   18  C21 UNL     1      26.751   8.804  49.408  1.00  0.00     0.155 C 
BRANCH  15  19
HETATM   19  O1  UNL     1      31.402   9.667  47.646  1.00  0.00    -0.357 OA
HETATM   20  C1  UNL     1      31.934  10.971  47.423  1.00  0.00     0.209 C 
ENDBRANCH  15  19
BRANCH  16  21
HETATM   21  O2  UNL     1      30.534   8.310  49.729  1.00  0.00    -0.358 OA
HETATM   22  H22 UNL     1      31.418   8.736  49.878  1.00  0.00     0.217 HD
ENDBRANCH  16  21
ENDBRANCH   1   8
BRANCH   4  23
HETATM   23  C11 UNL     1      23.918   3.023  51.653  1.00  0.00     0.109 A 
HETATM   24  N4  UNL     1      22.708   2.659  52.058  1.00  0.00    -0.240 NA
HETATM   25  C12 UNL     1      22.628   1.475  52.650  1.00  0.00     0.075 A 
HETATM   26  C13 UNL     1      21.400   1.038  53.093  1.00  0.00     0.033 A 
HETATM   27  C17 UNL     1      23.742   0.551  52.890  1.00  0.00     0.035 A 
HETATM   28  C14 UNL     1      21.237  -0.176  53.715  1.00  0.00     0.002 A 
HETATM   29  C15 UNL     1      22.288  -1.038  53.937  1.00  0.00     0.002 A 
HETATM   30  C16 UNL     1      23.551  -0.697  53.533  1.00  0.00     0.021 A 
HETATM   31  S1  UNL     1      25.058   1.587  52.138  1.00  0.00    -0.068 SA
ENDBRANCH   4  23
TORSDOF 4
ENDMDL
MODEL 9
REMARK VINA RESULT:      -7.9      6.796      8.068
REMARK  4 active torsions:
REMARK  status: ('A' for Active; 'I' for Inactive)
REMARK    1  A    between atoms: O1_2  and  C2_3 
REMARK    2  A    between atoms: N3_10  and  C7_11 
REMARK    3  A    between atoms: C10_14  and  C11_15 
REMARK    4  A    between atoms: C23_29  and  O2_30 
ROOT
HETATM    1  C7  UNL     1      25.227   5.164  49.136  1.00  0.00     0.037 A 
HETATM    2  C8  UNL     1      25.226   6.429  48.585  1.00  0.00     0.031 A 
HETATM    3  C9  UNL     1      26.315   7.073  48.065  1.00  0.00     0.016 A 
HETATM    4  C10 UNL     1      27.511   6.447  48.075  1.00  0.00     0.000 A 
HETATM    5  C18 UNL     1      27.595   5.203  48.599  1.00  0.00     0.023 A 
HETATM    6  C19 UNL     1      26.465   4.564  49.125  1.00  0.00    -0.035 A 
HETATM    7  C20 UNL     1      26.657   3.215  49.680  1.00  0.00     0.050 C 
ENDROOT
BRANCH   1   8
HETATM    8  N3  UNL     1      24.048   4.596  49.647  1.00  0.00    -0.359 N 
HETATM    9  C6  UNL     1      23.395   5.397  50.671  1.00  0.00     0.275 C 
HETATM   10  N2  UNL     1      22.141   5.001  51.143  1.00  0.00    -0.266 NA
HETATM   11  C5  UNL     1      20.973   4.992  50.589  1.00  0.00     0.192 C 
HETATM   12  N1  UNL     1      20.025   4.491  51.517  1.00  0.00    -0.385 NA
HETATM   13  C4  UNL     1      20.292   3.451  52.212  1.00  0.00     0.270 C 
HETATM   14  C3  UNL     1      21.556   2.756  52.056  1.00  0.00     0.101 C 
HETATM   15  C2  UNL     1      22.169   1.783  52.694  1.00  0.00     0.088 C 
HETATM   16  C23 UNL     1      23.340   1.778  51.775  1.00  0.00     0.093 C 
HETATM   17  C22 UNL     1      23.461   2.519  50.662  1.00  0.00     0.032 C 
HETATM   18  C21 UNL     1      23.255   3.446  49.536  1.00  0.00     0.155 C 
BRANCH  15  19
HETATM   19  O1  UNL     1      22.267   0.809  53.725  1.00  0.00    -0.357 OA
HETATM   20  C1  UNL     1      21.081   0.058  53.977  1.00  0.00     0.209 C 
ENDBRANCH  15  19
BRANCH  16  21
HETATM   21  O2  UNL     1      24.382   0.895  52.159  1.00  0.00    -0.358 OA
HETATM   22  H22 UNL     1      25.214   0.756  51.635  1.00  0.00     0.217 HD
ENDBRANCH  16  21
ENDBRANCH   1   8
BRANCH   4  23
HETATM   23  C11 UNL     1      28.716   7.028  47.559  1.00  0.00     0.109 A 
HETATM   24  N4  UNL     1      29.073   7.767  46.516  1.00  0.00    -0.240 NA
HETATM   25  C12 UNL     1      30.358   8.084  46.443  1.00  0.00     0.075 A 
HETATM   26  C13 UNL     1      30.792   8.849  45.385  1.00  0.00     0.033 A 
HETATM   27  C17 UNL     1      31.400   7.694  47.399  1.00  0.00     0.035 A 
HETATM   28  C14 UNL     1      32.108   9.218  45.240  1.00  0.00     0.002 A 
HETATM   29  C15 UNL     1      33.080   8.849  46.143  1.00  0.00     0.002 A 
HETATM   30  C16 UNL     1      32.751   8.087  47.232  1.00  0.00     0.021 A 
HETATM   31  S1  UNL     1      30.317   6.743  48.536  1.00  0.00    -0.068 SA
ENDBRANCH   4  23
TORSDOF 4
ENDMDL
