MODEL 1
REMARK VINA RESULT:      -6.9      0.000      0.000
REMARK  5 active torsions:
REMARK  status: ('A' for Active; 'I' for Inactive)
REMARK    1  A    between atoms: C2_2  and  N1_3 
REMARK    2  A    between atoms: N1_3  and  C4_5 
REMARK    3  A    between atoms: C4_5  and  N2_6 
REMARK    4  A    between atoms: C9_11  and  C10_12 
REMARK       I    between atoms: C10_12  and  N3_14 
REMARK    5  A    between atoms: N3_14  and  C11_15 
ROOT
HETATM    1  N2  UNL     1      25.456   0.253  53.085  1.00  0.00    -0.377 N 
HETATM    2  C5  UNL     1      24.757  -0.575  53.961  1.00  0.00     0.147 C 
HETATM    3  C6  UNL     1      23.276  -0.548  53.867  1.00  0.00    -0.008 C 
HETATM    4  C7  UNL     1      22.489   0.316  53.247  1.00  0.00    -0.002 C 
HETATM    5  C8  UNL     1      22.941   1.478  52.491  1.00  0.00     0.014 C 
HETATM    6  C9  UNL     1      24.098   2.133  52.381  1.00  0.00     0.032 C 
HETATM    7  C16 UNL     1      25.258   1.651  53.166  1.00  0.00     0.116 C 
HETATM    8  C17 UNL     1      26.513   2.434  52.984  1.00  0.00     0.037 C 
ENDROOT
BRANCH   6   9
HETATM    9  C10 UNL     1      24.250   3.292  51.521  1.00  0.00     0.254 C 
HETATM   10  O1  UNL     1      24.053   4.463  51.920  1.00  0.00    -0.268 OA
HETATM   11  N3  UNL     1      24.623   3.279  50.178  1.00  0.00    -0.323 N 
HETATM   12  H16 UNL     1      24.827   2.390  49.677  1.00  0.00     0.169 HD
BRANCH  11  13
HETATM   13  C11 UNL     1      24.713   4.555  49.510  1.00  0.00     0.041 A 
HETATM   14  C12 UNL     1      24.112   5.652  49.074  1.00  0.00     0.031 A 
HETATM   15  C13 UNL     1      25.318   6.216  48.543  1.00  0.00     0.011 A 
HETATM   16  C14 UNL     1      25.956   5.137  48.963  1.00  0.00    -0.035 A 
HETATM   17  C15 UNL     1      27.416   4.808  48.837  1.00  0.00     0.050 C 
ENDBRANCH  11  13
ENDBRANCH   6   9
BRANCH   1  18
HETATM   18  C4  UNL     1      26.521  -0.274  52.346  1.00  0.00     0.393 C 
BRANCH  18  19
HETATM   19  N1  UNL     1      27.298  -1.182  53.204  1.00  0.00     0.100 N 
HETATM   20  C3  UNL     1      27.412  -2.476  52.539  1.00  0.00     0.311 C 
BRANCH  19  21
HETATM   21  C2  UNL     1      28.635  -0.608  53.417  1.00  0.00     0.269 C 
HETATM   22  C1  UNL     1      28.679   0.039  54.766  1.00  0.00     0.037 C 
ENDBRANCH  19  21
ENDBRANCH  18  19
ENDBRANCH   1  18
TORSDOF 5
ENDMDL
MODEL 2
REMARK VINA RESULT:      -6.7      2.264      6.582
REMARK  5 active torsions:
REMARK  status: ('A' for Active; 'I' for Inactive)
REMARK    1  A    between atoms: C2_2  and  N1_3 
REMARK    2  A    between atoms: N1_3  and  C4_5 
REMARK    3  A    between atoms: C4_5  and  N2_6 
REMARK    4  A    between atoms: C9_11  and  C10_12 
REMARK       I    between atoms: C10_12  and  N3_14 
REMARK    5  A    between atoms: N3_14  and  C11_15 
ROOT
HETATM    1  N2  UNL     1      23.616   3.270  50.396  1.00  0.00    -0.377 N 
HETATM    2  C5  UNL     1      23.396   4.442  49.676  1.00  0.00     0.147 C 
HETATM    3  C6  UNL     1      24.567   5.026  48.975  1.00  0.00    -0.008 C 
HETATM    4  C7  UNL     1      25.853   4.749  49.113  1.00  0.00    -0.002 C 
HETATM    5  C8  UNL     1      26.410   3.762  50.031  1.00  0.00     0.014 C 
HETATM    6  C9  UNL     1      25.936   3.078  51.073  1.00  0.00     0.032 C 
HETATM    7  C16 UNL     1      24.527   3.297  51.477  1.00  0.00     0.116 C 
HETATM    8  C17 UNL     1      24.073   2.492  52.647  1.00  0.00     0.037 C 
ENDROOT
BRANCH   6   9
HETATM    9  C10 UNL     1      26.753   2.136  51.814  1.00  0.00     0.254 C 
HETATM   10  O1  UNL     1      26.779   0.911  51.554  1.00  0.00    -0.268 OA
HETATM   11  N3  UNL     1      27.597   2.437  52.882  1.00  0.00    -0.323 N 
HETATM   12  H16 UNL     1      27.702   3.410  53.237  1.00  0.00     0.169 HD
BRANCH  11  13
HETATM   13  C11 UNL     1      28.321   1.339  53.475  1.00  0.00     0.041 A 
HETATM   14  C12 UNL     1      29.446   0.648  53.581  1.00  0.00     0.031 A 
HETATM   15  C13 UNL     1      28.904  -0.272  54.537  1.00  0.00     0.011 A 
HETATM   16  C14 UNL     1      27.763   0.391  54.461  1.00  0.00    -0.035 A 
HETATM   17  C15 UNL     1      26.477   0.124  55.192  1.00  0.00     0.050 C 
ENDBRANCH  11  13
ENDBRANCH   6   9
BRANCH   1  18
HETATM   18  C4  UNL     1      22.752   2.184  50.219  1.00  0.00     0.393 C 
BRANCH  18  19
HETATM   19  N1  UNL     1      21.413   2.687  49.875  1.00  0.00     0.100 N 
HETATM   20  C3  UNL     1      20.949   2.007  48.670  1.00  0.00     0.311 C 
BRANCH  19  21
HETATM   21  C2  UNL     1      20.498   2.408  50.992  1.00  0.00     0.269 C 
HETATM   22  C1  UNL     1      20.509   3.571  51.935  1.00  0.00     0.037 C 
ENDBRANCH  19  21
ENDBRANCH  18  19
ENDBRANCH   1  18
TORSDOF 5
ENDMDL
MODEL 3
REMARK VINA RESULT:      -6.4      1.519      2.071
REMARK  5 active torsions:
REMARK  status: ('A' for Active; 'I' for Inactive)
REMARK    1  A    between atoms: C2_2  and  N1_3 
REMARK    2  A    between atoms: N1_3  and  C4_5 
REMARK    3  A    between atoms: C4_5  and  N2_6 
REMARK    4  A    between atoms: C9_11  and  C10_12 
REMARK       I    between atoms: C10_12  and  N3_14 
REMARK    5  A    between atoms: N3_14  and  C11_15 
ROOT
HETATM    1  N2  UNL     1      24.566   0.428  53.085  1.00  0.00    -0.377 N 
HETATM    2  C5  UNL     1      23.978  -0.522  53.918  1.00  0.00     0.147 C 
HETATM    3  C6  UNL     1      22.608  -0.967  53.561  1.00  0.00    -0.008 C 
HETATM    4  C7  UNL     1      21.746  -0.434  52.712  1.00  0.00    -0.002 C 
HETATM    5  C8  UNL     1      21.980   0.761  51.911  1.00  0.00     0.014 C 
HETATM    6  C9  UNL     1      22.888   1.739  51.927  1.00  0.00     0.032 C 
HETATM    7  C16 UNL     1      23.952   1.695  52.958  1.00  0.00     0.116 C 
HETATM    8  C17 UNL     1      24.928   2.819  52.906  1.00  0.00     0.037 C 
ENDROOT
BRANCH   6   9
HETATM    9  C10 UNL     1      22.864   2.831  50.972  1.00  0.00     0.254 C 
HETATM   10  O1  UNL     1      22.166   3.858  51.134  1.00  0.00    -0.268 OA
HETATM   11  N3  UNL     1      23.585   2.901  49.781  1.00  0.00    -0.323 N 
HETATM   12  H16 UNL     1      24.221   2.133  49.482  1.00  0.00     0.169 HD
BRANCH  11  13
HETATM   13  C11 UNL     1      23.410   4.087  48.978  1.00  0.00     0.041 A 
HETATM   14  C12 UNL     1      23.736   5.346  48.729  1.00  0.00     0.031 A 
HETATM   15  C13 UNL     1      22.841   5.458  47.615  1.00  0.00     0.011 A 
HETATM   16  C14 UNL     1      22.488   4.203  47.829  1.00  0.00    -0.035 A 
HETATM   17  C15 UNL     1      21.494   3.371  47.070  1.00  0.00     0.050 C 
ENDBRANCH  11  13
ENDBRANCH   6   9
BRANCH   1  18
HETATM   18  C4  UNL     1      25.867   0.217  52.616  1.00  0.00     0.393 C 
BRANCH  18  19
HETATM   19  N1  UNL     1      26.549  -0.738  53.504  1.00  0.00     0.100 N 
HETATM   20  C3  UNL     1      27.090  -1.827  52.697  1.00  0.00     0.311 C 
BRANCH  19  21
HETATM   21  C2  UNL     1      27.640  -0.042  54.204  1.00  0.00     0.269 C 
HETATM   22  C1  UNL     1      28.945  -0.665  53.817  1.00  0.00     0.037 C 
ENDBRANCH  19  21
ENDBRANCH  18  19
ENDBRANCH   1  18
TORSDOF 5
ENDMDL
MODEL 4
REMARK VINA RESULT:      -6.4      2.480      7.041
REMARK  5 active torsions:
REMARK  status: ('A' for Active; 'I' for Inactive)
REMARK    1  A    between atoms: C2_2  and  N1_3 
REMARK    2  A    between atoms: N1_3  and  C4_5 
REMARK    3  A    between atoms: C4_5  and  N2_6 
REMARK    4  A    between atoms: C9_11  and  C10_12 
REMARK       I    between atoms: C10_12  and  N3_14 
REMARK    5  A    between atoms: N3_14  and  C11_15 
ROOT
HETATM    1  N2  UNL     1      23.939   4.737  49.908  1.00  0.00    -0.377 N 
HETATM    2  C5  UNL     1      24.895   5.473  49.212  1.00  0.00     0.147 C 
HETATM    3  C6  UNL     1      26.218   4.832  49.014  1.00  0.00    -0.008 C 
HETATM    4  C7  UNL     1      26.729   3.762  49.600  1.00  0.00    -0.002 C 
HETATM    5  C8  UNL     1      26.059   2.952  50.611  1.00  0.00     0.014 C 
HETATM    6  C9  UNL     1      24.978   3.113  51.376  1.00  0.00     0.032 C 
HETATM    7  C16 UNL     1      24.204   4.370  51.248  1.00  0.00     0.116 C 
HETATM    8  C17 UNL     1      23.010   4.469  52.133  1.00  0.00     0.037 C 
ENDROOT
BRANCH   6   9
HETATM    9  C10 UNL     1      24.543   2.100  52.320  1.00  0.00     0.254 C 
HETATM   10  O1  UNL     1      24.950   2.058  53.504  1.00  0.00    -0.268 OA
HETATM   11  N3  UNL     1      23.645   1.066  52.064  1.00  0.00    -0.323 N 
HETATM   12  H16 UNL     1      23.204   0.945  51.129  1.00  0.00     0.169 HD
BRANCH  11  13
HETATM   13  C11 UNL     1      23.352   0.167  53.154  1.00  0.00     0.041 A 
HETATM   14  C12 UNL     1      23.763  -0.775  53.990  1.00  0.00     0.031 A 
HETATM   15  C13 UNL     1      22.494  -0.881  54.646  1.00  0.00     0.011 A 
HETATM   16  C14 UNL     1      22.044   0.057  53.832  1.00  0.00    -0.035 A 
HETATM   17  C15 UNL     1      20.669   0.661  53.773  1.00  0.00     0.050 C 
ENDBRANCH  11  13
ENDBRANCH   6   9
BRANCH   1  18
HETATM   18  C4  UNL     1      22.649   4.612  49.378  1.00  0.00     0.393 C 
BRANCH  18  19
HETATM   19  N1  UNL     1      22.705   3.773  48.170  1.00  0.00     0.100 N 
HETATM   20  C3  UNL     1      22.566   2.374  48.562  1.00  0.00     0.311 C 
BRANCH  19  21
HETATM   21  C2  UNL     1      21.605   4.156  47.273  1.00  0.00     0.269 C 
HETATM   22  C1  UNL     1      21.937   3.723  45.880  1.00  0.00     0.037 C 
ENDBRANCH  19  21
ENDBRANCH  18  19
ENDBRANCH   1  18
TORSDOF 5
ENDMDL
MODEL 5
REMARK VINA RESULT:      -6.3      2.243      5.409
REMARK  5 active torsions:
REMARK  status: ('A' for Active; 'I' for Inactive)
REMARK    1  A    between atoms: C2_2  and  N1_3 
REMARK    2  A    between atoms: N1_3  and  C4_5 
REMARK    3  A    between atoms: C4_5  and  N2_6 
REMARK    4  A    between atoms: C9_11  and  C10_12 
REMARK       I    between atoms: C10_12  and  N3_14 
REMARK    5  A    between atoms: N3_14  and  C11_15 
ROOT
HETATM    1  N2  UNL     1      26.012   1.957  52.025  1.00  0.00    -0.377 N 
HETATM    2  C5  UNL     1      26.791   2.516  51.015  1.00  0.00     0.147 C 
HETATM    3  C6  UNL     1      26.095   3.400  50.047  1.00  0.00    -0.008 C 
HETATM    4  C7  UNL     1      24.799   3.560  49.836  1.00  0.00    -0.002 C 
HETATM    5  C8  UNL     1      23.736   2.863  50.551  1.00  0.00     0.014 C 
HETATM    6  C9  UNL     1      23.687   1.803  51.359  1.00  0.00     0.032 C 
HETATM    7  C16 UNL     1      24.950   1.093  51.668  1.00  0.00     0.116 C 
HETATM    8  C17 UNL     1      24.811  -0.077  52.580  1.00  0.00     0.037 C 
ENDROOT
BRANCH   6   9
HETATM    9  C10 UNL     1      22.443   1.330  51.938  1.00  0.00     0.254 C 
HETATM   10  O1  UNL     1      21.937   1.839  52.965  1.00  0.00    -0.268 OA
HETATM   11  N3  UNL     1      21.655   0.284  51.460  1.00  0.00    -0.323 N 
HETATM   12  H16 UNL     1      21.922  -0.256  50.611  1.00  0.00     0.169 HD
BRANCH  11  13
HETATM   13  C11 UNL     1      20.451  -0.018  52.195  1.00  0.00     0.041 A 
HETATM   14  C12 UNL     1      19.136   0.086  52.309  1.00  0.00     0.031 A 
HETATM   15  C13 UNL     1      19.085  -0.674  53.523  1.00  0.00     0.011 A 
HETATM   16  C14 UNL     1      20.398  -0.802  53.446  1.00  0.00    -0.035 A 
HETATM   17  C15 UNL     1      21.322  -1.523  54.387  1.00  0.00     0.050 C 
ENDBRANCH  11  13
ENDBRANCH   6   9
BRANCH   1  18
HETATM   18  C4  UNL     1      26.451   2.034  53.352  1.00  0.00     0.393 C 
BRANCH  18  19
HETATM   19  N1  UNL     1      27.804   1.463  53.445  1.00  0.00     0.100 N 
HETATM   20  C3  UNL     1      28.739   2.523  53.805  1.00  0.00     0.311 C 
BRANCH  19  21
HETATM   21  C2  UNL     1      27.808   0.416  54.478  1.00  0.00     0.269 C 
HETATM   22  C1  UNL     1      29.047  -0.412  54.329  1.00  0.00     0.037 C 
ENDBRANCH  19  21
ENDBRANCH  18  19
ENDBRANCH   1  18
TORSDOF 5
ENDMDL
MODEL 6
REMARK VINA RESULT:      -6.3      3.101      6.601
REMARK  5 active torsions:
REMARK  status: ('A' for Active; 'I' for Inactive)
REMARK    1  A    between atoms: C2_2  and  N1_3 
REMARK    2  A    between atoms: N1_3  and  C4_5 
REMARK    3  A    between atoms: C4_5  and  N2_6 
REMARK    4  A    between atoms: C9_11  and  C10_12 
REMARK       I    between atoms: C10_12  and  N3_14 
REMARK    5  A    between atoms: N3_14  and  C11_15 
ROOT
HETATM    1  N2  UNL     1      24.356   2.099  52.036  1.00  0.00    -0.377 N 
HETATM    2  C5  UNL     1      25.458   1.972  52.879  1.00  0.00     0.147 C 
HETATM    3  C6  UNL     1      25.594   0.689  53.613  1.00  0.00    -0.008 C 
HETATM    4  C7  UNL     1      24.708  -0.277  53.787  1.00  0.00    -0.002 C 
HETATM    5  C8  UNL     1      23.346  -0.277  53.265  1.00  0.00     0.014 C 
HETATM    6  C9  UNL     1      22.545   0.648  52.734  1.00  0.00     0.032 C 
HETATM    7  C16 UNL     1      23.059   2.030  52.596  1.00  0.00     0.116 C 
HETATM    8  C17 UNL     1      22.106   3.002  51.990  1.00  0.00     0.037 C 
ENDROOT
BRANCH   6   9
HETATM    9  C10 UNL     1      21.197   0.340  52.292  1.00  0.00     0.254 C 
HETATM   10  O1  UNL     1      20.927   0.028  51.110  1.00  0.00    -0.268 OA
HETATM   11  N3  UNL     1      20.049   0.344  53.082  1.00  0.00    -0.323 N 
HETATM   12  H16 UNL     1      20.084   0.581  54.095  1.00  0.00     0.169 HD
BRANCH  11  13
HETATM   13  C11 UNL     1      18.806   0.004  52.433  1.00  0.00     0.041 A 
HETATM   14  C12 UNL     1      17.880   0.297  51.532  1.00  0.00     0.031 A 
HETATM   15  C13 UNL     1      17.085  -0.857  51.834  1.00  0.00     0.011 A 
HETATM   16  C14 UNL     1      17.986  -1.185  52.744  1.00  0.00    -0.035 A 
HETATM   17  C15 UNL     1      17.997  -2.376  53.660  1.00  0.00     0.050 C 
ENDBRANCH  11  13
ENDBRANCH   6   9
BRANCH   1  18
HETATM   18  C4  UNL     1      24.543   2.555  50.727  1.00  0.00     0.393 C 
BRANCH  18  19
HETATM   19  N1  UNL     1      25.516   3.660  50.737  1.00  0.00     0.100 N 
HETATM   20  C3  UNL     1      26.542   3.394  49.735  1.00  0.00     0.311 C 
BRANCH  19  21
HETATM   21  C2  UNL     1      24.816   4.914  50.419  1.00  0.00     0.269 C 
HETATM   22  C1  UNL     1      24.125   4.766  49.100  1.00  0.00     0.037 C 
ENDBRANCH  19  21
ENDBRANCH  18  19
ENDBRANCH   1  18
TORSDOF 5
ENDMDL
MODEL 7
REMARK VINA RESULT:      -6.1      2.566      4.213
REMARK  5 active torsions:
REMARK  status: ('A' for Active; 'I' for Inactive)
REMARK    1  A    between atoms: C2_2  and  N1_3 
REMARK    2  A    between atoms: N1_3  and  C4_5 
REMARK    3  A    between atoms: C4_5  and  N2_6 
REMARK    4  A    between atoms: C9_11  and  C10_12 
REMARK       I    between atoms: C10_12  and  N3_14 
REMARK    5  A    between atoms: N3_14  and  C11_15 
ROOT
HETATM    1  N2  UNL     1      23.630   0.498  52.509  1.00  0.00    -0.377 N 
HETATM    2  C5  UNL     1      24.790  -0.123  52.966  1.00  0.00     0.147 C 
HETATM    3  C6  UNL     1      25.730   0.713  53.753  1.00  0.00    -0.008 C 
HETATM    4  C7  UNL     1      25.768   2.027  53.895  1.00  0.00    -0.002 C 
HETATM    5  C8  UNL     1      24.845   2.970  53.274  1.00  0.00     0.014 C 
HETATM    6  C9  UNL     1      23.941   2.892  52.297  1.00  0.00     0.032 C 
HETATM    7  C16 UNL     1      23.748   1.589  51.618  1.00  0.00     0.116 C 
HETATM    8  C17 UNL     1      22.717   1.584  50.542  1.00  0.00     0.037 C 
ENDROOT
BRANCH   6   9
HETATM    9  C10 UNL     1      23.147   4.035  51.886  1.00  0.00     0.254 C 
HETATM   10  O1  UNL     1      22.191   4.476  52.564  1.00  0.00    -0.268 OA
HETATM   11  N3  UNL     1      23.322   4.786  50.724  1.00  0.00    -0.323 N 
HETATM   12  H16 UNL     1      24.073   4.563  50.038  1.00  0.00     0.169 HD
BRANCH  11  13
HETATM   13  C11 UNL     1      22.415   5.887  50.512  1.00  0.00     0.041 A 
HETATM   14  C12 UNL     1      21.179   6.314  50.301  1.00  0.00     0.031 A 
HETATM   15  C13 UNL     1      21.561   7.695  50.257  1.00  0.00     0.011 A 
HETATM   16  C14 UNL     1      22.808   7.311  50.466  1.00  0.00    -0.035 A 
HETATM   17  C15 UNL     1      24.040   8.163  50.586  1.00  0.00     0.050 C 
ENDBRANCH  11  13
ENDBRANCH   6   9
BRANCH   1  18
HETATM   18  C4  UNL     1      22.393  -0.124  52.713  1.00  0.00     0.393 C 
BRANCH  18  19
HETATM   19  N1  UNL     1      21.708   0.529  53.840  1.00  0.00     0.100 N 
HETATM   20  C3  UNL     1      20.427   1.051  53.375  1.00  0.00     0.311 C 
BRANCH  19  21
HETATM   21  C2  UNL     1      21.489  -0.464  54.904  1.00  0.00     0.269 C 
HETATM   22  C1  UNL     1      21.470  -1.832  54.298  1.00  0.00     0.037 C 
ENDBRANCH  19  21
ENDBRANCH  18  19
ENDBRANCH   1  18
TORSDOF 5
ENDMDL
MODEL 8
REMARK VINA RESULT:      -6.0      1.871      2.561
REMARK  5 active torsions:
REMARK  status: ('A' for Active; 'I' for Inactive)
REMARK    1  A    between atoms: C2_2  and  N1_3 
REMARK    2  A    between atoms: N1_3  and  C4_5 
REMARK    3  A    between atoms: C4_5  and  N2_6 
REMARK    4  A    between atoms: C9_11  and  C10_12 
REMARK       I    between atoms: C10_12  and  N3_14 
REMARK    5  A    between atoms: N3_14  and  C11_15 
ROOT
HETATM    1  N2  UNL     1      23.482   1.487  52.811  1.00  0.00    -0.377 N 
HETATM    2  C5  UNL     1      22.552   0.534  53.219  1.00  0.00     0.147 C 
HETATM    3  C6  UNL     1      21.670  -0.032  52.169  1.00  0.00    -0.008 C 
HETATM    4  C7  UNL     1      21.453   0.392  50.935  1.00  0.00    -0.002 C 
HETATM    5  C8  UNL     1      22.070   1.565  50.326  1.00  0.00     0.014 C 
HETATM    6  C9  UNL     1      22.759   2.609  50.788  1.00  0.00     0.032 C 
HETATM    7  C16 UNL     1      23.015   2.696  52.245  1.00  0.00     0.116 C 
HETATM    8  C17 UNL     1      23.795   3.888  52.679  1.00  0.00     0.037 C 
ENDROOT
BRANCH   6   9
HETATM    9  C10 UNL     1      23.261   3.651  49.912  1.00  0.00     0.254 C 
HETATM   10  O1  UNL     1      24.302   3.519  49.227  1.00  0.00    -0.268 OA
HETATM   11  N3  UNL     1      22.687   4.905  49.707  1.00  0.00    -0.323 N 
HETATM   12  H16 UNL     1      21.813   5.191  50.196  1.00  0.00     0.169 HD
BRANCH  11  13
HETATM   13  C11 UNL     1      23.356   5.791  48.787  1.00  0.00     0.041 A 
HETATM   14  C12 UNL     1      23.445   6.306  47.570  1.00  0.00     0.031 A 
HETATM   15  C13 UNL     1      24.579   7.122  47.894  1.00  0.00     0.011 A 
HETATM   16  C14 UNL     1      24.524   6.632  49.120  1.00  0.00    -0.035 A 
HETATM   17  C15 UNL     1      25.415   6.943  50.289  1.00  0.00     0.050 C 
ENDBRANCH  11  13
ENDBRANCH   6   9
BRANCH   1  18
HETATM   18  C4  UNL     1      24.818   1.356  53.208  1.00  0.00     0.393 C 
BRANCH  18  19
HETATM   19  N1  UNL     1      25.575   0.691  52.136  1.00  0.00     0.100 N 
HETATM   20  C3  UNL     1      26.556   1.629  51.600  1.00  0.00     0.311 C 
BRANCH  19  21
HETATM   21  C2  UNL     1      26.259  -0.485  52.695  1.00  0.00     0.269 C 
HETATM   22  C1  UNL     1      26.330  -0.346  54.184  1.00  0.00     0.037 C 
ENDBRANCH  19  21
ENDBRANCH  18  19
ENDBRANCH   1  18
TORSDOF 5
ENDMDL
MODEL 9
REMARK VINA RESULT:      -6.0      4.631      7.036
REMARK  5 active torsions:
REMARK  status: ('A' for Active; 'I' for Inactive)
REMARK    1  A    between atoms: C2_2  and  N1_3 
REMARK    2  A    between atoms: N1_3  and  C4_5 
REMARK    3  A    between atoms: C4_5  and  N2_6 
REMARK    4  A    between atoms: C9_11  and  C10_12 
REMARK       I    between atoms: C10_12  and  N3_14 
REMARK    5  A    between atoms: N3_14  and  C11_15 
ROOT
HETATM    1  N2  UNL     1      24.549   5.419  49.646  1.00  0.00    -0.377 N 
HETATM    2  C5  UNL     1      24.296   4.054  49.531  1.00  0.00     0.147 C 
HETATM    3  C6  UNL     1      25.478   3.159  49.468  1.00  0.00    -0.008 C 
HETATM    4  C7  UNL     1      26.749   3.459  49.261  1.00  0.00    -0.002 C 
HETATM    5  C8  UNL     1      27.274   4.801  49.041  1.00  0.00     0.014 C 
HETATM    6  C9  UNL     1      26.731   5.986  48.758  1.00  0.00     0.032 C 
HETATM    7  C16 UNL     1      25.259   6.070  48.611  1.00  0.00     0.116 C 
HETATM    8  C17 UNL     1      24.731   7.428  48.300  1.00  0.00     0.037 C 
ENDROOT
BRANCH   6   9
HETATM    9  C10 UNL     1      27.534   7.184  48.593  1.00  0.00     0.254 C 
HETATM   10  O1  UNL     1      27.953   7.570  47.478  1.00  0.00    -0.268 OA
HETATM   11  N3  UNL     1      27.943   8.049  49.607  1.00  0.00    -0.323 N 
HETATM   12  H16 UNL     1      27.685   7.884  50.602  1.00  0.00     0.169 HD
BRANCH  11  13
HETATM   13  C11 UNL     1      28.740   9.187  49.216  1.00  0.00     0.041 A 
HETATM   14  C12 UNL     1      28.796  10.443  48.801  1.00  0.00     0.031 A 
HETATM   15  C13 UNL     1      30.228  10.467  48.764  1.00  0.00     0.011 A 
HETATM   16  C14 UNL     1      30.216   9.212  49.178  1.00  0.00    -0.035 A 
HETATM   17  C15 UNL     1      31.385   8.309  49.455  1.00  0.00     0.050 C 
ENDBRANCH  11  13
ENDBRANCH   6   9
BRANCH   1  18
HETATM   18  C4  UNL     1      23.876   6.161  50.624  1.00  0.00     0.393 C 
BRANCH  18  19
HETATM   19  N1  UNL     1      22.853   5.310  51.253  1.00  0.00     0.100 N 
HETATM   20  C3  UNL     1      23.223   5.081  52.646  1.00  0.00     0.311 C 
BRANCH  19  21
HETATM   21  C2  UNL     1      21.554   5.998  51.184  1.00  0.00     0.269 C 
HETATM   22  C1  UNL     1      21.770   7.404  50.720  1.00  0.00     0.037 C 
ENDBRANCH  19  21
ENDBRANCH  18  19
ENDBRANCH   1  18
TORSDOF 5
ENDMDL
