MODEL 1
REMARK VINA RESULT:      -7.4      0.000      0.000
REMARK  7 active torsions:
REMARK  status: ('A' for Active; 'I' for Inactive)
REMARK    1  A    between atoms: C2_3  and  C9_11 
REMARK    2  A    between atoms: C3_4  and  C4_5 
REMARK    3  A    between atoms: C4_5  and  C5_6 
REMARK    4  A    between atoms: C6_7  and  C7_8 
REMARK    5  A    between atoms: C7_8  and  C8_9 
REMARK    6  A    between atoms: C8_9  and  O1_10 
REMARK       I    between atoms: C9_11  and  N2_13 
REMARK    7  A    between atoms: N2_13  and  C10_14 
ROOT
HETATM    1  N1  UNL     1      22.214  -1.626  55.330  1.00  0.00    -0.191 NA
HETATM    2  C1  UNL     1      22.891  -1.013  54.591  1.00  0.00     0.105 C 
HETATM    3  C2  UNL     1      23.735  -0.280  53.690  1.00  0.00     0.109 C 
HETATM    4  C3  UNL     1      23.158   0.565  52.851  1.00  0.00     0.014 C 
ENDROOT
BRANCH   3   5
HETATM    5  C9  UNL     1      25.173  -0.499  53.741  1.00  0.00     0.266 C 
HETATM    6  O2  UNL     1      25.763  -0.978  54.758  1.00  0.00    -0.267 OA
HETATM    7  N2  UNL     1      26.031  -0.197  52.660  1.00  0.00    -0.321 N 
HETATM    8  H9  UNL     1      25.645   0.202  51.774  1.00  0.00     0.169 HD
BRANCH   7   9
HETATM    9  C10 UNL     1      27.397  -0.516  52.989  1.00  0.00     0.056 A 
HETATM   10  C11 UNL     1      27.912  -1.781  52.893  1.00  0.00     0.031 A 
HETATM   11  C12 UNL     1      29.251  -1.985  53.235  1.00  0.00     0.002 A 
HETATM   12  C13 UNL     1      29.961  -0.877  53.651  1.00  0.00     0.002 A 
HETATM   13  C14 UNL     1      29.473   0.412  53.761  1.00  0.00     0.026 A 
HETATM   14  C15 UNL     1      28.133   0.574  53.409  1.00  0.00     0.060 A 
HETATM   15 CL1  UNL     1      27.453   2.200  53.528  1.00  0.00    -0.082 Cl
ENDBRANCH   7   9
ENDBRANCH   3   5
BRANCH   4  16
HETATM   16  C4  UNL     1      21.694   0.715  52.880  1.00  0.00     0.122 C 
BRANCH  16  17
HETATM   17  C5  UNL     1      21.382   2.059  52.362  1.00  0.00    -0.103 C 
HETATM   18  C6  UNL     1      21.140   3.173  51.945  1.00  0.00    -0.104 C 
BRANCH  18  19
HETATM   19  C7  UNL     1      20.855   4.525  51.464  1.00  0.00     0.119 C 
BRANCH  19  20
HETATM   20  C8  UNL     1      22.102   5.375  51.611  1.00  0.00     0.176 C 
BRANCH  20  21
HETATM   21  O1  UNL     1      22.696   5.237  52.850  1.00  0.00    -0.400 OA
HETATM   22  H8  UNL     1      23.391   4.516  52.845  1.00  0.00     0.209 HD
ENDBRANCH  20  21
ENDBRANCH  19  20
ENDBRANCH  18  19
ENDBRANCH  16  17
ENDBRANCH   4  16
TORSDOF 7
ENDMDL
MODEL 2
REMARK VINA RESULT:      -7.3      1.997      2.058
REMARK  7 active torsions:
REMARK  status: ('A' for Active; 'I' for Inactive)
REMARK    1  A    between atoms: C2_3  and  C9_11 
REMARK    2  A    between atoms: C3_4  and  C4_5 
REMARK    3  A    between atoms: C4_5  and  C5_6 
REMARK    4  A    between atoms: C6_7  and  C7_8 
REMARK    5  A    between atoms: C7_8  and  C8_9 
REMARK    6  A    between atoms: C8_9  and  O1_10 
REMARK       I    between atoms: C9_11  and  N2_13 
REMARK    7  A    between atoms: N2_13  and  C10_14 
ROOT
HETATM    1  N1  UNL     1      22.269  -1.705  55.272  1.00  0.00    -0.191 NA
HETATM    2  C1  UNL     1      22.958  -1.071  54.563  1.00  0.00     0.105 C 
HETATM    3  C2  UNL     1      23.818  -0.312  53.699  1.00  0.00     0.109 C 
HETATM    4  C3  UNL     1      23.257   0.569  52.887  1.00  0.00     0.014 C 
ENDROOT
BRANCH   3   5
HETATM    5  C9  UNL     1      25.253  -0.546  53.756  1.00  0.00     0.266 C 
HETATM    6  O2  UNL     1      25.842  -0.978  54.795  1.00  0.00    -0.267 OA
HETATM    7  N2  UNL     1      26.111  -0.310  52.659  1.00  0.00    -0.321 N 
HETATM    8  H9  UNL     1      25.726   0.048  51.754  1.00  0.00     0.169 HD
BRANCH   7   9
HETATM    9  C10 UNL     1      27.475  -0.627  53.000  1.00  0.00     0.056 A 
HETATM   10  C11 UNL     1      27.986  -1.895  52.925  1.00  0.00     0.031 A 
HETATM   11  C12 UNL     1      29.323  -2.098  53.277  1.00  0.00     0.002 A 
HETATM   12  C13 UNL     1      30.034  -0.985  53.680  1.00  0.00     0.002 A 
HETATM   13  C14 UNL     1      29.549   0.307  53.768  1.00  0.00     0.026 A 
HETATM   14  C15 UNL     1      28.211   0.467  53.407  1.00  0.00     0.060 A 
HETATM   15 CL1  UNL     1      27.535   2.097  53.499  1.00  0.00    -0.082 Cl
ENDBRANCH   7   9
ENDBRANCH   3   5
BRANCH   4  16
HETATM   16  C4  UNL     1      21.794   0.730  52.905  1.00  0.00     0.122 C 
BRANCH  16  17
HETATM   17  C5  UNL     1      21.364   0.981  51.519  1.00  0.00    -0.103 C 
HETATM   18  C6  UNL     1      21.022   1.175  50.370  1.00  0.00    -0.104 C 
BRANCH  18  19
HETATM   19  C7  UNL     1      20.633   1.407  48.979  1.00  0.00     0.119 C 
BRANCH  19  20
HETATM   20  C8  UNL     1      21.598   2.395  48.354  1.00  0.00     0.176 C 
BRANCH  20  21
HETATM   21  O1  UNL     1      22.509   1.789  47.512  1.00  0.00    -0.400 OA
HETATM   22  H8  UNL     1      23.441   2.114  47.685  1.00  0.00     0.209 HD
ENDBRANCH  20  21
ENDBRANCH  19  20
ENDBRANCH  18  19
ENDBRANCH  16  17
ENDBRANCH   4  16
TORSDOF 7
ENDMDL
MODEL 3
REMARK VINA RESULT:      -7.1      4.949      7.120
REMARK  7 active torsions:
REMARK  status: ('A' for Active; 'I' for Inactive)
REMARK    1  A    between atoms: C2_3  and  C9_11 
REMARK    2  A    between atoms: C3_4  and  C4_5 
REMARK    3  A    between atoms: C4_5  and  C5_6 
REMARK    4  A    between atoms: C6_7  and  C7_8 
REMARK    5  A    between atoms: C7_8  and  C8_9 
REMARK    6  A    between atoms: C8_9  and  O1_10 
REMARK       I    between atoms: C9_11  and  N2_13 
REMARK    7  A    between atoms: N2_13  and  C10_14 
ROOT
HETATM    1  N1  UNL     1      24.430   6.870  50.704  1.00  0.00    -0.191 NA
HETATM    2  C1  UNL     1      24.904   5.826  50.452  1.00  0.00     0.105 C 
HETATM    3  C2  UNL     1      25.464   4.539  50.152  1.00  0.00     0.109 C 
HETATM    4  C3  UNL     1      26.429   4.478  49.248  1.00  0.00     0.014 C 
ENDROOT
BRANCH   3   5
HETATM    5  C9  UNL     1      24.948   3.369  50.849  1.00  0.00     0.266 C 
HETATM    6  O2  UNL     1      24.240   2.483  50.279  1.00  0.00    -0.267 OA
HETATM    7  N2  UNL     1      25.195   3.124  52.218  1.00  0.00    -0.321 N 
HETATM    8  H9  UNL     1      25.769   3.794  52.780  1.00  0.00     0.169 HD
BRANCH   7   9
HETATM    9  C10 UNL     1      24.565   1.898  52.638  1.00  0.00     0.056 A 
HETATM   10  C11 UNL     1      23.229   1.806  52.922  1.00  0.00     0.031 A 
HETATM   11  C12 UNL     1      22.715   0.569  53.322  1.00  0.00     0.002 A 
HETATM   12  C13 UNL     1      23.610  -0.479  53.401  1.00  0.00     0.002 A 
HETATM   13  C14 UNL     1      24.963  -0.420  53.123  1.00  0.00     0.026 A 
HETATM   14  C15 UNL     1      25.437   0.832  52.727  1.00  0.00     0.060 A 
HETATM   15 CL1  UNL     1      27.159   0.968  52.357  1.00  0.00    -0.082 Cl
ENDBRANCH   7   9
ENDBRANCH   3   5
BRANCH   4  16
HETATM   16  C4  UNL     1      26.880   5.720  48.599  1.00  0.00     0.122 C 
BRANCH  16  17
HETATM   17  C5  UNL     1      28.336   5.608  48.405  1.00  0.00    -0.103 C 
HETATM   18  C6  UNL     1      29.538   5.531  48.256  1.00  0.00    -0.104 C 
BRANCH  18  19
HETATM   19  C7  UNL     1      30.989   5.463  48.075  1.00  0.00     0.119 C 
BRANCH  19  20
HETATM   20  C8  UNL     1      31.668   6.056  49.294  1.00  0.00     0.176 C 
BRANCH  20  21
HETATM   21  O1  UNL     1      31.335   5.397  50.461  1.00  0.00    -0.400 OA
HETATM   22  H8  UNL     1      32.094   5.405  51.116  1.00  0.00     0.209 HD
ENDBRANCH  20  21
ENDBRANCH  19  20
ENDBRANCH  18  19
ENDBRANCH  16  17
ENDBRANCH   4  16
TORSDOF 7
ENDMDL
MODEL 4
REMARK VINA RESULT:      -6.8      5.213      7.516
REMARK  7 active torsions:
REMARK  status: ('A' for Active; 'I' for Inactive)
REMARK    1  A    between atoms: C2_3  and  C9_11 
REMARK    2  A    between atoms: C3_4  and  C4_5 
REMARK    3  A    between atoms: C4_5  and  C5_6 
REMARK    4  A    between atoms: C6_7  and  C7_8 
REMARK    5  A    between atoms: C7_8  and  C8_9 
REMARK    6  A    between atoms: C8_9  and  O1_10 
REMARK       I    between atoms: C9_11  and  N2_13 
REMARK    7  A    between atoms: N2_13  and  C10_14 
ROOT
HETATM    1  N1  UNL     1      24.626   7.199  50.619  1.00  0.00    -0.191 NA
HETATM    2  C1  UNL     1      25.047   6.136  50.351  1.00  0.00     0.105 C 
HETATM    3  C2  UNL     1      25.541   4.827  50.030  1.00  0.00     0.109 C 
HETATM    4  C3  UNL     1      26.503   4.732  49.127  1.00  0.00     0.014 C 
ENDROOT
BRANCH   3   5
HETATM    5  C9  UNL     1      24.966   3.674  50.708  1.00  0.00     0.266 C 
HETATM    6  O2  UNL     1      24.572   2.637  50.091  1.00  0.00    -0.267 OA
HETATM    7  N2  UNL     1      24.799   3.615  52.109  1.00  0.00    -0.321 N 
HETATM    8  H9  UNL     1      25.091   4.419  52.711  1.00  0.00     0.169 HD
BRANCH   7   9
HETATM    9  C10 UNL     1      24.208   2.360  52.500  1.00  0.00     0.056 A 
HETATM   10  C11 UNL     1      24.949   1.249  52.800  1.00  0.00     0.031 A 
HETATM   11  C12 UNL     1      24.280   0.079  53.170  1.00  0.00     0.002 A 
HETATM   12  C13 UNL     1      22.901   0.137  53.203  1.00  0.00     0.002 A 
HETATM   13  C14 UNL     1      22.123   1.241  52.906  1.00  0.00     0.026 A 
HETATM   14  C15 UNL     1      22.829   2.388  52.542  1.00  0.00     0.060 A 
HETATM   15 CL1  UNL     1      21.888   3.831  52.152  1.00  0.00    -0.082 Cl
ENDBRANCH   7   9
ENDBRANCH   3   5
BRANCH   4  16
HETATM   16  C4  UNL     1      27.018   5.960  48.498  1.00  0.00     0.122 C 
BRANCH  16  17
HETATM   17  C5  UNL     1      28.470   5.787  48.326  1.00  0.00    -0.103 C 
HETATM   18  C6  UNL     1      29.667   5.631  48.197  1.00  0.00    -0.104 C 
BRANCH  18  19
HETATM   19  C7  UNL     1      31.112   5.442  48.067  1.00  0.00     0.119 C 
BRANCH  19  20
HETATM   20  C8  UNL     1      31.796   5.973  49.312  1.00  0.00     0.176 C 
BRANCH  20  21
HETATM   21  O1  UNL     1      31.340   5.368  50.467  1.00  0.00    -0.400 OA
HETATM   22  H8  UNL     1      30.387   5.613  50.657  1.00  0.00     0.209 HD
ENDBRANCH  20  21
ENDBRANCH  19  20
ENDBRANCH  18  19
ENDBRANCH  16  17
ENDBRANCH   4  16
TORSDOF 7
ENDMDL
MODEL 5
REMARK VINA RESULT:      -6.8      2.113      2.648
REMARK  7 active torsions:
REMARK  status: ('A' for Active; 'I' for Inactive)
REMARK    1  A    between atoms: C2_3  and  C9_11 
REMARK    2  A    between atoms: C3_4  and  C4_5 
REMARK    3  A    between atoms: C4_5  and  C5_6 
REMARK    4  A    between atoms: C6_7  and  C7_8 
REMARK    5  A    between atoms: C7_8  and  C8_9 
REMARK    6  A    between atoms: C8_9  and  O1_10 
REMARK       I    between atoms: C9_11  and  N2_13 
REMARK    7  A    between atoms: N2_13  and  C10_14 
ROOT
HETATM    1  N1  UNL     1      22.101   0.403  51.947  1.00  0.00    -0.191 NA
HETATM    2  C1  UNL     1      23.055   0.989  52.303  1.00  0.00     0.105 C 
HETATM    3  C2  UNL     1      24.234   1.687  52.731  1.00  0.00     0.109 C 
HETATM    4  C3  UNL     1      24.171   3.005  52.832  1.00  0.00     0.014 C 
ENDROOT
BRANCH   3   5
HETATM    5  C9  UNL     1      25.435   0.920  53.029  1.00  0.00     0.266 C 
HETATM    6  O2  UNL     1      25.562   0.219  54.080  1.00  0.00    -0.267 OA
HETATM    7  N2  UNL     1      26.558   0.894  52.174  1.00  0.00    -0.321 N 
HETATM    8  H9  UNL     1      26.556   1.438  51.281  1.00  0.00     0.169 HD
BRANCH   7   9
HETATM    9  C10 UNL     1      27.596   0.055  52.719  1.00  0.00     0.056 A 
HETATM   10  C11 UNL     1      27.580  -1.310  52.619  1.00  0.00     0.031 A 
HETATM   11  C12 UNL     1      28.636  -2.033  53.182  1.00  0.00     0.002 A 
HETATM   12  C13 UNL     1      29.626  -1.301  53.805  1.00  0.00     0.002 A 
HETATM   13  C14 UNL     1      29.672   0.076  53.925  1.00  0.00     0.026 A 
HETATM   14  C15 UNL     1      28.600   0.760  53.350  1.00  0.00     0.060 A 
HETATM   15 CL1  UNL     1      28.604   2.523  53.471  1.00  0.00    -0.082 Cl
ENDBRANCH   7   9
ENDBRANCH   3   5
BRANCH   4  16
HETATM   16  C4  UNL     1      22.908   3.688  52.507  1.00  0.00     0.122 C 
BRANCH  16  17
HETATM   17  C5  UNL     1      23.255   5.001  51.938  1.00  0.00    -0.103 C 
HETATM   18  C6  UNL     1      23.559   6.081  51.473  1.00  0.00    -0.104 C 
BRANCH  18  19
HETATM   19  C7  UNL     1      23.942   7.385  50.931  1.00  0.00     0.119 C 
BRANCH  19  20
HETATM   20  C8  UNL     1      25.244   7.240  50.168  1.00  0.00     0.176 C 
BRANCH  20  21
HETATM   21  O1  UNL     1      26.337   7.664  50.896  1.00  0.00    -0.400 OA
HETATM   22  H8  UNL     1      26.508   8.643  50.765  1.00  0.00     0.209 HD
ENDBRANCH  20  21
ENDBRANCH  19  20
ENDBRANCH  18  19
ENDBRANCH  16  17
ENDBRANCH   4  16
TORSDOF 7
ENDMDL
MODEL 6
REMARK VINA RESULT:      -6.7      2.874      3.853
REMARK  7 active torsions:
REMARK  status: ('A' for Active; 'I' for Inactive)
REMARK    1  A    between atoms: C2_3  and  C9_11 
REMARK    2  A    between atoms: C3_4  and  C4_5 
REMARK    3  A    between atoms: C4_5  and  C5_6 
REMARK    4  A    between atoms: C6_7  and  C7_8 
REMARK    5  A    between atoms: C7_8  and  C8_9 
REMARK    6  A    between atoms: C8_9  and  O1_10 
REMARK       I    between atoms: C9_11  and  N2_13 
REMARK    7  A    between atoms: N2_13  and  C10_14 
ROOT
HETATM    1  N1  UNL     1      22.787   1.581  50.472  1.00  0.00    -0.191 NA
HETATM    2  C1  UNL     1      23.025   1.080  51.508  1.00  0.00     0.105 C 
HETATM    3  C2  UNL     1      23.338   0.473  52.770  1.00  0.00     0.109 C 
HETATM    4  C3  UNL     1      22.390   0.437  53.693  1.00  0.00     0.014 C 
ENDROOT
BRANCH   3   5
HETATM    5  C9  UNL     1      24.673  -0.070  52.975  1.00  0.00     0.266 C 
HETATM    6  O2  UNL     1      24.971  -0.819  53.957  1.00  0.00    -0.267 OA
HETATM    7  N2  UNL     1      25.749   0.192  52.098  1.00  0.00    -0.321 N 
HETATM    8  H9  UNL     1      25.610   0.798  51.257  1.00  0.00     0.169 HD
BRANCH   7   9
HETATM    9  C10 UNL     1      26.947  -0.473  52.547  1.00  0.00     0.056 A 
HETATM   10  C11 UNL     1      27.101  -1.833  52.514  1.00  0.00     0.031 A 
HETATM   11  C12 UNL     1      28.303  -2.380  52.971  1.00  0.00     0.002 A 
HETATM   12  C13 UNL     1      29.255  -1.491  53.428  1.00  0.00     0.002 A 
HETATM   13  C14 UNL     1      29.131  -0.114  53.476  1.00  0.00     0.026 A 
HETATM   14  C15 UNL     1      27.917   0.392  53.010  1.00  0.00     0.060 A 
HETATM   15 CL1  UNL     1      27.701   2.144  53.045  1.00  0.00    -0.082 Cl
ENDBRANCH   7   9
ENDBRANCH   3   5
BRANCH   4  16
HETATM   16  C4  UNL     1      21.071   1.014  53.386  1.00  0.00     0.122 C 
BRANCH  16  17
HETATM   17  C5  UNL     1      20.085  -0.076  53.480  1.00  0.00    -0.103 C 
HETATM   18  C6  UNL     1      19.264  -0.969  53.541  1.00  0.00    -0.104 C 
BRANCH  18  19
HETATM   19  C7  UNL     1      18.259  -2.030  53.604  1.00  0.00     0.119 C 
BRANCH  19  20
HETATM   20  C8  UNL     1      17.073  -1.641  52.743  1.00  0.00     0.176 C 
BRANCH  20  21
HETATM   21  O1  UNL     1      16.253  -0.715  53.356  1.00  0.00    -0.400 OA
HETATM   22  H8  UNL     1      16.764  -0.138  53.997  1.00  0.00     0.209 HD
ENDBRANCH  20  21
ENDBRANCH  19  20
ENDBRANCH  18  19
ENDBRANCH  16  17
ENDBRANCH   4  16
TORSDOF 7
ENDMDL
MODEL 7
REMARK VINA RESULT:      -6.7      3.481      5.881
REMARK  7 active torsions:
REMARK  status: ('A' for Active; 'I' for Inactive)
REMARK    1  A    between atoms: C2_3  and  C9_11 
REMARK    2  A    between atoms: C3_4  and  C4_5 
REMARK    3  A    between atoms: C4_5  and  C5_6 
REMARK    4  A    between atoms: C6_7  and  C7_8 
REMARK    5  A    between atoms: C7_8  and  C8_9 
REMARK    6  A    between atoms: C8_9  and  O1_10 
REMARK       I    between atoms: C9_11  and  N2_13 
REMARK    7  A    between atoms: N2_13  and  C10_14 
ROOT
HETATM    1  N1  UNL     1      28.083   2.345  52.534  1.00  0.00    -0.191 NA
HETATM    2  C1  UNL     1      27.013   2.351  52.049  1.00  0.00     0.105 C 
HETATM    3  C2  UNL     1      25.697   2.358  51.479  1.00  0.00     0.109 C 
HETATM    4  C3  UNL     1      25.544   2.892  50.278  1.00  0.00     0.014 C 
ENDROOT
BRANCH   3   5
HETATM    5  C9  UNL     1      24.598   1.781  52.241  1.00  0.00     0.266 C 
HETATM    6  O2  UNL     1      23.969   2.423  53.138  1.00  0.00    -0.267 OA
HETATM    7  N2  UNL     1      24.142   0.459  52.045  1.00  0.00    -0.321 N 
HETATM    8  H9  UNL     1      24.593  -0.156  51.328  1.00  0.00     0.169 HD
BRANCH   7   9
HETATM    9  C10 UNL     1      23.048   0.159  52.934  1.00  0.00     0.056 A 
HETATM   10  C11 UNL     1      21.753   0.514  52.667  1.00  0.00     0.031 A 
HETATM   11  C12 UNL     1      20.764   0.176  53.595  1.00  0.00     0.002 A 
HETATM   12  C13 UNL     1      21.178  -0.500  54.725  1.00  0.00     0.002 A 
HETATM   13  C14 UNL     1      22.475  -0.872  55.024  1.00  0.00     0.026 A 
HETATM   14  C15 UNL     1      23.433  -0.516  54.074  1.00  0.00     0.060 A 
HETATM   15 CL1  UNL     1      25.109  -0.966  54.402  1.00  0.00    -0.082 Cl
ENDBRANCH   7   9
ENDBRANCH   3   5
BRANCH   4  16
HETATM   16  C4  UNL     1      26.720   3.449  49.589  1.00  0.00     0.122 C 
BRANCH  16  17
HETATM   17  C5  UNL     1      26.414   4.855  49.269  1.00  0.00    -0.103 C 
HETATM   18  C6  UNL     1      26.179   6.014  48.996  1.00  0.00    -0.104 C 
BRANCH  18  19
HETATM   19  C7  UNL     1      25.919   7.416  48.669  1.00  0.00     0.119 C 
BRANCH  19  20
HETATM   20  C8  UNL     1      25.713   8.194  49.955  1.00  0.00     0.176 C 
BRANCH  20  21
HETATM   21  O1  UNL     1      26.881   8.349  50.675  1.00  0.00    -0.400 OA
HETATM   22  H8  UNL     1      27.676   8.433  50.071  1.00  0.00     0.209 HD
ENDBRANCH  20  21
ENDBRANCH  19  20
ENDBRANCH  18  19
ENDBRANCH  16  17
ENDBRANCH   4  16
TORSDOF 7
ENDMDL
MODEL 8
REMARK VINA RESULT:      -6.6      3.296      7.822
REMARK  7 active torsions:
REMARK  status: ('A' for Active; 'I' for Inactive)
REMARK    1  A    between atoms: C2_3  and  C9_11 
REMARK    2  A    between atoms: C3_4  and  C4_5 
REMARK    3  A    between atoms: C4_5  and  C5_6 
REMARK    4  A    between atoms: C6_7  and  C7_8 
REMARK    5  A    between atoms: C7_8  and  C8_9 
REMARK    6  A    between atoms: C8_9  and  O1_10 
REMARK       I    between atoms: C9_11  and  N2_13 
REMARK    7  A    between atoms: N2_13  and  C10_14 
ROOT
HETATM    1  N1  UNL     1      23.750   4.462  52.958  1.00  0.00    -0.191 NA
HETATM    2  C1  UNL     1      23.573   3.338  52.666  1.00  0.00     0.105 C 
HETATM    3  C2  UNL     1      23.334   1.971  52.303  1.00  0.00     0.109 C 
HETATM    4  C3  UNL     1      24.378   1.223  51.986  1.00  0.00     0.014 C 
ENDROOT
BRANCH   3   5
HETATM    5  C9  UNL     1      21.966   1.474  52.299  1.00  0.00     0.266 C 
HETATM    6  O2  UNL     1      20.977   2.172  52.682  1.00  0.00    -0.267 OA
HETATM    7  N2  UNL     1      21.625   0.173  51.867  1.00  0.00    -0.321 N 
HETATM    8  H9  UNL     1      22.366  -0.484  51.530  1.00  0.00     0.169 HD
BRANCH   7   9
HETATM    9  C10 UNL     1      20.204  -0.044  51.971  1.00  0.00     0.056 A 
HETATM   10  C11 UNL     1      19.310   0.416  51.043  1.00  0.00     0.031 A 
HETATM   11  C12 UNL     1      17.951   0.152  51.235  1.00  0.00     0.002 A 
HETATM   12  C13 UNL     1      17.613  -0.563  52.366  1.00  0.00     0.002 A 
HETATM   13  C14 UNL     1      18.489  -1.042  53.323  1.00  0.00     0.026 A 
HETATM   14  C15 UNL     1      19.836  -0.757  53.093  1.00  0.00     0.060 A 
HETATM   15 CL1  UNL     1      21.003  -1.344  54.282  1.00  0.00    -0.082 Cl
ENDBRANCH   7   9
ENDBRANCH   3   5
BRANCH   4  16
HETATM   16  C4  UNL     1      25.723   1.820  52.022  1.00  0.00     0.122 C 
BRANCH  16  17
HETATM   17  C5  UNL     1      26.657   0.769  52.464  1.00  0.00    -0.103 C 
HETATM   18  C6  UNL     1      27.422  -0.092  52.847  1.00  0.00    -0.104 C 
BRANCH  18  19
HETATM   19  C7  UNL     1      28.352  -1.115  53.326  1.00  0.00     0.119 C 
BRANCH  19  20
HETATM   20  C8  UNL     1      27.978  -2.449  52.710  1.00  0.00     0.176 C 
BRANCH  20  21
HETATM   21  O1  UNL     1      28.530  -3.520  53.386  1.00  0.00    -0.400 OA
HETATM   22  H8  UNL     1      29.127  -4.062  52.791  1.00  0.00     0.209 HD
ENDBRANCH  20  21
ENDBRANCH  19  20
ENDBRANCH  18  19
ENDBRANCH  16  17
ENDBRANCH   4  16
TORSDOF 7
ENDMDL
MODEL 9
REMARK VINA RESULT:      -6.5      3.737      7.003
REMARK  7 active torsions:
REMARK  status: ('A' for Active; 'I' for Inactive)
REMARK    1  A    between atoms: C2_3  and  C9_11 
REMARK    2  A    between atoms: C3_4  and  C4_5 
REMARK    3  A    between atoms: C4_5  and  C5_6 
REMARK    4  A    between atoms: C6_7  and  C7_8 
REMARK    5  A    between atoms: C7_8  and  C8_9 
REMARK    6  A    between atoms: C8_9  and  O1_10 
REMARK       I    between atoms: C9_11  and  N2_13 
REMARK    7  A    between atoms: N2_13  and  C10_14 
ROOT
HETATM    1  N1  UNL     1      28.585   2.463  53.269  1.00  0.00    -0.191 NA
HETATM    2  C1  UNL     1      27.668   2.253  52.566  1.00  0.00     0.105 C 
HETATM    3  C2  UNL     1      26.555   2.013  51.692  1.00  0.00     0.109 C 
HETATM    4  C3  UNL     1      25.943   0.842  51.776  1.00  0.00     0.014 C 
ENDROOT
BRANCH   3   5
HETATM    5  C9  UNL     1      26.154   3.058  50.762  1.00  0.00     0.266 C 
HETATM    6  O2  UNL     1      26.518   3.076  49.546  1.00  0.00    -0.267 OA
HETATM    7  N2  UNL     1      25.327   4.140  51.137  1.00  0.00    -0.321 N 
HETATM    8  H9  UNL     1      24.972   4.220  52.117  1.00  0.00     0.169 HD
BRANCH   7   9
HETATM    9  C10 UNL     1      25.096   5.017  50.017  1.00  0.00     0.056 A 
HETATM   10  C11 UNL     1      25.994   5.969  49.617  1.00  0.00     0.031 A 
HETATM   11  C12 UNL     1      25.675   6.770  48.517  1.00  0.00     0.002 A 
HETATM   12  C13 UNL     1      24.458   6.534  47.911  1.00  0.00     0.002 A 
HETATM   13  C14 UNL     1      23.528   5.582  48.289  1.00  0.00     0.026 A 
HETATM   14  C15 UNL     1      23.885   4.804  49.390  1.00  0.00     0.060 A 
HETATM   15 CL1  UNL     1      22.736   3.571  49.919  1.00  0.00    -0.082 Cl
ENDBRANCH   7   9
ENDBRANCH   3   5
BRANCH   4  16
HETATM   16  C4  UNL     1      26.426  -0.149  52.752  1.00  0.00     0.122 C 
BRANCH  16  17
HETATM   17  C5  UNL     1      25.277  -0.530  53.593  1.00  0.00    -0.103 C 
HETATM   18  C6  UNL     1      24.327  -0.825  54.288  1.00  0.00    -0.104 C 
BRANCH  18  19
HETATM   19  C7  UNL     1      23.187  -1.162  55.141  1.00  0.00     0.119 C 
BRANCH  19  20
HETATM   20  C8  UNL     1      22.003  -1.520  54.265  1.00  0.00     0.176 C 
BRANCH  20  21
HETATM   21  O1  UNL     1      20.802  -1.460  54.943  1.00  0.00    -0.400 OA
HETATM   22  H8  UNL     1      20.023  -1.472  54.313  1.00  0.00     0.209 HD
ENDBRANCH  20  21
ENDBRANCH  19  20
ENDBRANCH  18  19
ENDBRANCH  16  17
ENDBRANCH   4  16
TORSDOF 7
ENDMDL
