MODEL 1
REMARK VINA RESULT:      -8.5      0.000      0.000
REMARK  6 active torsions:
REMARK  status: ('A' for Active; 'I' for Inactive)
REMARK    1  A    between atoms: C6_7  and  C7_8 
REMARK    2  A    between atoms: C7_8  and  N1_9 
REMARK    3  A    between atoms: N1_9  and  C8_10 
REMARK    4  A    between atoms: C9_11  and  O1_12 
REMARK    5  A    between atoms: C11_16  and  N4_17 
REMARK    6  A    between atoms: N4_17  and  C12_18 
ROOT
HETATM    1  C8  UNL     1      27.419   1.427  52.996  1.00  0.00     0.128 A 
HETATM    2  C9  UNL     1      28.686   1.676  53.457  1.00  0.00     0.194 A 
HETATM    3  N2  UNL     1      29.419   0.709  54.049  1.00  0.00    -0.216 NA
HETATM    4  C10 UNL     1      28.953  -0.537  54.217  1.00  0.00     0.238 A 
HETATM    5  N3  UNL     1      27.725  -0.772  53.770  1.00  0.00    -0.222 NA
HETATM    6  C11 UNL     1      26.961   0.140  53.181  1.00  0.00     0.160 A 
ENDROOT
BRANCH   1   7
HETATM    7  N1  UNL     1      26.724   2.481  52.377  1.00  0.00    -0.379 N 
HETATM    8  H8  UNL     1      26.108   3.108  52.937  1.00  0.00     0.160 HD
BRANCH   7   9
HETATM    9  C7  UNL     1      26.786   2.790  50.995  1.00  0.00     0.160 C 
BRANCH   9  10
HETATM   10  C6  UNL     1      25.483   3.427  50.591  1.00  0.00    -0.025 A 
HETATM   11  C2  UNL     1      25.633   4.400  49.550  1.00  0.00    -0.037 A 
HETATM   12  C1  UNL     1      26.795   4.712  49.001  1.00  0.00     0.024 C 
HETATM   13  C3  UNL     1      24.561   5.168  48.958  1.00  0.00     0.018 A 
HETATM   14  C4  UNL     1      23.299   5.078  49.294  1.00  0.00     0.050 A 
HETATM   15  S1  UNL     1      22.790   3.927  50.590  1.00  0.00    -0.113 SA
HETATM   16  C5  UNL     1      24.294   3.132  51.128  1.00  0.00     0.059 A 
ENDBRANCH   9  10
ENDBRANCH   7   9
ENDBRANCH   1   7
BRANCH   2  17
HETATM   17  O1  UNL     1      29.394   2.858  53.412  1.00  0.00    -0.343 OA
HETATM   18  H9  UNL     1      28.966   3.748  53.509  1.00  0.00     0.219 HD
ENDBRANCH   2  17
BRANCH   6  19
HETATM   19  N4  UNL     1      25.659  -0.194  52.734  1.00  0.00    -0.339 N 
HETATM   20  H11 UNL     1      25.487  -0.284  51.715  1.00  0.00     0.167 HD
BRANCH  19  21
HETATM   21  C12 UNL     1      24.484  -0.439  53.486  1.00  0.00     0.035 A 
HETATM   22  C13 UNL     1      24.453  -1.032  54.725  1.00  0.00     0.029 A 
HETATM   23  C14 UNL     1      23.319  -1.267  55.466  1.00  0.00     0.004 A 
HETATM   24  C15 UNL     1      22.101  -0.890  54.952  1.00  0.00     0.019 A 
HETATM   25  C16 UNL     1      22.061  -0.291  53.716  1.00  0.00     0.013 A 
HETATM   26 BR1  UNL     1      20.405   0.234  52.995  1.00  0.00    -0.051 Br
HETATM   27  C17 UNL     1      23.233  -0.086  53.031  1.00  0.00     0.048 A 
ENDBRANCH  19  21
ENDBRANCH   6  19
TORSDOF 6
ENDMDL
MODEL 2
REMARK VINA RESULT:      -8.2      2.076      5.611
REMARK  6 active torsions:
REMARK  status: ('A' for Active; 'I' for Inactive)
REMARK    1  A    between atoms: C6_7  and  C7_8 
REMARK    2  A    between atoms: C7_8  and  N1_9 
REMARK    3  A    between atoms: N1_9  and  C8_10 
REMARK    4  A    between atoms: C9_11  and  O1_12 
REMARK    5  A    between atoms: C11_16  and  N4_17 
REMARK    6  A    between atoms: N4_17  and  C12_18 
ROOT
HETATM    1  C8  UNL     1      26.624   0.695  53.111  1.00  0.00     0.128 A 
HETATM    2  C9  UNL     1      27.355   0.473  54.249  1.00  0.00     0.194 A 
HETATM    3  N2  UNL     1      28.437   1.225  54.545  1.00  0.00    -0.216 NA
HETATM    4  C10 UNL     1      28.854   2.220  53.749  1.00  0.00     0.238 A 
HETATM    5  N3  UNL     1      28.143   2.430  52.647  1.00  0.00    -0.222 NA
HETATM    6  C11 UNL     1      27.072   1.723  52.308  1.00  0.00     0.160 A 
ENDROOT
BRANCH   1   7
HETATM    7  N1  UNL     1      25.501  -0.118  52.880  1.00  0.00    -0.379 N 
HETATM    8  H8  UNL     1      25.428  -0.683  52.008  1.00  0.00     0.160 HD
BRANCH   7   9
HETATM    9  C7  UNL     1      24.403  -0.253  53.767  1.00  0.00     0.160 C 
BRANCH   9  10
HETATM   10  C6  UNL     1      23.148   0.136  53.032  1.00  0.00    -0.025 A 
HETATM   11  C2  UNL     1      21.966  -0.451  53.591  1.00  0.00    -0.037 A 
HETATM   12  C1  UNL     1      21.974  -1.255  54.641  1.00  0.00     0.024 C 
HETATM   13  C3  UNL     1      20.620  -0.256  53.101  1.00  0.00     0.018 A 
HETATM   14  C4  UNL     1      20.295   0.488  52.075  1.00  0.00     0.050 A 
HETATM   15  S1  UNL     1      21.579   1.365  51.154  1.00  0.00    -0.113 SA
HETATM   16  C5  UNL     1      23.109   0.946  51.968  1.00  0.00     0.059 A 
ENDBRANCH   9  10
ENDBRANCH   7   9
ENDBRANCH   1   7
BRANCH   2  17
HETATM   17  O1  UNL     1      27.147  -0.477  55.226  1.00  0.00    -0.343 OA
HETATM   18  H9  UNL     1      26.276  -0.933  55.360  1.00  0.00     0.219 HD
ENDBRANCH   2  17
BRANCH   6  19
HETATM   19  N4  UNL     1      26.370   2.011  51.111  1.00  0.00    -0.339 N 
HETATM   20  H11 UNL     1      25.971   1.225  50.563  1.00  0.00     0.167 HD
BRANCH  19  21
HETATM   21  C12 UNL     1      26.105   3.260  50.501  1.00  0.00     0.035 A 
HETATM   22  C13 UNL     1      26.866   3.826  49.505  1.00  0.00     0.029 A 
HETATM   23  C14 UNL     1      26.613   5.034  48.901  1.00  0.00     0.004 A 
HETATM   24  C15 UNL     1      25.517   5.761  49.304  1.00  0.00     0.019 A 
HETATM   25  C16 UNL     1      24.714   5.253  50.296  1.00  0.00     0.013 A 
HETATM   26 BR1  UNL     1      23.210   6.230  50.861  1.00  0.00    -0.051 Br
HETATM   27  C17 UNL     1      25.026   4.039  50.856  1.00  0.00     0.048 A 
ENDBRANCH  19  21
ENDBRANCH   6  19
TORSDOF 6
ENDMDL
MODEL 3
REMARK VINA RESULT:      -7.8      3.496      5.456
REMARK  6 active torsions:
REMARK  status: ('A' for Active; 'I' for Inactive)
REMARK    1  A    between atoms: C6_7  and  C7_8 
REMARK    2  A    between atoms: C7_8  and  N1_9 
REMARK    3  A    between atoms: N1_9  and  C8_10 
REMARK    4  A    between atoms: C9_11  and  O1_12 
REMARK    5  A    between atoms: C11_16  and  N4_17 
REMARK    6  A    between atoms: N4_17  and  C12_18 
ROOT
HETATM    1  C8  UNL     1      22.439  -0.596  53.205  1.00  0.00     0.128 A 
HETATM    2  C9  UNL     1      21.575  -1.151  54.113  1.00  0.00     0.194 A 
HETATM    3  N2  UNL     1      22.007  -1.583  55.318  1.00  0.00    -0.216 NA
HETATM    4  C10 UNL     1      23.293  -1.495  55.688  1.00  0.00     0.238 A 
HETATM    5  N3  UNL     1      24.125  -0.957  54.804  1.00  0.00    -0.222 NA
HETATM    6  C11 UNL     1      23.755  -0.516  53.608  1.00  0.00     0.160 A 
ENDROOT
BRANCH   1   7
HETATM    7  N1  UNL     1      21.911  -0.156  51.979  1.00  0.00    -0.379 N 
HETATM    8  H8  UNL     1      21.999  -0.745  51.124  1.00  0.00     0.160 HD
BRANCH   7   9
HETATM    9  C7  UNL     1      21.235   1.075  51.783  1.00  0.00     0.160 C 
BRANCH   9  10
HETATM   10  C6  UNL     1      22.183   2.039  51.120  1.00  0.00    -0.025 A 
HETATM   11  C2  UNL     1      22.175   1.940  49.691  1.00  0.00    -0.037 A 
HETATM   12  C1  UNL     1      21.416   1.088  49.020  1.00  0.00     0.024 C 
HETATM   13  C3  UNL     1      22.975   2.737  48.789  1.00  0.00     0.018 A 
HETATM   14  C4  UNL     1      23.821   3.665  49.159  1.00  0.00     0.050 A 
HETATM   15  S1  UNL     1      24.057   4.026  50.913  1.00  0.00    -0.113 SA
HETATM   16  C5  UNL     1      22.962   2.910  51.772  1.00  0.00     0.059 A 
ENDBRANCH   9  10
ENDBRANCH   7   9
ENDBRANCH   1   7
BRANCH   2  17
HETATM   17  O1  UNL     1      20.219  -1.360  53.985  1.00  0.00    -0.343 OA
HETATM   18  H9  UNL     1      19.697  -1.052  53.199  1.00  0.00     0.219 HD
ENDBRANCH   2  17
BRANCH   6  19
HETATM   19  N4  UNL     1      24.709   0.042  52.722  1.00  0.00    -0.339 N 
HETATM   20  H11 UNL     1      24.459   0.150  51.721  1.00  0.00     0.167 HD
BRANCH  19  21
HETATM   21  C12 UNL     1      26.021   0.505  52.986  1.00  0.00     0.035 A 
HETATM   22  C13 UNL     1      26.370   1.824  53.160  1.00  0.00     0.029 A 
HETATM   23  C14 UNL     1      27.638   2.282  53.424  1.00  0.00     0.004 A 
HETATM   24  C15 UNL     1      28.664   1.372  53.528  1.00  0.00     0.019 A 
HETATM   25  C16 UNL     1      28.384   0.038  53.365  1.00  0.00     0.013 A 
HETATM   26 BR1  UNL     1      29.773  -1.223  53.504  1.00  0.00    -0.051 Br
HETATM   27  C17 UNL     1      27.093  -0.350  53.103  1.00  0.00     0.048 A 
ENDBRANCH  19  21
ENDBRANCH   6  19
TORSDOF 6
ENDMDL
MODEL 4
REMARK VINA RESULT:      -7.7      3.469      6.183
REMARK  6 active torsions:
REMARK  status: ('A' for Active; 'I' for Inactive)
REMARK    1  A    between atoms: C6_7  and  C7_8 
REMARK    2  A    between atoms: C7_8  and  N1_9 
REMARK    3  A    between atoms: N1_9  and  C8_10 
REMARK    4  A    between atoms: C9_11  and  O1_12 
REMARK    5  A    between atoms: C11_16  and  N4_17 
REMARK    6  A    between atoms: N4_17  and  C12_18 
ROOT
HETATM    1  C8  UNL     1      23.032   0.267  53.683  1.00  0.00     0.128 A 
HETATM    2  C9  UNL     1      23.150  -0.836  54.488  1.00  0.00     0.194 A 
HETATM    3  N2  UNL     1      22.077  -1.595  54.801  1.00  0.00    -0.216 NA
HETATM    4  C10 UNL     1      20.848  -1.314  54.344  1.00  0.00     0.238 A 
HETATM    5  N3  UNL     1      20.739  -0.244  53.565  1.00  0.00    -0.222 NA
HETATM    6  C11 UNL     1      21.759   0.536  53.227  1.00  0.00     0.160 A 
ENDROOT
BRANCH   1   7
HETATM    7  N1  UNL     1      24.197   0.996  53.390  1.00  0.00    -0.379 N 
HETATM    8  H8  UNL     1      24.474   1.809  53.981  1.00  0.00     0.160 HD
BRANCH   7   9
HETATM    9  C7  UNL     1      25.079   0.718  52.315  1.00  0.00     0.160 C 
BRANCH   9  10
HETATM   10  C6  UNL     1      26.493   0.844  52.814  1.00  0.00    -0.025 A 
HETATM   11  C2  UNL     1      27.175  -0.413  52.891  1.00  0.00    -0.037 A 
HETATM   12  C1  UNL     1      26.621  -1.568  52.561  1.00  0.00     0.024 C 
HETATM   13  C3  UNL     1      28.539  -0.603  53.329  1.00  0.00     0.018 A 
HETATM   14  C4  UNL     1      29.343   0.355  53.718  1.00  0.00     0.050 A 
HETATM   15  S1  UNL     1      28.765   2.066  53.733  1.00  0.00    -0.113 SA
HETATM   16  C5  UNL     1      27.079   1.998  53.155  1.00  0.00     0.059 A 
ENDBRANCH   9  10
ENDBRANCH   7   9
ENDBRANCH   1   7
BRANCH   2  17
HETATM   17  O1  UNL     1      24.286  -1.340  55.086  1.00  0.00    -0.343 OA
HETATM   18  H9  UNL     1      25.202  -1.146  54.755  1.00  0.00     0.219 HD
ENDBRANCH   2  17
BRANCH   6  19
HETATM   19  N4  UNL     1      21.556   1.662  52.391  1.00  0.00    -0.339 N 
HETATM   20  H11 UNL     1      21.245   2.554  52.821  1.00  0.00     0.167 HD
BRANCH  19  21
HETATM   21  C12 UNL     1      21.713   1.784  50.990  1.00  0.00     0.035 A 
HETATM   22  C13 UNL     1      21.429   0.796  50.077  1.00  0.00     0.029 A 
HETATM   23  C14 UNL     1      21.571   0.907  48.715  1.00  0.00     0.004 A 
HETATM   24  C15 UNL     1      22.033   2.092  48.191  1.00  0.00     0.019 A 
HETATM   25  C16 UNL     1      22.337   3.121  49.048  1.00  0.00     0.013 A 
HETATM   26 BR1  UNL     1      22.970   4.750  48.352  1.00  0.00    -0.051 Br
HETATM   27  C17 UNL     1      22.170   2.941  50.399  1.00  0.00     0.048 A 
ENDBRANCH  19  21
ENDBRANCH   6  19
TORSDOF 6
ENDMDL
MODEL 5
REMARK VINA RESULT:      -7.7      2.787      5.070
REMARK  6 active torsions:
REMARK  status: ('A' for Active; 'I' for Inactive)
REMARK    1  A    between atoms: C6_7  and  C7_8 
REMARK    2  A    between atoms: C7_8  and  N1_9 
REMARK    3  A    between atoms: N1_9  and  C8_10 
REMARK    4  A    between atoms: C9_11  and  O1_12 
REMARK    5  A    between atoms: C11_16  and  N4_17 
REMARK    6  A    between atoms: N4_17  and  C12_18 
ROOT
HETATM    1  C8  UNL     1      24.413   3.215  51.120  1.00  0.00     0.128 A 
HETATM    2  C9  UNL     1      24.408   4.584  51.051  1.00  0.00     0.194 A 
HETATM    3  N2  UNL     1      23.291   5.296  51.315  1.00  0.00    -0.216 NA
HETATM    4  C10 UNL     1      22.135   4.707  51.656  1.00  0.00     0.238 A 
HETATM    5  N3  UNL     1      22.146   3.381  51.722  1.00  0.00    -0.222 NA
HETATM    6  C11 UNL     1      23.214   2.633  51.473  1.00  0.00     0.160 A 
ENDROOT
BRANCH   1   7
HETATM    7  N1  UNL     1      25.619   2.547  50.847  1.00  0.00    -0.379 N 
HETATM    8  H8  UNL     1      25.694   1.907  50.028  1.00  0.00     0.160 HD
BRANCH   7   9
HETATM    9  C7  UNL     1      26.804   2.666  51.616  1.00  0.00     0.160 C 
BRANCH   9  10
HETATM   10  C6  UNL     1      27.113   1.324  52.225  1.00  0.00    -0.025 A 
HETATM   11  C2  UNL     1      28.132   1.386  53.231  1.00  0.00    -0.037 A 
HETATM   12  C1  UNL     1      28.742   2.504  53.587  1.00  0.00     0.024 C 
HETATM   13  C3  UNL     1      28.633   0.261  53.988  1.00  0.00     0.018 A 
HETATM   14  C4  UNL     1      28.220  -0.974  53.858  1.00  0.00     0.050 A 
HETATM   15  S1  UNL     1      26.931  -1.374  52.658  1.00  0.00    -0.113 SA
HETATM   16  C5  UNL     1      26.513   0.178  51.885  1.00  0.00     0.059 A 
ENDBRANCH   9  10
ENDBRANCH   7   9
ENDBRANCH   1   7
BRANCH   2  17
HETATM   17  O1  UNL     1      25.449   5.427  50.724  1.00  0.00    -0.343 OA
HETATM   18  H9  UNL     1      26.370   5.310  51.077  1.00  0.00     0.219 HD
ENDBRANCH   2  17
BRANCH   6  19
HETATM   19  N4  UNL     1      23.138   1.221  51.562  1.00  0.00    -0.339 N 
HETATM   20  H11 UNL     1      23.589   0.649  50.823  1.00  0.00     0.167 HD
BRANCH  19  21
HETATM   21  C12 UNL     1      22.519   0.413  52.545  1.00  0.00     0.035 A 
HETATM   22  C13 UNL     1      23.157  -0.127  53.637  1.00  0.00     0.029 A 
HETATM   23  C14 UNL     1      22.562  -0.906  54.600  1.00  0.00     0.004 A 
HETATM   24  C15 UNL     1      21.220  -1.187  54.491  1.00  0.00     0.019 A 
HETATM   25  C16 UNL     1      20.522  -0.679  53.423  1.00  0.00     0.013 A 
HETATM   26 BR1  UNL     1      18.687  -1.051  53.255  1.00  0.00    -0.051 Br
HETATM   27  C17 UNL     1      21.180   0.093  52.497  1.00  0.00     0.048 A 
ENDBRANCH  19  21
ENDBRANCH   6  19
TORSDOF 6
ENDMDL
MODEL 6
REMARK VINA RESULT:      -7.7      2.853      5.648
REMARK  6 active torsions:
REMARK  status: ('A' for Active; 'I' for Inactive)
REMARK    1  A    between atoms: C6_7  and  C7_8 
REMARK    2  A    between atoms: C7_8  and  N1_9 
REMARK    3  A    between atoms: N1_9  and  C8_10 
REMARK    4  A    between atoms: C9_11  and  O1_12 
REMARK    5  A    between atoms: C11_16  and  N4_17 
REMARK    6  A    between atoms: N4_17  and  C12_18 
ROOT
HETATM    1  C8  UNL     1      25.315   4.072  50.694  1.00  0.00     0.128 A 
HETATM    2  C9  UNL     1      25.959   4.716  49.671  1.00  0.00     0.194 A 
HETATM    3  N2  UNL     1      25.285   5.499  48.801  1.00  0.00    -0.216 NA
HETATM    4  C10 UNL     1      23.960   5.687  48.890  1.00  0.00     0.238 A 
HETATM    5  N3  UNL     1      23.341   5.060  49.883  1.00  0.00    -0.222 NA
HETATM    6  C11 UNL     1      23.953   4.279  50.765  1.00  0.00     0.160 A 
ENDROOT
BRANCH   1   7
HETATM    7  N1  UNL     1      26.087   3.287  51.568  1.00  0.00    -0.379 N 
HETATM    8  H8  UNL     1      26.444   3.687  52.462  1.00  0.00     0.160 HD
BRANCH   7   9
HETATM    9  C7  UNL     1      26.445   1.934  51.340  1.00  0.00     0.160 C 
BRANCH   9  10
HETATM   10  C6  UNL     1      27.350   1.486  52.456  1.00  0.00    -0.025 A 
HETATM   11  C2  UNL     1      27.247   0.084  52.734  1.00  0.00    -0.037 A 
HETATM   12  C1  UNL     1      26.439  -0.734  52.080  1.00  0.00     0.024 C 
HETATM   13  C3  UNL     1      27.994  -0.629  53.745  1.00  0.00     0.018 A 
HETATM   14  C4  UNL     1      28.873  -0.087  54.550  1.00  0.00     0.050 A 
HETATM   15  S1  UNL     1      29.225   1.682  54.443  1.00  0.00    -0.113 SA
HETATM   16  C5  UNL     1      28.177   2.290  53.134  1.00  0.00     0.059 A 
ENDBRANCH   9  10
ENDBRANCH   7   9
ENDBRANCH   1   7
BRANCH   2  17
HETATM   17  O1  UNL     1      27.301   4.692  49.356  1.00  0.00    -0.343 OA
HETATM   18  H9  UNL     1      27.941   5.385  49.664  1.00  0.00     0.219 HD
ENDBRANCH   2  17
BRANCH   6  19
HETATM   19  N4  UNL     1      23.217   3.643  51.794  1.00  0.00    -0.339 N 
HETATM   20  H11 UNL     1      23.025   4.166  52.670  1.00  0.00     0.167 HD
BRANCH  19  21
HETATM   21  C12 UNL     1      22.665   2.340  51.834  1.00  0.00     0.035 A 
HETATM   22  C13 UNL     1      21.884   1.786  50.847  1.00  0.00     0.029 A 
HETATM   23  C14 UNL     1      21.351   0.520  50.872  1.00  0.00     0.004 A 
HETATM   24  C15 UNL     1      21.601  -0.283  51.960  1.00  0.00     0.019 A 
HETATM   25  C16 UNL     1      22.374   0.209  52.983  1.00  0.00     0.013 A 
HETATM   26 BR1  UNL     1      22.727  -0.873  54.480  1.00  0.00    -0.051 Br
HETATM   27  C17 UNL     1      22.875   1.484  52.891  1.00  0.00     0.048 A 
ENDBRANCH  19  21
ENDBRANCH   6  19
TORSDOF 6
ENDMDL
MODEL 7
REMARK VINA RESULT:      -7.6      1.804      2.573
REMARK  6 active torsions:
REMARK  status: ('A' for Active; 'I' for Inactive)
REMARK    1  A    between atoms: C6_7  and  C7_8 
REMARK    2  A    between atoms: C7_8  and  N1_9 
REMARK    3  A    between atoms: N1_9  and  C8_10 
REMARK    4  A    between atoms: C9_11  and  O1_12 
REMARK    5  A    between atoms: C11_16  and  N4_17 
REMARK    6  A    between atoms: N4_17  and  C12_18 
ROOT
HETATM    1  C8  UNL     1      26.639   2.119  52.096  1.00  0.00     0.128 A 
HETATM    2  C9  UNL     1      27.742   1.736  52.814  1.00  0.00     0.194 A 
HETATM    3  N2  UNL     1      27.729   0.620  53.575  1.00  0.00    -0.216 NA
HETATM    4  C10 UNL     1      26.647  -0.167  53.670  1.00  0.00     0.238 A 
HETATM    5  N3  UNL     1      25.582   0.210  52.972  1.00  0.00    -0.222 NA
HETATM    6  C11 UNL     1      25.539   1.296  52.209  1.00  0.00     0.160 A 
ENDROOT
BRANCH   1   7
HETATM    7  N1  UNL     1      26.735   3.284  51.314  1.00  0.00    -0.379 N 
HETATM    8  H8  UNL     1      26.842   4.216  51.767  1.00  0.00     0.160 HD
BRANCH   7   9
HETATM    9  C7  UNL     1      26.700   3.314  49.897  1.00  0.00     0.160 C 
BRANCH   9  10
HETATM   10  C6  UNL     1      26.003   4.576  49.465  1.00  0.00    -0.025 A 
HETATM   11  C2  UNL     1      26.861   5.474  48.750  1.00  0.00    -0.037 A 
HETATM   12  C1  UNL     1      28.135   5.225  48.498  1.00  0.00     0.024 C 
HETATM   13  C3  UNL     1      26.471   6.757  48.211  1.00  0.00     0.018 A 
HETATM   14  C4  UNL     1      25.272   7.276  48.301  1.00  0.00     0.050 A 
HETATM   15  S1  UNL     1      23.960   6.374  49.154  1.00  0.00    -0.113 SA
HETATM   16  C5  UNL     1      24.717   4.855  49.706  1.00  0.00     0.059 A 
ENDBRANCH   9  10
ENDBRANCH   7   9
ENDBRANCH   1   7
BRANCH   2  17
HETATM   17  O1  UNL     1      28.968   2.359  52.894  1.00  0.00    -0.343 OA
HETATM   18  H9  UNL     1      29.822   1.902  52.674  1.00  0.00     0.219 HD
ENDBRANCH   2  17
BRANCH   6  19
HETATM   19  N4  UNL     1      24.359   1.628  51.499  1.00  0.00    -0.339 N 
HETATM   20  H11 UNL     1      24.407   2.359  50.763  1.00  0.00     0.167 HD
BRANCH  19  21
HETATM   21  C12 UNL     1      23.051   1.104  51.629  1.00  0.00     0.035 A 
HETATM   22  C13 UNL     1      22.022   1.327  50.745  1.00  0.00     0.029 A 
HETATM   23  C14 UNL     1      20.752   0.816  50.859  1.00  0.00     0.004 A 
HETATM   24  C15 UNL     1      20.454   0.012  51.934  1.00  0.00     0.019 A 
HETATM   25  C16 UNL     1      21.436  -0.251  52.857  1.00  0.00     0.013 A 
HETATM   26 BR1  UNL     1      21.050  -1.347  54.335  1.00  0.00    -0.051 Br
HETATM   27  C17 UNL     1      22.685   0.293  52.680  1.00  0.00     0.048 A 
ENDBRANCH  19  21
ENDBRANCH   6  19
TORSDOF 6
ENDMDL
MODEL 8
REMARK VINA RESULT:      -7.4      3.506      5.888
REMARK  6 active torsions:
REMARK  status: ('A' for Active; 'I' for Inactive)
REMARK    1  A    between atoms: C6_7  and  C7_8 
REMARK    2  A    between atoms: C7_8  and  N1_9 
REMARK    3  A    between atoms: N1_9  and  C8_10 
REMARK    4  A    between atoms: C9_11  and  O1_12 
REMARK    5  A    between atoms: C11_16  and  N4_17 
REMARK    6  A    between atoms: N4_17  and  C12_18 
ROOT
HETATM    1  C8  UNL     1      23.759  -0.430  53.890  1.00  0.00     0.128 A 
HETATM    2  C9  UNL     1      23.949  -1.079  55.082  1.00  0.00     0.194 A 
HETATM    3  N2  UNL     1      25.152  -1.081  55.696  1.00  0.00    -0.216 NA
HETATM    4  C10 UNL     1      26.218  -0.454  55.177  1.00  0.00     0.238 A 
HETATM    5  N3  UNL     1      26.029   0.173  54.021  1.00  0.00    -0.222 NA
HETATM    6  C11 UNL     1      24.869   0.207  53.376  1.00  0.00     0.160 A 
ENDROOT
BRANCH   1   7
HETATM    7  N1  UNL     1      22.474  -0.459  53.321  1.00  0.00    -0.379 N 
HETATM    8  H8  UNL     1      22.169  -1.274  52.748  1.00  0.00     0.160 HD
BRANCH   7   9
HETATM    9  C7  UNL     1      21.502   0.564  53.462  1.00  0.00     0.160 C 
BRANCH   9  10
HETATM   10  C6  UNL     1      20.166   0.013  53.038  1.00  0.00    -0.025 A 
HETATM   11  C2  UNL     1      19.704   0.557  51.796  1.00  0.00    -0.037 A 
HETATM   12  C1  UNL     1      20.377   1.454  51.094  1.00  0.00     0.024 C 
HETATM   13  C3  UNL     1      18.462   0.215  51.140  1.00  0.00     0.018 A 
HETATM   14  C4  UNL     1      17.585  -0.645  51.595  1.00  0.00     0.050 A 
HETATM   15  S1  UNL     1      17.888  -1.503  53.155  1.00  0.00    -0.113 SA
HETATM   16  C5  UNL     1      19.464  -0.893  53.728  1.00  0.00     0.059 A 
ENDBRANCH   9  10
ENDBRANCH   7   9
ENDBRANCH   1   7
BRANCH   2  17
HETATM   17  O1  UNL     1      23.031  -1.794  55.821  1.00  0.00    -0.343 OA
HETATM   18  H9  UNL     1      22.134  -2.042  55.475  1.00  0.00     0.219 HD
ENDBRANCH   2  17
BRANCH   6  19
HETATM   19  N4  UNL     1      24.753   0.897  52.144  1.00  0.00    -0.339 N 
HETATM   20  H11 UNL     1      25.091   0.436  51.278  1.00  0.00     0.167 HD
BRANCH  19  21
HETATM   21  C12 UNL     1      24.222   2.182  51.878  1.00  0.00     0.035 A 
HETATM   22  C13 UNL     1      24.033   3.165  52.820  1.00  0.00     0.029 A 
HETATM   23  C14 UNL     1      23.527   4.418  52.571  1.00  0.00     0.004 A 
HETATM   24  C15 UNL     1      23.170   4.745  51.284  1.00  0.00     0.019 A 
HETATM   25  C16 UNL     1      23.333   3.808  50.293  1.00  0.00     0.013 A 
HETATM   26 BR1  UNL     1      22.851   4.235  48.526  1.00  0.00    -0.051 Br
HETATM   27  C17 UNL     1      23.845   2.575  50.614  1.00  0.00     0.048 A 
ENDBRANCH  19  21
ENDBRANCH   6  19
TORSDOF 6
ENDMDL
MODEL 9
REMARK VINA RESULT:      -7.3      3.494      6.865
REMARK  6 active torsions:
REMARK  status: ('A' for Active; 'I' for Inactive)
REMARK    1  A    between atoms: C6_7  and  C7_8 
REMARK    2  A    between atoms: C7_8  and  N1_9 
REMARK    3  A    between atoms: N1_9  and  C8_10 
REMARK    4  A    between atoms: C9_11  and  O1_12 
REMARK    5  A    between atoms: C11_16  and  N4_17 
REMARK    6  A    between atoms: N4_17  and  C12_18 
ROOT
HETATM    1  C8  UNL     1      22.855   1.184  52.848  1.00  0.00     0.128 A 
HETATM    2  C9  UNL     1      22.121   0.035  52.985  1.00  0.00     0.194 A 
HETATM    3  N2  UNL     1      20.789   0.023  52.764  1.00  0.00    -0.216 NA
HETATM    4  C10 UNL     1      20.116   1.126  52.404  1.00  0.00     0.238 A 
HETATM    5  N3  UNL     1      20.832   2.237  52.274  1.00  0.00    -0.222 NA
HETATM    6  C11 UNL     1      22.142   2.305  52.477  1.00  0.00     0.160 A 
ENDROOT
BRANCH   1   7
HETATM    7  N1  UNL     1      24.240   1.112  53.079  1.00  0.00    -0.379 N 
HETATM    8  H8  UNL     1      24.638   1.399  53.998  1.00  0.00     0.160 HD
BRANCH   7   9
HETATM    9  C7  UNL     1      25.197   0.662  52.134  1.00  0.00     0.160 C 
BRANCH   9  10
HETATM   10  C6  UNL     1      26.571   0.860  52.715  1.00  0.00    -0.025 A 
HETATM   11  C2  UNL     1      27.279  -0.369  52.912  1.00  0.00    -0.037 A 
HETATM   12  C1  UNL     1      26.780  -1.558  52.617  1.00  0.00     0.024 C 
HETATM   13  C3  UNL     1      28.616  -0.491  53.449  1.00  0.00     0.018 A 
HETATM   14  C4  UNL     1      29.366   0.512  53.831  1.00  0.00     0.050 A 
HETATM   15  S1  UNL     1      28.743   2.203  53.706  1.00  0.00    -0.113 SA
HETATM   16  C5  UNL     1      27.102   2.049  53.024  1.00  0.00     0.059 A 
ENDBRANCH   9  10
ENDBRANCH   7   9
ENDBRANCH   1   7
BRANCH   2  17
HETATM   17  O1  UNL     1      22.560  -1.222  53.343  1.00  0.00    -0.343 OA
HETATM   18  H9  UNL     1      23.047  -1.403  54.189  1.00  0.00     0.219 HD
ENDBRANCH   2  17
BRANCH   6  19
HETATM   19  N4  UNL     1      22.831   3.533  52.319  1.00  0.00    -0.339 N 
HETATM   20  H11 UNL     1      23.039   4.101  53.162  1.00  0.00     0.167 HD
BRANCH  19  21
HETATM   21  C12 UNL     1      23.312   4.151  51.140  1.00  0.00     0.035 A 
HETATM   22  C13 UNL     1      22.552   4.919  50.289  1.00  0.00     0.029 A 
HETATM   23  C14 UNL     1      23.011   5.529  49.147  1.00  0.00     0.004 A 
HETATM   24  C15 UNL     1      24.333   5.378  48.799  1.00  0.00     0.019 A 
HETATM   25  C16 UNL     1      25.148   4.622  49.605  1.00  0.00     0.013 A 
HETATM   26 BR1  UNL     1      26.958   4.404  49.148  1.00  0.00    -0.051 Br
HETATM   27  C17 UNL     1      24.622   4.041  50.733  1.00  0.00     0.048 A 
ENDBRANCH  19  21
ENDBRANCH   6  19
TORSDOF 6
ENDMDL
