MODEL 1
REMARK VINA RESULT:      -9.4      0.000      0.000
REMARK  5 active torsions:
REMARK  status: ('A' for Active; 'I' for Inactive)
REMARK    1  A    between atoms: C6_7  and  N1_8 
REMARK    2  A    between atoms: N1_8  and  C7_9 
REMARK    3  A    between atoms: C11_13  and  N2_14 
REMARK    4  A    between atoms: N2_14  and  C12_15 
REMARK    5  A    between atoms: C15_19  and  C16_20 
ROOT
HETATM    1  C7  UNL     1      24.724  -0.060  53.023  1.00  0.00     0.030 A 
HETATM    2  C8  UNL     1      23.433  -0.474  53.276  1.00  0.00     0.029 A 
HETATM    3  C9  UNL     1      22.427   0.468  53.217  1.00  0.00     0.004 A 
HETATM    4  C10 UNL     1      22.757   1.767  52.910  1.00  0.00     0.030 A 
HETATM    5  C11 UNL     1      24.023   2.232  52.650  1.00  0.00     0.051 A 
HETATM    6  C21 UNL     1      24.993   1.256  52.721  1.00  0.00     0.059 A 
ENDROOT
BRANCH   5   7
HETATM    7  N2  UNL     1      24.385   3.562  52.332  1.00  0.00    -0.188 N 
HETATM    8  H14 UNL     1      24.758   4.146  53.115  1.00  0.00     0.184 HD
BRANCH   7   9
HETATM    9  C12 UNL     1      24.294   4.187  51.063  1.00  0.00     0.727 A 
HETATM   10  N3  UNL     1      23.194   4.410  50.333  1.00  0.00    -0.075 NA
HETATM   11  C13 UNL     1      23.129   4.992  49.153  1.00  0.00     0.139 A 
HETATM   12  C14 UNL     1      24.295   5.435  48.575  1.00  0.00     0.053 A 
HETATM   13  C15 UNL     1      25.460   5.239  49.271  1.00  0.00     0.089 A 
HETATM   14  N5  UNL     1      25.390   4.632  50.463  1.00  0.00    -0.062 NA
BRANCH  13  15
HETATM   15  C16 UNL     1      26.755   5.665  48.761  1.00  0.00     0.011 A 
HETATM   16  C17 UNL     1      27.034   6.941  48.335  1.00  0.00     0.017 A 
HETATM   17  C18 UNL     1      28.294   7.296  47.855  1.00  0.00     0.020 A 
HETATM   18  C19 UNL     1      29.290   6.353  47.800  1.00  0.00     0.116 A 
HETATM   19  N4  UNL     1      29.043   5.085  48.213  1.00  0.00    -0.272 NA
HETATM   20  C20 UNL     1      27.803   4.772  48.677  1.00  0.00     0.130 A 
ENDBRANCH  13  15
ENDBRANCH   7   9
ENDBRANCH   5   7
BRANCH   1  21
HETATM   21  N1  UNL     1      25.790  -0.997  53.073  1.00  0.00    -0.378 N 
HETATM   22  H10 UNL     1      25.611  -2.018  52.948  1.00  0.00     0.160 HD
BRANCH  21  23
HETATM   23  C6  UNL     1      27.150  -0.604  53.291  1.00  0.00     0.151 C 
HETATM   24  C1  UNL     1      27.406  -0.096  54.676  1.00  0.00     0.149 C 
HETATM   25  O1  UNL     1      26.681  -0.213  55.647  1.00  0.00    -0.296 OA
HETATM   26  C2  UNL     1      28.695   0.627  54.856  1.00  0.00     0.080 C 
HETATM   27  C3  UNL     1      29.562   0.291  53.660  1.00  0.00     0.007 C 
HETATM   28  C4  UNL     1      29.512  -1.181  53.322  1.00  0.00     0.003 C 
HETATM   29  C5  UNL     1      28.144  -1.662  52.958  1.00  0.00     0.033 C 
ENDBRANCH  21  23
ENDBRANCH   1  21
TORSDOF 5
ENDMDL
MODEL 2
REMARK VINA RESULT:      -9.2      2.089      3.013
REMARK  5 active torsions:
REMARK  status: ('A' for Active; 'I' for Inactive)
REMARK    1  A    between atoms: C6_7  and  N1_8 
REMARK    2  A    between atoms: N1_8  and  C7_9 
REMARK    3  A    between atoms: C11_13  and  N2_14 
REMARK    4  A    between atoms: N2_14  and  C12_15 
REMARK    5  A    between atoms: C15_19  and  C16_20 
ROOT
HETATM    1  C7  UNL     1      24.140  -0.538  53.813  1.00  0.00     0.030 A 
HETATM    2  C8  UNL     1      23.529  -1.160  54.883  1.00  0.00     0.029 A 
HETATM    3  C9  UNL     1      22.181  -0.942  55.075  1.00  0.00     0.004 A 
HETATM    4  C10 UNL     1      21.514  -0.121  54.198  1.00  0.00     0.030 A 
HETATM    5  C11 UNL     1      22.071   0.522  53.119  1.00  0.00     0.051 A 
HETATM    6  C21 UNL     1      23.418   0.274  52.968  1.00  0.00     0.059 A 
ENDROOT
BRANCH   5   7
HETATM    7  N2  UNL     1      21.404   1.369  52.204  1.00  0.00    -0.188 N 
HETATM    8  H14 UNL     1      20.554   1.865  52.560  1.00  0.00     0.184 HD
BRANCH   7   9
HETATM    9  C12 UNL     1      21.765   1.616  50.857  1.00  0.00     0.727 A 
HETATM   10  N3  UNL     1      21.219   1.097  49.750  1.00  0.00    -0.075 NA
HETATM   11  C13 UNL     1      21.569   1.339  48.503  1.00  0.00     0.139 A 
HETATM   12  C14 UNL     1      22.602   2.215  48.270  1.00  0.00     0.053 A 
HETATM   13  C15 UNL     1      23.207   2.784  49.362  1.00  0.00     0.089 A 
HETATM   14  N5  UNL     1      22.756   2.454  50.579  1.00  0.00    -0.062 NA
BRANCH  13  15
HETATM   15  C16 UNL     1      24.310   3.726  49.239  1.00  0.00     0.011 A 
HETATM   16  C17 UNL     1      25.627   3.402  49.454  1.00  0.00     0.017 A 
HETATM   17  C18 UNL     1      26.647   4.345  49.322  1.00  0.00     0.020 A 
HETATM   18  C19 UNL     1      26.337   5.634  48.968  1.00  0.00     0.116 A 
HETATM   19  N4  UNL     1      25.046   5.982  48.749  1.00  0.00    -0.272 NA
HETATM   20  C20 UNL     1      24.075   5.038  48.886  1.00  0.00     0.130 A 
ENDBRANCH  13  15
ENDBRANCH   7   9
ENDBRANCH   5   7
BRANCH   1  21
HETATM   21  N1  UNL     1      25.526  -0.735  53.577  1.00  0.00    -0.378 N 
HETATM   22  H10 UNL     1      25.908  -1.691  53.403  1.00  0.00     0.160 HD
BRANCH  21  23
HETATM   23  C6  UNL     1      26.465   0.346  53.562  1.00  0.00     0.151 C 
HETATM   24  C1  UNL     1      27.863  -0.077  53.893  1.00  0.00     0.149 C 
HETATM   25  O1  UNL     1      28.299  -1.213  53.924  1.00  0.00    -0.296 OA
HETATM   26  C2  UNL     1      28.800   1.035  54.216  1.00  0.00     0.080 C 
HETATM   27  C3  UNL     1      28.154   2.314  53.725  1.00  0.00     0.007 C 
HETATM   28  C4  UNL     1      27.552   2.152  52.349  1.00  0.00     0.003 C 
HETATM   29  C5  UNL     1      26.469   1.123  52.291  1.00  0.00     0.033 C 
ENDBRANCH  21  23
ENDBRANCH   1  21
TORSDOF 5
ENDMDL
MODEL 3
REMARK VINA RESULT:      -9.1      4.310      8.279
REMARK  5 active torsions:
REMARK  status: ('A' for Active; 'I' for Inactive)
REMARK    1  A    between atoms: C6_7  and  N1_8 
REMARK    2  A    between atoms: N1_8  and  C7_9 
REMARK    3  A    between atoms: C11_13  and  N2_14 
REMARK    4  A    between atoms: N2_14  and  C12_15 
REMARK    5  A    between atoms: C15_19  and  C16_20 
ROOT
HETATM    1  C7  UNL     1      24.955   0.010  52.787  1.00  0.00     0.030 A 
HETATM    2  C8  UNL     1      25.265   1.106  52.009  1.00  0.00     0.029 A 
HETATM    3  C9  UNL     1      24.274   2.036  51.775  1.00  0.00     0.004 A 
HETATM    4  C10 UNL     1      23.032   1.828  52.325  1.00  0.00     0.030 A 
HETATM    5  C11 UNL     1      22.669   0.757  53.106  1.00  0.00     0.051 A 
HETATM    6  C21 UNL     1      23.691  -0.143  53.312  1.00  0.00     0.059 A 
ENDROOT
BRANCH   5   7
HETATM    7  N2  UNL     1      21.399   0.525  53.682  1.00  0.00    -0.188 N 
HETATM    8  H14 UNL     1      21.379   0.331  54.710  1.00  0.00     0.184 HD
BRANCH   7   9
HETATM    9  C12 UNL     1      20.150   0.525  53.013  1.00  0.00     0.727 A 
HETATM   10  N3  UNL     1      19.646   1.473  52.211  1.00  0.00    -0.075 NA
HETATM   11  C13 UNL     1      18.481   1.456  51.597  1.00  0.00     0.139 A 
HETATM   12  C14 UNL     1      17.663   0.365  51.770  1.00  0.00     0.053 A 
HETATM   13  C15 UNL     1      18.119  -0.644  52.580  1.00  0.00     0.089 A 
HETATM   14  N5  UNL     1      19.325  -0.505  53.148  1.00  0.00    -0.062 NA
BRANCH  13  15
HETATM   15  C16 UNL     1      17.342  -1.848  52.838  1.00  0.00     0.011 A 
HETATM   16  C17 UNL     1      17.802  -2.922  53.560  1.00  0.00     0.017 A 
HETATM   17  C18 UNL     1      17.013  -4.052  53.778  1.00  0.00     0.020 A 
HETATM   18  C19 UNL     1      15.743  -4.103  53.261  1.00  0.00     0.116 A 
HETATM   19  N4  UNL     1      15.263  -3.057  52.544  1.00  0.00    -0.272 NA
HETATM   20  C20 UNL     1      16.058  -1.970  52.350  1.00  0.00     0.130 A 
ENDBRANCH  13  15
ENDBRANCH   7   9
ENDBRANCH   5   7
BRANCH   1  21
HETATM   21  N1  UNL     1      25.946  -0.972  53.055  1.00  0.00    -0.378 N 
HETATM   22  H10 UNL     1      25.693  -1.983  53.116  1.00  0.00     0.160 HD
BRANCH  21  23
HETATM   23  C6  UNL     1      27.324  -0.639  53.250  1.00  0.00     0.151 C 
HETATM   24  C1  UNL     1      27.593   0.032  54.562  1.00  0.00     0.149 C 
HETATM   25  O1  UNL     1      26.848   0.092  55.523  1.00  0.00    -0.296 OA
HETATM   26  C2  UNL     1      28.924   0.690  54.675  1.00  0.00     0.080 C 
HETATM   27  C3  UNL     1      29.784   0.144  53.553  1.00  0.00     0.007 C 
HETATM   28  C4  UNL     1      29.643  -1.354  53.412  1.00  0.00     0.003 C 
HETATM   29  C5  UNL     1      28.253  -1.792  53.084  1.00  0.00     0.033 C 
ENDBRANCH  21  23
ENDBRANCH   1  21
TORSDOF 5
ENDMDL
MODEL 4
REMARK VINA RESULT:      -9.1      2.824      7.098
REMARK  5 active torsions:
REMARK  status: ('A' for Active; 'I' for Inactive)
REMARK    1  A    between atoms: C6_7  and  N1_8 
REMARK    2  A    between atoms: N1_8  and  C7_9 
REMARK    3  A    between atoms: C11_13  and  N2_14 
REMARK    4  A    between atoms: N2_14  and  C12_15 
REMARK    5  A    between atoms: C15_19  and  C16_20 
ROOT
HETATM    1  C7  UNL     1      22.697   3.283  49.605  1.00  0.00     0.030 A 
HETATM    2  C8  UNL     1      22.712   2.830  48.302  1.00  0.00     0.029 A 
HETATM    3  C9  UNL     1      22.068   1.644  48.020  1.00  0.00     0.004 A 
HETATM    4  C10 UNL     1      21.444   0.973  49.045  1.00  0.00     0.030 A 
HETATM    5  C11 UNL     1      21.398   1.377  50.358  1.00  0.00     0.051 A 
HETATM    6  C21 UNL     1      22.054   2.566  50.589  1.00  0.00     0.059 A 
ENDROOT
BRANCH   5   7
HETATM    7  N2  UNL     1      20.762   0.704  51.426  1.00  0.00    -0.188 N 
HETATM    8  H14 UNL     1      19.718   0.663  51.399  1.00  0.00     0.184 HD
BRANCH   7   9
HETATM    9  C12 UNL     1      21.393   0.078  52.530  1.00  0.00     0.727 A 
HETATM   10  N3  UNL     1      20.816  -0.588  53.538  1.00  0.00    -0.075 NA
HETATM   11  C13 UNL     1      21.419  -1.164  54.558  1.00  0.00     0.139 A 
HETATM   12  C14 UNL     1      22.790  -1.098  54.631  1.00  0.00     0.053 A 
HETATM   13  C15 UNL     1      23.446  -0.430  53.628  1.00  0.00     0.089 A 
HETATM   14  N5  UNL     1      22.714   0.113  52.646  1.00  0.00    -0.062 NA
BRANCH  13  15
HETATM   15  C16 UNL     1      24.895  -0.295  53.599  1.00  0.00     0.011 A 
HETATM   16  C17 UNL     1      25.622  -0.032  52.464  1.00  0.00     0.017 A 
HETATM   17  C18 UNL     1      27.011   0.088  52.494  1.00  0.00     0.020 A 
HETATM   18  C19 UNL     1      27.680  -0.058  53.683  1.00  0.00     0.116 A 
HETATM   19  N4  UNL     1      26.989  -0.318  54.819  1.00  0.00    -0.272 NA
HETATM   20  C20 UNL     1      25.634  -0.428  54.756  1.00  0.00     0.130 A 
ENDBRANCH  13  15
ENDBRANCH   7   9
ENDBRANCH   5   7
BRANCH   1  21
HETATM   21  N1  UNL     1      23.347   4.501  49.939  1.00  0.00    -0.378 N 
HETATM   22  H10 UNL     1      22.873   5.213  50.537  1.00  0.00     0.160 HD
BRANCH  21  23
HETATM   23  C6  UNL     1      24.667   4.817  49.484  1.00  0.00     0.151 C 
HETATM   24  C1  UNL     1      25.190   6.109  50.031  1.00  0.00     0.149 C 
HETATM   25  O1  UNL     1      24.736   6.751  50.961  1.00  0.00    -0.296 OA
HETATM   26  C2  UNL     1      26.398   6.645  49.344  1.00  0.00     0.080 C 
HETATM   27  C3  UNL     1      26.984   5.508  48.531  1.00  0.00     0.007 C 
HETATM   28  C4  UNL     1      27.017   4.215  49.311  1.00  0.00     0.003 C 
HETATM   29  C5  UNL     1      25.663   3.736  49.727  1.00  0.00     0.033 C 
ENDBRANCH  21  23
ENDBRANCH   1  21
TORSDOF 5
ENDMDL
MODEL 5
REMARK VINA RESULT:      -9.0      1.911      2.883
REMARK  5 active torsions:
REMARK  status: ('A' for Active; 'I' for Inactive)
REMARK    1  A    between atoms: C6_7  and  N1_8 
REMARK    2  A    between atoms: N1_8  and  C7_9 
REMARK    3  A    between atoms: C11_13  and  N2_14 
REMARK    4  A    between atoms: N2_14  and  C12_15 
REMARK    5  A    between atoms: C15_19  and  C16_20 
ROOT
HETATM    1  C7  UNL     1      24.682  -0.747  54.159  1.00  0.00     0.030 A 
HETATM    2  C8  UNL     1      24.042  -1.293  55.252  1.00  0.00     0.029 A 
HETATM    3  C9  UNL     1      22.670  -1.174  55.326  1.00  0.00     0.004 A 
HETATM    4  C10 UNL     1      22.009  -0.520  54.314  1.00  0.00     0.030 A 
HETATM    5  C11 UNL     1      22.595   0.041  53.205  1.00  0.00     0.051 A 
HETATM    6  C21 UNL     1      23.965  -0.104  53.175  1.00  0.00     0.059 A 
ENDROOT
BRANCH   5   7
HETATM    7  N2  UNL     1      21.935   0.716  52.152  1.00  0.00    -0.188 N 
HETATM    8  H14 UNL     1      21.324   0.135  51.534  1.00  0.00     0.184 HD
BRANCH   7   9
HETATM    9  C12 UNL     1      22.016   2.098  51.847  1.00  0.00     0.727 A 
HETATM   10  N3  UNL     1      21.111   3.051  52.100  1.00  0.00    -0.075 NA
HETATM   11  C13 UNL     1      21.203   4.332  51.808  1.00  0.00     0.139 A 
HETATM   12  C14 UNL     1      22.338   4.780  51.175  1.00  0.00     0.053 A 
HETATM   13  C15 UNL     1      23.308   3.855  50.886  1.00  0.00     0.089 A 
HETATM   14  N5  UNL     1      23.091   2.580  51.236  1.00  0.00    -0.062 NA
BRANCH  13  15
HETATM   15  C16 UNL     1      24.551   4.211  50.218  1.00  0.00     0.011 A 
HETATM   16  C17 UNL     1      25.564   3.323  49.950  1.00  0.00     0.017 A 
HETATM   17  C18 UNL     1      26.736   3.719  49.305  1.00  0.00     0.020 A 
HETATM   18  C19 UNL     1      26.892   5.029  48.925  1.00  0.00     0.116 A 
HETATM   19  N4  UNL     1      25.909   5.927  49.177  1.00  0.00    -0.272 NA
HETATM   20  C20 UNL     1      24.778   5.508  49.807  1.00  0.00     0.130 A 
ENDBRANCH  13  15
ENDBRANCH   7   9
ENDBRANCH   5   7
BRANCH   1  21
HETATM   21  N1  UNL     1      26.094  -0.848  54.041  1.00  0.00    -0.378 N 
HETATM   22  H10 UNL     1      26.565  -1.779  54.048  1.00  0.00     0.160 HD
BRANCH  21  23
HETATM   23  C6  UNL     1      26.938   0.301  53.908  1.00  0.00     0.151 C 
HETATM   24  C1  UNL     1      28.388   0.002  54.132  1.00  0.00     0.149 C 
HETATM   25  O1  UNL     1      28.915  -1.095  54.163  1.00  0.00    -0.296 OA
HETATM   26  C2  UNL     1      29.256   1.194  54.334  1.00  0.00     0.080 C 
HETATM   27  C3  UNL     1      28.471   2.399  53.857  1.00  0.00     0.007 C 
HETATM   28  C4  UNL     1      27.771   2.134  52.545  1.00  0.00     0.003 C 
HETATM   29  C5  UNL     1      26.774   1.023  52.616  1.00  0.00     0.033 C 
ENDBRANCH  21  23
ENDBRANCH   1  21
TORSDOF 5
ENDMDL
MODEL 6
REMARK VINA RESULT:      -9.0      1.756      3.086
REMARK  5 active torsions:
REMARK  status: ('A' for Active; 'I' for Inactive)
REMARK    1  A    between atoms: C6_7  and  N1_8 
REMARK    2  A    between atoms: N1_8  and  C7_9 
REMARK    3  A    between atoms: C11_13  and  N2_14 
REMARK    4  A    between atoms: N2_14  and  C12_15 
REMARK    5  A    between atoms: C15_19  and  C16_20 
ROOT
HETATM    1  C7  UNL     1      25.461   1.326  52.240  1.00  0.00     0.030 A 
HETATM    2  C8  UNL     1      24.479   2.115  52.802  1.00  0.00     0.029 A 
HETATM    3  C9  UNL     1      24.195   3.323  52.201  1.00  0.00     0.004 A 
HETATM    4  C10 UNL     1      24.900   3.682  51.077  1.00  0.00     0.030 A 
HETATM    5  C11 UNL     1      25.886   2.937  50.477  1.00  0.00     0.051 A 
HETATM    6  C21 UNL     1      26.134   1.740  51.112  1.00  0.00     0.059 A 
ENDROOT
BRANCH   5   7
HETATM    7  N2  UNL     1      26.623   3.287  49.321  1.00  0.00    -0.188 N 
HETATM    8  H14 UNL     1      26.883   2.505  48.678  1.00  0.00     0.184 HD
BRANCH   7   9
HETATM    9  C12 UNL     1      27.046   4.586  48.945  1.00  0.00     0.727 A 
HETATM   10  N3  UNL     1      26.303   5.694  48.838  1.00  0.00    -0.075 NA
HETATM   11  C13 UNL     1      26.714   6.895  48.485  1.00  0.00     0.139 A 
HETATM   12  C14 UNL     1      28.045   7.072  48.188  1.00  0.00     0.053 A 
HETATM   13  C15 UNL     1      28.864   5.975  48.278  1.00  0.00     0.089 A 
HETATM   14  N5  UNL     1      28.320   4.808  48.648  1.00  0.00    -0.062 NA
BRANCH  13  15
HETATM   15  C16 UNL     1      30.288   6.040  47.987  1.00  0.00     0.011 A 
HETATM   16  C17 UNL     1      31.065   4.948  47.688  1.00  0.00     0.017 A 
HETATM   17  C18 UNL     1      32.428   5.068  47.416  1.00  0.00     0.020 A 
HETATM   18  C19 UNL     1      33.020   6.305  47.447  1.00  0.00     0.116 A 
HETATM   19  N4  UNL     1      32.278   7.401  47.740  1.00  0.00    -0.272 NA
HETATM   20  C20 UNL     1      30.951   7.250  47.999  1.00  0.00     0.130 A 
ENDBRANCH  13  15
ENDBRANCH   7   9
ENDBRANCH   5   7
BRANCH   1  21
HETATM   21  N1  UNL     1      25.785   0.073  52.826  1.00  0.00    -0.378 N 
HETATM   22  H10 UNL     1      25.034  -0.574  53.153  1.00  0.00     0.160 HD
BRANCH  21  23
HETATM   23  C6  UNL     1      27.136  -0.369  52.997  1.00  0.00     0.151 C 
HETATM   24  C1  UNL     1      27.744   0.069  54.293  1.00  0.00     0.149 C 
HETATM   25  O1  UNL     1      27.162   0.519  55.263  1.00  0.00    -0.296 OA
HETATM   26  C2  UNL     1      29.225  -0.072  54.377  1.00  0.00     0.080 C 
HETATM   27  C3  UNL     1      29.645  -0.998  53.254  1.00  0.00     0.007 C 
HETATM   28  C4  UNL     1      28.733  -2.197  53.139  1.00  0.00     0.003 C 
HETATM   29  C5  UNL     1      27.314  -1.840  52.837  1.00  0.00     0.033 C 
ENDBRANCH  21  23
ENDBRANCH   1  21
TORSDOF 5
ENDMDL
MODEL 7
REMARK VINA RESULT:      -8.7      3.610      8.144
REMARK  5 active torsions:
REMARK  status: ('A' for Active; 'I' for Inactive)
REMARK    1  A    between atoms: C6_7  and  N1_8 
REMARK    2  A    between atoms: N1_8  and  C7_9 
REMARK    3  A    between atoms: C11_13  and  N2_14 
REMARK    4  A    between atoms: N2_14  and  C12_15 
REMARK    5  A    between atoms: C15_19  and  C16_20 
ROOT
HETATM    1  C7  UNL     1      29.614   6.650  48.107  1.00  0.00     0.030 A 
HETATM    2  C8  UNL     1      28.952   7.855  48.211  1.00  0.00     0.029 A 
HETATM    3  C9  UNL     1      27.606   7.832  48.511  1.00  0.00     0.004 A 
HETATM    4  C10 UNL     1      26.991   6.615  48.691  1.00  0.00     0.030 A 
HETATM    5  C11 UNL     1      27.601   5.387  48.599  1.00  0.00     0.051 A 
HETATM    6  C21 UNL     1      28.944   5.462  48.298  1.00  0.00     0.059 A 
ENDROOT
BRANCH   5   7
HETATM    7  N2  UNL     1      26.989   4.126  48.781  1.00  0.00    -0.188 N 
HETATM    8  H14 UNL     1      27.031   3.464  47.971  1.00  0.00     0.184 HD
BRANCH   7   9
HETATM    9  C12 UNL     1      26.326   3.663  49.944  1.00  0.00     0.727 A 
HETATM   10  N3  UNL     1      25.060   3.891  50.315  1.00  0.00    -0.075 NA
HETATM   11  C13 UNL     1      24.459   3.452  51.402  1.00  0.00     0.139 A 
HETATM   12  C14 UNL     1      25.176   2.671  52.277  1.00  0.00     0.053 A 
HETATM   13  C15 UNL     1      26.481   2.397  51.957  1.00  0.00     0.089 A 
HETATM   14  N5  UNL     1      26.974   2.906  50.820  1.00  0.00    -0.062 NA
BRANCH  13  15
HETATM   15  C16 UNL     1      27.337   1.582  52.806  1.00  0.00     0.011 A 
HETATM   16  C17 UNL     1      27.384   0.210  52.764  1.00  0.00     0.017 A 
HETATM   17  C18 UNL     1      28.225  -0.523  53.601  1.00  0.00     0.020 A 
HETATM   18  C19 UNL     1      29.032   0.134  54.496  1.00  0.00     0.116 A 
HETATM   19  N4  UNL     1      29.007   1.488  54.560  1.00  0.00    -0.272 NA
HETATM   20  C20 UNL     1      28.176   2.173  53.728  1.00  0.00     0.130 A 
ENDBRANCH  13  15
ENDBRANCH   7   9
ENDBRANCH   5   7
BRANCH   1  21
HETATM   21  N1  UNL     1      31.001   6.627  47.801  1.00  0.00    -0.378 N 
HETATM   22  H10 UNL     1      31.591   7.477  47.937  1.00  0.00     0.160 HD
BRANCH  21  23
HETATM   23  C6  UNL     1      31.658   5.459  47.296  1.00  0.00     0.151 C 
HETATM   24  C1  UNL     1      32.515   5.730  46.099  1.00  0.00     0.149 C 
HETATM   25  O1  UNL     1      32.885   6.816  45.691  1.00  0.00    -0.296 OA
HETATM   26  C2  UNL     1      32.948   4.522  45.344  1.00  0.00     0.080 C 
HETATM   27  C3  UNL     1      32.714   3.329  46.249  1.00  0.00     0.007 C 
HETATM   28  C4  UNL     1      33.174   3.594  47.663  1.00  0.00     0.003 C 
HETATM   29  C5  UNL     1      32.453   4.726  48.321  1.00  0.00     0.033 C 
ENDBRANCH  21  23
ENDBRANCH   1  21
TORSDOF 5
ENDMDL
MODEL 8
REMARK VINA RESULT:      -8.6      2.736      7.703
REMARK  5 active torsions:
REMARK  status: ('A' for Active; 'I' for Inactive)
REMARK    1  A    between atoms: C6_7  and  N1_8 
REMARK    2  A    between atoms: N1_8  and  C7_9 
REMARK    3  A    between atoms: C11_13  and  N2_14 
REMARK    4  A    between atoms: N2_14  and  C12_15 
REMARK    5  A    between atoms: C15_19  and  C16_20 
ROOT
HETATM    1  C7  UNL     1      24.826   6.314  50.578  1.00  0.00     0.030 A 
HETATM    2  C8  UNL     1      23.702   7.059  50.866  1.00  0.00     0.029 A 
HETATM    3  C9  UNL     1      22.492   6.403  50.942  1.00  0.00     0.004 A 
HETATM    4  C10 UNL     1      22.463   5.046  50.728  1.00  0.00     0.030 A 
HETATM    5  C11 UNL     1      23.550   4.256  50.439  1.00  0.00     0.051 A 
HETATM    6  C21 UNL     1      24.735   4.956  50.374  1.00  0.00     0.059 A 
ENDROOT
BRANCH   5   7
HETATM    7  N2  UNL     1      23.543   2.860  50.216  1.00  0.00    -0.188 N 
HETATM    8  H14 UNL     1      23.528   2.545  49.219  1.00  0.00     0.184 HD
BRANCH   7   9
HETATM    9  C12 UNL     1      23.554   1.843  51.203  1.00  0.00     0.727 A 
HETATM   10  N3  UNL     1      22.512   1.155  51.688  1.00  0.00    -0.075 NA
HETATM   11  C13 UNL     1      22.541   0.212  52.607  1.00  0.00     0.139 A 
HETATM   12  C14 UNL     1      23.755  -0.136  53.151  1.00  0.00     0.053 A 
HETATM   13  C15 UNL     1      24.865   0.530  52.698  1.00  0.00     0.089 A 
HETATM   14  N5  UNL     1      24.700   1.471  51.759  1.00  0.00    -0.062 NA
BRANCH  13  15
HETATM   15  C16 UNL     1      26.202   0.248  53.200  1.00  0.00     0.011 A 
HETATM   16  C17 UNL     1      27.030  -0.721  52.687  1.00  0.00     0.017 A 
HETATM   17  C18 UNL     1      28.304  -0.948  53.208  1.00  0.00     0.020 A 
HETATM   18  C19 UNL     1      28.753  -0.190  54.260  1.00  0.00     0.116 A 
HETATM   19  N4  UNL     1      27.958   0.773  54.786  1.00  0.00    -0.272 NA
HETATM   20  C20 UNL     1      26.720   0.970  54.255  1.00  0.00     0.130 A 
ENDBRANCH  13  15
ENDBRANCH   7   9
ENDBRANCH   5   7
BRANCH   1  21
HETATM   21  N1  UNL     1      26.094   6.949  50.491  1.00  0.00    -0.378 N 
HETATM   22  H10 UNL     1      26.726   6.995  51.320  1.00  0.00     0.160 HD
BRANCH  21  23
HETATM   23  C6  UNL     1      26.570   7.552  49.283  1.00  0.00     0.151 C 
HETATM   24  C1  UNL     1      27.139   8.922  49.486  1.00  0.00     0.149 C 
HETATM   25  O1  UNL     1      27.449   9.439  50.544  1.00  0.00    -0.296 OA
HETATM   26  C2  UNL     1      27.339   9.716  48.242  1.00  0.00     0.080 C 
HETATM   27  C3  UNL     1      27.272   8.743  47.082  1.00  0.00     0.007 C 
HETATM   28  C4  UNL     1      28.055   7.481  47.358  1.00  0.00     0.003 C 
HETATM   29  C5  UNL     1      27.550   6.713  48.537  1.00  0.00     0.033 C 
ENDBRANCH  21  23
ENDBRANCH   1  21
TORSDOF 5
ENDMDL
MODEL 9
REMARK VINA RESULT:      -8.5      2.447      7.455
REMARK  5 active torsions:
REMARK  status: ('A' for Active; 'I' for Inactive)
REMARK    1  A    between atoms: C6_7  and  N1_8 
REMARK    2  A    between atoms: N1_8  and  C7_9 
REMARK    3  A    between atoms: C11_13  and  N2_14 
REMARK    4  A    between atoms: N2_14  and  C12_15 
REMARK    5  A    between atoms: C15_19  and  C16_20 
ROOT
HETATM    1  C7  UNL     1      26.189   4.917  49.447  1.00  0.00     0.030 A 
HETATM    2  C8  UNL     1      25.618   6.076  49.931  1.00  0.00     0.029 A 
HETATM    3  C9  UNL     1      24.440   5.971  50.641  1.00  0.00     0.004 A 
HETATM    4  C10 UNL     1      23.894   4.724  50.832  1.00  0.00     0.030 A 
HETATM    5  C11 UNL     1      24.420   3.540  50.374  1.00  0.00     0.051 A 
HETATM    6  C21 UNL     1      25.595   3.696  49.672  1.00  0.00     0.059 A 
ENDROOT
BRANCH   5   7
HETATM    7  N2  UNL     1      23.876   2.247  50.559  1.00  0.00    -0.188 N 
HETATM    8  H14 UNL     1      23.229   1.900  49.814  1.00  0.00     0.184 HD
BRANCH   7   9
HETATM    9  C12 UNL     1      24.116   1.374  51.648  1.00  0.00     0.727 A 
HETATM   10  N3  UNL     1      23.215   0.793  52.451  1.00  0.00    -0.075 NA
HETATM   11  C13 UNL     1      23.457  -0.018  53.461  1.00  0.00     0.139 A 
HETATM   12  C14 UNL     1      24.764  -0.328  53.755  1.00  0.00     0.053 A 
HETATM   13  C15 UNL     1      25.738   0.234  52.970  1.00  0.00     0.089 A 
HETATM   14  N5  UNL     1      25.359   1.044  51.972  1.00  0.00    -0.062 NA
BRANCH  13  15
HETATM   15  C16 UNL     1      27.155  -0.021  53.185  1.00  0.00     0.011 A 
HETATM   16  C17 UNL     1      27.749  -1.251  53.038  1.00  0.00     0.017 A 
HETATM   17  C18 UNL     1      29.114  -1.438  53.257  1.00  0.00     0.020 A 
HETATM   18  C19 UNL     1      29.894  -0.373  53.631  1.00  0.00     0.116 A 
HETATM   19  N4  UNL     1      29.335   0.853  53.784  1.00  0.00    -0.272 NA
HETATM   20  C20 UNL     1      28.001   1.002  53.562  1.00  0.00     0.130 A 
ENDBRANCH  13  15
ENDBRANCH   7   9
ENDBRANCH   5   7
BRANCH   1  21
HETATM   21  N1  UNL     1      27.402   4.980  48.712  1.00  0.00    -0.378 N 
HETATM   22  H10 UNL     1      27.808   4.122  48.277  1.00  0.00     0.160 HD
BRANCH  21  23
HETATM   23  C6  UNL     1      28.127   6.201  48.527  1.00  0.00     0.151 C 
HETATM   24  C1  UNL     1      29.596   5.994  48.324  1.00  0.00     0.149 C 
HETATM   25  O1  UNL     1      30.162   4.948  48.065  1.00  0.00    -0.296 OA
HETATM   26  C2  UNL     1      30.432   7.220  48.459  1.00  0.00     0.080 C 
HETATM   27  C3  UNL     1      29.493   8.406  48.374  1.00  0.00     0.007 C 
HETATM   28  C4  UNL     1      28.482   8.248  47.263  1.00  0.00     0.003 C 
HETATM   29  C5  UNL     1      27.591   7.060  47.434  1.00  0.00     0.033 C 
ENDBRANCH  21  23
ENDBRANCH   1  21
TORSDOF 5
ENDMDL
