MODEL 1
REMARK VINA RESULT:      -7.6      0.000      0.000
REMARK  9 active torsions:
REMARK  status: ('A' for Active; 'I' for Inactive)
REMARK    1  A    between atoms: O1_2  and  C2_3 
REMARK    2  A    between atoms: C2_3  and  C3_4 
REMARK    3  A    between atoms: C3_4  and  O2_5 
REMARK    4  A    between atoms: O2_5  and  C4_6 
REMARK    5  A    between atoms: C9_11  and  O3_12 
REMARK    6  A    between atoms: O3_12  and  C10_13 
REMARK    7  A    between atoms: C10_13  and  C11_14 
REMARK    8  A    between atoms: C11_14  and  O4_15 
REMARK    9  A    between atoms: C21_26  and  N2_27 
ROOT
HETATM    1  C4  UNL     1      20.920   2.855  52.341  1.00  0.00     0.102 A 
HETATM    2  C5  UNL     1      21.948   3.737  52.166  1.00  0.00     0.040 A 
HETATM    3  C6  UNL     1      23.195   3.071  52.180  1.00  0.00     0.013 A 
HETATM    4  C7  UNL     1      23.523   1.737  52.333  1.00  0.00    -0.015 A 
HETATM    5  C8  UNL     1      22.425   0.824  52.517  1.00  0.00     0.004 A 
HETATM    6  C9  UNL     1      21.177   1.515  52.501  1.00  0.00     0.110 A 
HETATM    7  C13 UNL     1      22.006  -0.586  52.714  1.00  0.00     0.173 A 
HETATM    8  N1  UNL     1      21.661  -0.902  54.131  1.00  0.00    -0.280 N 
HETATM    9  C14 UNL     1      22.946  -0.737  54.149  1.00  0.00     0.056 A 
HETATM   10  C15 UNL     1      23.992  -0.600  54.142  1.00  0.00    -0.057 C 
HETATM   11  C16 UNL     1      25.254  -0.424  54.111  1.00  0.00    -0.088 C 
HETATM   12  C17 UNL     1      26.333  -0.260  54.066  1.00  0.00     0.052 A 
HETATM   13  C18 UNL     1      27.675  -0.033  53.995  1.00  0.00     0.020 A 
HETATM   14  C19 UNL     1      27.137   0.496  52.806  1.00  0.00     0.017 A 
HETATM   15  C20 UNL     1      25.736   0.535  52.248  1.00  0.00     0.047 C 
HETATM   16  C21 UNL     1      25.042   1.780  52.275  1.00  0.00     0.252 C 
HETATM   17  H19 UNL     1      21.732  -1.089  55.155  1.00  0.00     0.128 HD
ENDROOT
BRANCH   1  18
HETATM   18  O2  UNL     1      19.648   3.404  52.343  1.00  0.00    -0.346 OA
BRANCH  18  19
HETATM   19  C3  UNL     1      19.130   4.006  51.175  1.00  0.00     0.201 C 
BRANCH  19  20
HETATM   20  C2  UNL     1      17.630   3.817  51.105  1.00  0.00     0.193 C 
BRANCH  20  21
HETATM   21  O1  UNL     1      17.054   4.024  52.327  1.00  0.00    -0.394 OA
HETATM   22  C1  UNL     1      15.676   4.052  52.360  1.00  0.00     0.201 C 
ENDBRANCH  20  21
ENDBRANCH  19  20
ENDBRANCH  18  19
ENDBRANCH   1  18
BRANCH   6  23
HETATM   23  O3  UNL     1      19.905   0.901  52.655  1.00  0.00    -0.346 OA
BRANCH  23  24
HETATM   24  C10 UNL     1      19.201   0.303  51.614  1.00  0.00     0.201 C 
BRANCH  24  25
HETATM   25  C11 UNL     1      18.133  -0.566  52.284  1.00  0.00     0.193 C 
BRANCH  25  26
HETATM   26  O4  UNL     1      18.598  -1.247  53.381  1.00  0.00    -0.394 OA
HETATM   27  C12 UNL     1      17.987  -2.444  53.654  1.00  0.00     0.201 C 
ENDBRANCH  25  26
ENDBRANCH  24  25
ENDBRANCH  23  24
ENDBRANCH   6  23
BRANCH  16  28
HETATM   28  N2  UNL     1      25.448   2.654  53.392  1.00  0.00     0.087 N 
HETATM   29  H25 UNL     1      26.478   2.834  53.397  1.00  0.00     0.313 HD
HETATM   30  H26 UNL     1      24.870   3.516  53.439  1.00  0.00     0.313 HD
ENDBRANCH  16  28
TORSDOF 9
ENDMDL
MODEL 2
REMARK VINA RESULT:      -7.5      1.480      4.016
REMARK  9 active torsions:
REMARK  status: ('A' for Active; 'I' for Inactive)
REMARK    1  A    between atoms: O1_2  and  C2_3 
REMARK    2  A    between atoms: C2_3  and  C3_4 
REMARK    3  A    between atoms: C3_4  and  O2_5 
REMARK    4  A    between atoms: O2_5  and  C4_6 
REMARK    5  A    between atoms: C9_11  and  O3_12 
REMARK    6  A    between atoms: O3_12  and  C10_13 
REMARK    7  A    between atoms: C10_13  and  C11_14 
REMARK    8  A    between atoms: C11_14  and  O4_15 
REMARK    9  A    between atoms: C21_26  and  N2_27 
ROOT
HETATM    1  C4  UNL     1      21.998   0.247  52.471  1.00  0.00     0.102 A 
HETATM    2  C5  UNL     1      22.432  -0.897  53.076  1.00  0.00     0.040 A 
HETATM    3  C6  UNL     1      23.737  -0.733  53.596  1.00  0.00     0.013 A 
HETATM    4  C7  UNL     1      24.599   0.347  53.590  1.00  0.00    -0.015 A 
HETATM    5  C8  UNL     1      24.123   1.544  52.946  1.00  0.00     0.004 A 
HETATM    6  C9  UNL     1      22.807   1.357  52.429  1.00  0.00     0.110 A 
HETATM    7  C13 UNL     1      24.413   2.952  52.579  1.00  0.00     0.173 A 
HETATM    8  N1  UNL     1      24.807   3.115  51.149  1.00  0.00    -0.280 N 
HETATM    9  C14 UNL     1      25.816   2.503  51.686  1.00  0.00     0.056 A 
HETATM   10  C15 UNL     1      26.626   2.006  52.142  1.00  0.00    -0.057 C 
HETATM   11  C16 UNL     1      27.591   1.400  52.713  1.00  0.00    -0.088 C 
HETATM   12  C17 UNL     1      28.403   0.872  53.218  1.00  0.00     0.052 A 
HETATM   13  C18 UNL     1      29.399   0.199  53.861  1.00  0.00     0.020 A 
HETATM   14  C19 UNL     1      28.276   0.114  54.706  1.00  0.00     0.017 A 
HETATM   15  C20 UNL     1      26.880   0.676  54.609  1.00  0.00     0.047 C 
HETATM   16  C21 UNL     1      25.820  -0.223  54.295  1.00  0.00     0.252 C 
HETATM   17  H19 UNL     1      25.342   3.081  50.253  1.00  0.00     0.128 HD
ENDROOT
BRANCH   1  18
HETATM   18  O2  UNL     1      20.725   0.196  51.927  1.00  0.00    -0.346 OA
BRANCH  18  19
HETATM   19  C3  UNL     1      19.610  -0.090  52.746  1.00  0.00     0.201 C 
BRANCH  19  20
HETATM   20  C2  UNL     1      18.335  -0.053  51.933  1.00  0.00     0.193 C 
BRANCH  20  21
HETATM   21  O1  UNL     1      17.542  -1.128  52.218  1.00  0.00    -0.394 OA
HETATM   22  C1  UNL     1      17.765  -1.754  53.426  1.00  0.00     0.201 C 
ENDBRANCH  20  21
ENDBRANCH  19  20
ENDBRANCH  18  19
ENDBRANCH   1  18
BRANCH   6  23
HETATM   23  O3  UNL     1      22.056   2.347  51.739  1.00  0.00    -0.346 OA
BRANCH  23  24
HETATM   24  C10 UNL     1      21.257   3.296  52.372  1.00  0.00     0.201 C 
BRANCH  24  25
HETATM   25  C11 UNL     1      20.058   3.510  51.445  1.00  0.00     0.193 C 
BRANCH  25  26
HETATM   26  O4  UNL     1      18.854   3.487  52.102  1.00  0.00    -0.394 OA
HETATM   27  C12 UNL     1      17.747   3.785  51.350  1.00  0.00     0.201 C 
ENDBRANCH  25  26
ENDBRANCH  24  25
ENDBRANCH  23  24
ENDBRANCH   6  23
BRANCH  16  28
HETATM   28  N2  UNL     1      26.247  -1.367  53.465  1.00  0.00     0.087 N 
HETATM   29  H25 UNL     1      25.708  -1.428  52.571  1.00  0.00     0.313 HD
HETATM   30  H26 UNL     1      27.277  -1.388  53.337  1.00  0.00     0.313 HD
ENDBRANCH  16  28
TORSDOF 9
ENDMDL
MODEL 3
REMARK VINA RESULT:      -7.0      4.115      7.176
REMARK  9 active torsions:
REMARK  status: ('A' for Active; 'I' for Inactive)
REMARK    1  A    between atoms: O1_2  and  C2_3 
REMARK    2  A    between atoms: C2_3  and  C3_4 
REMARK    3  A    between atoms: C3_4  and  O2_5 
REMARK    4  A    between atoms: O2_5  and  C4_6 
REMARK    5  A    between atoms: C9_11  and  O3_12 
REMARK    6  A    between atoms: O3_12  and  C10_13 
REMARK    7  A    between atoms: C10_13  and  C11_14 
REMARK    8  A    between atoms: C11_14  and  O4_15 
REMARK    9  A    between atoms: C21_26  and  N2_27 
ROOT
HETATM    1  C4  UNL     1      25.671   2.739  50.791  1.00  0.00     0.102 A 
HETATM    2  C5  UNL     1      24.447   3.068  50.282  1.00  0.00     0.040 A 
HETATM    3  C6  UNL     1      23.407   2.530  51.075  1.00  0.00     0.013 A 
HETATM    4  C7  UNL     1      23.430   1.765  52.225  1.00  0.00    -0.015 A 
HETATM    5  C8  UNL     1      24.731   1.429  52.745  1.00  0.00     0.004 A 
HETATM    6  C9  UNL     1      25.765   1.980  51.932  1.00  0.00     0.110 A 
HETATM    7  C13 UNL     1      25.497   0.738  53.811  1.00  0.00     0.173 A 
HETATM    8  N1  UNL     1      26.044  -0.581  53.379  1.00  0.00    -0.280 N 
HETATM    9  C14 UNL     1      24.764  -0.778  53.452  1.00  0.00     0.056 A 
HETATM   10  C15 UNL     1      23.721  -0.918  53.518  1.00  0.00    -0.057 C 
HETATM   11  C16 UNL     1      22.458  -1.062  53.599  1.00  0.00    -0.088 C 
HETATM   12  C17 UNL     1      21.372  -1.163  53.666  1.00  0.00     0.052 A 
HETATM   13  C18 UNL     1      20.014  -1.265  53.736  1.00  0.00     0.020 A 
HETATM   14  C19 UNL     1      20.291   0.115  53.723  1.00  0.00     0.017 A 
HETATM   15  C20 UNL     1      21.579   0.899  53.699  1.00  0.00     0.047 C 
HETATM   16  C21 UNL     1      21.949   1.538  52.480  1.00  0.00     0.252 C 
HETATM   17  H19 UNL     1      26.118  -1.581  53.086  1.00  0.00     0.128 HD
ENDROOT
BRANCH   1  18
HETATM   18  O2  UNL     1      26.765   3.219  50.089  1.00  0.00    -0.346 OA
BRANCH  18  19
HETATM   19  C3  UNL     1      26.650   4.385  49.299  1.00  0.00     0.201 C 
BRANCH  19  20
HETATM   20  C2  UNL     1      27.980   4.726  48.666  1.00  0.00     0.193 C 
BRANCH  20  21
HETATM   21  O1  UNL     1      27.964   5.988  48.143  1.00  0.00    -0.394 OA
HETATM   22  C1  UNL     1      29.182   6.514  47.767  1.00  0.00     0.201 C 
ENDBRANCH  20  21
ENDBRANCH  19  20
ENDBRANCH  18  19
ENDBRANCH   1  18
BRANCH   6  23
HETATM   23  O3  UNL     1      27.157   1.830  52.174  1.00  0.00    -0.346 OA
BRANCH  23  24
HETATM   24  C10 UNL     1      27.839   2.477  53.202  1.00  0.00     0.201 C 
BRANCH  24  25
HETATM   25  C11 UNL     1      29.055   1.597  53.507  1.00  0.00     0.193 C 
BRANCH  25  26
HETATM   26  O4  UNL     1      28.828   0.263  53.283  1.00  0.00    -0.394 OA
HETATM   27  C12 UNL     1      29.845  -0.590  53.627  1.00  0.00     0.201 C 
ENDBRANCH  25  26
ENDBRANCH  24  25
ENDBRANCH  23  24
ENDBRANCH   6  23
BRANCH  16  28
HETATM   28  N2  UNL     1      21.451   0.842  51.278  1.00  0.00     0.087 N 
HETATM   29  H25 UNL     1      22.013  -0.013  51.057  1.00  0.00     0.313 HD
HETATM   30  H26 UNL     1      20.428   0.671  51.326  1.00  0.00     0.313 HD
ENDBRANCH  16  28
TORSDOF 9
ENDMDL
MODEL 4
REMARK VINA RESULT:      -7.0      3.360      6.900
REMARK  9 active torsions:
REMARK  status: ('A' for Active; 'I' for Inactive)
REMARK    1  A    between atoms: O1_2  and  C2_3 
REMARK    2  A    between atoms: C2_3  and  C3_4 
REMARK    3  A    between atoms: C3_4  and  O2_5 
REMARK    4  A    between atoms: O2_5  and  C4_6 
REMARK    5  A    between atoms: C9_11  and  O3_12 
REMARK    6  A    between atoms: O3_12  and  C10_13 
REMARK    7  A    between atoms: C10_13  and  C11_14 
REMARK    8  A    between atoms: C11_14  and  O4_15 
REMARK    9  A    between atoms: C21_26  and  N2_27 
ROOT
HETATM    1  C4  UNL     1      26.156  -0.082  52.747  1.00  0.00     0.102 A 
HETATM    2  C5  UNL     1      27.136   0.657  52.149  1.00  0.00     0.040 A 
HETATM    3  C6  UNL     1      26.604   1.836  51.577  1.00  0.00     0.013 A 
HETATM    4  C7  UNL     1      25.317   2.335  51.531  1.00  0.00    -0.015 A 
HETATM    5  C8  UNL     1      24.298   1.541  52.168  1.00  0.00     0.004 A 
HETATM    6  C9  UNL     1      24.854   0.357  52.737  1.00  0.00     0.110 A 
HETATM    7  C13 UNL     1      22.861   1.417  52.515  1.00  0.00     0.173 A 
HETATM    8  N1  UNL     1      22.121   0.479  51.621  1.00  0.00    -0.280 N 
HETATM    9  C14 UNL     1      22.384   1.498  50.863  1.00  0.00     0.056 A 
HETATM   10  C15 UNL     1      22.606   2.336  50.262  1.00  0.00    -0.057 C 
HETATM   11  C16 UNL     1      22.893   3.356  49.555  1.00  0.00    -0.088 C 
HETATM   12  C17 UNL     1      23.155   4.236  48.963  1.00  0.00     0.052 A 
HETATM   13  C18 UNL     1      23.507   5.333  48.233  1.00  0.00     0.020 A 
HETATM   14  C19 UNL     1      24.308   5.372  49.390  1.00  0.00     0.017 A 
HETATM   15  C20 UNL     1      24.386   4.488  50.610  1.00  0.00     0.047 C 
HETATM   16  C21 UNL     1      25.505   3.614  50.730  1.00  0.00     0.252 C 
HETATM   17  H19 UNL     1      21.654   0.058  50.788  1.00  0.00     0.128 HD
ENDROOT
BRANCH   1  18
HETATM   18  O2  UNL     1      26.570  -1.262  53.342  1.00  0.00    -0.346 OA
BRANCH  18  19
HETATM   19  C3  UNL     1      27.116  -2.303  52.558  1.00  0.00     0.201 C 
BRANCH  19  20
HETATM   20  C2  UNL     1      28.551  -2.567  52.957  1.00  0.00     0.193 C 
BRANCH  20  21
HETATM   21  O1  UNL     1      28.951  -1.709  53.942  1.00  0.00    -0.394 OA
HETATM   22  C1  UNL     1      30.065  -0.942  53.674  1.00  0.00     0.201 C 
ENDBRANCH  20  21
ENDBRANCH  19  20
ENDBRANCH  18  19
ENDBRANCH   1  18
BRANCH   6  23
HETATM   23  O3  UNL     1      24.115  -0.635  53.435  1.00  0.00    -0.346 OA
BRANCH  23  24
HETATM   24  C10 UNL     1      24.182  -0.826  54.813  1.00  0.00     0.201 C 
BRANCH  24  25
HETATM   25  C11 UNL     1      22.818  -1.392  55.218  1.00  0.00     0.193 C 
BRANCH  25  26
HETATM   26  O4  UNL     1      21.765  -0.756  54.610  1.00  0.00    -0.394 OA
HETATM   27  C12 UNL     1      20.705  -1.548  54.251  1.00  0.00     0.201 C 
ENDBRANCH  25  26
ENDBRANCH  24  25
ENDBRANCH  23  24
ENDBRANCH   6  23
BRANCH  16  28
HETATM   28  N2  UNL     1      26.051   3.178  49.430  1.00  0.00     0.087 N 
HETATM   29  H25 UNL     1      26.896   2.572  49.541  1.00  0.00     0.313 HD
HETATM   30  H26 UNL     1      25.318   2.768  48.820  1.00  0.00     0.313 HD
ENDBRANCH  16  28
TORSDOF 9
ENDMDL
MODEL 5
REMARK VINA RESULT:      -6.7      3.492      7.978
REMARK  9 active torsions:
REMARK  status: ('A' for Active; 'I' for Inactive)
REMARK    1  A    between atoms: O1_2  and  C2_3 
REMARK    2  A    between atoms: C2_3  and  C3_4 
REMARK    3  A    between atoms: C3_4  and  O2_5 
REMARK    4  A    between atoms: O2_5  and  C4_6 
REMARK    5  A    between atoms: C9_11  and  O3_12 
REMARK    6  A    between atoms: O3_12  and  C10_13 
REMARK    7  A    between atoms: C10_13  and  C11_14 
REMARK    8  A    between atoms: C11_14  and  O4_15 
REMARK    9  A    between atoms: C21_26  and  N2_27 
ROOT
HETATM    1  C4  UNL     1      25.014   0.947  53.124  1.00  0.00     0.102 A 
HETATM    2  C5  UNL     1      24.323  -0.119  53.626  1.00  0.00     0.040 A 
HETATM    3  C6  UNL     1      23.024  -0.190  53.070  1.00  0.00     0.013 A 
HETATM    4  C7  UNL     1      22.376   0.608  52.146  1.00  0.00    -0.015 A 
HETATM    5  C8  UNL     1      23.122   1.727  51.630  1.00  0.00     0.004 A 
HETATM    6  C9  UNL     1      24.427   1.780  52.203  1.00  0.00     0.110 A 
HETATM    7  C13 UNL     1      23.128   2.894  50.714  1.00  0.00     0.173 A 
HETATM    8  N1  UNL     1      22.913   4.192  51.417  1.00  0.00    -0.280 N 
HETATM    9  C14 UNL     1      21.762   3.599  51.490  1.00  0.00     0.056 A 
HETATM   10  C15 UNL     1      20.834   3.100  51.538  1.00  0.00    -0.057 C 
HETATM   11  C16 UNL     1      19.725   2.475  51.590  1.00  0.00    -0.088 C 
HETATM   12  C17 UNL     1      18.785   1.919  51.631  1.00  0.00     0.052 A 
HETATM   13  C18 UNL     1      17.625   1.205  51.690  1.00  0.00     0.020 A 
HETATM   14  C19 UNL     1      18.626   0.278  51.340  1.00  0.00     0.017 A 
HETATM   15  C20 UNL     1      20.104   0.422  51.074  1.00  0.00     0.047 C 
HETATM   16  C21 UNL     1      21.010  -0.054  52.066  1.00  0.00     0.252 C 
HETATM   17  H19 UNL     1      22.470   4.979  51.942  1.00  0.00     0.128 HD
ENDROOT
BRANCH   1  18
HETATM   18  O2  UNL     1      26.304   1.108  53.603  1.00  0.00    -0.346 OA
BRANCH  18  19
HETATM   19  C3  UNL     1      27.171  -0.003  53.706  1.00  0.00     0.201 C 
BRANCH  19  20
HETATM   20  C2  UNL     1      28.213   0.239  54.775  1.00  0.00     0.193 C 
BRANCH  20  21
HETATM   21  O1  UNL     1      29.472   0.213  54.246  1.00  0.00    -0.394 OA
HETATM   22  C1  UNL     1      29.835  -0.937  53.580  1.00  0.00     0.201 C 
ENDBRANCH  20  21
ENDBRANCH  19  20
ENDBRANCH  18  19
ENDBRANCH   1  18
BRANCH   6  23
HETATM   23  O3  UNL     1      25.408   2.763  51.902  1.00  0.00    -0.346 OA
BRANCH  23  24
HETATM   24  C10 UNL     1      26.405   2.596  50.945  1.00  0.00     0.201 C 
BRANCH  24  25
HETATM   25  C11 UNL     1      26.380   3.870  50.097  1.00  0.00     0.193 C 
BRANCH  25  26
HETATM   26  O4  UNL     1      27.409   3.939  49.192  1.00  0.00    -0.394 OA
HETATM   27  C12 UNL     1      27.605   5.155  48.589  1.00  0.00     0.201 C 
ENDBRANCH  25  26
ENDBRANCH  24  25
ENDBRANCH  23  24
ENDBRANCH   6  23
BRANCH  16  28
HETATM   28  N2  UNL     1      20.467   0.012  53.437  1.00  0.00     0.087 N 
HETATM   29  H25 UNL     1      19.441   0.220  53.444  1.00  0.00     0.313 HD
HETATM   30  H26 UNL     1      20.730  -0.821  53.998  1.00  0.00     0.313 HD
ENDBRANCH  16  28
TORSDOF 9
ENDMDL
MODEL 6
REMARK VINA RESULT:      -6.7      9.218     12.828
REMARK  9 active torsions:
REMARK  status: ('A' for Active; 'I' for Inactive)
REMARK    1  A    between atoms: O1_2  and  C2_3 
REMARK    2  A    between atoms: C2_3  and  C3_4 
REMARK    3  A    between atoms: C3_4  and  O2_5 
REMARK    4  A    between atoms: O2_5  and  C4_6 
REMARK    5  A    between atoms: C9_11  and  O3_12 
REMARK    6  A    between atoms: O3_12  and  C10_13 
REMARK    7  A    between atoms: C10_13  and  C11_14 
REMARK    8  A    between atoms: C11_14  and  O4_15 
REMARK    9  A    between atoms: C21_26  and  N2_27 
ROOT
HETATM    1  C4  UNL     1      30.767   6.703  48.262  1.00  0.00     0.102 A 
HETATM    2  C5  UNL     1      30.228   5.453  48.167  1.00  0.00     0.040 A 
HETATM    3  C6  UNL     1      28.817   5.500  48.265  1.00  0.00     0.013 A 
HETATM    4  C7  UNL     1      27.943   6.557  48.431  1.00  0.00    -0.015 A 
HETATM    5  C8  UNL     1      28.532   7.867  48.529  1.00  0.00     0.004 A 
HETATM    6  C9  UNL     1      29.953   7.797  48.429  1.00  0.00     0.110 A 
HETATM    7  C13 UNL     1      28.294   9.323  48.685  1.00  0.00     0.173 A 
HETATM    8  N1  UNL     1      28.549   9.813  50.071  1.00  0.00    -0.280 N 
HETATM    9  C14 UNL     1      27.473   9.099  50.182  1.00  0.00     0.056 A 
HETATM   10  C15 UNL     1      26.598   8.515  50.251  1.00  0.00    -0.057 C 
HETATM   11  C16 UNL     1      25.546   7.798  50.311  1.00  0.00    -0.088 C 
HETATM   12  C17 UNL     1      24.650   7.174  50.344  1.00  0.00     0.052 A 
HETATM   13  C18 UNL     1      23.545   6.375  50.370  1.00  0.00     0.020 A 
HETATM   14  C19 UNL     1      24.190   6.093  49.150  1.00  0.00     0.017 A 
HETATM   15  C20 UNL     1      25.426   6.654  48.494  1.00  0.00     0.047 C 
HETATM   16  C21 UNL     1      26.600   5.846  48.481  1.00  0.00     0.252 C 
HETATM   17  H19 UNL     1      28.464   9.989  51.097  1.00  0.00     0.128 HD
ENDROOT
BRANCH   1  18
HETATM   18  O2  UNL     1      32.148   6.772  48.178  1.00  0.00    -0.346 OA
BRANCH  18  19
HETATM   19  C3  UNL     1      32.931   5.605  48.330  1.00  0.00     0.201 C 
BRANCH  19  20
HETATM   20  C2  UNL     1      34.366   5.969  48.639  1.00  0.00     0.193 C 
BRANCH  20  21
HETATM   21  O1  UNL     1      35.148   4.852  48.721  1.00  0.00    -0.394 OA
HETATM   22  C1  UNL     1      34.801   3.798  47.903  1.00  0.00     0.201 C 
ENDBRANCH  20  21
ENDBRANCH  19  20
ENDBRANCH  18  19
ENDBRANCH   1  18
BRANCH   6  23
HETATM   23  O3  UNL     1      30.829   8.915  48.489  1.00  0.00    -0.346 OA
BRANCH  23  24
HETATM   24  C10 UNL     1      31.404   9.510  47.369  1.00  0.00     0.201 C 
BRANCH  24  25
HETATM   25  C11 UNL     1      31.338  11.018  47.623  1.00  0.00     0.193 C 
BRANCH  25  26
HETATM   26  O4  UNL     1      31.045  11.336  48.925  1.00  0.00    -0.394 OA
HETATM   27  C12 UNL     1      30.583  12.607  49.149  1.00  0.00     0.201 C 
ENDBRANCH  25  26
ENDBRANCH  24  25
ENDBRANCH  23  24
ENDBRANCH   6  23
BRANCH  16  28
HETATM   28  N2  UNL     1      26.691   4.926  49.631  1.00  0.00     0.087 N 
HETATM   29  H25 UNL     1      26.293   5.345  50.503  1.00  0.00     0.313 HD
HETATM   30  H26 UNL     1      26.312   3.986  49.406  1.00  0.00     0.313 HD
ENDBRANCH  16  28
TORSDOF 9
ENDMDL
MODEL 7
REMARK VINA RESULT:      -6.6      3.546      7.639
REMARK  9 active torsions:
REMARK  status: ('A' for Active; 'I' for Inactive)
REMARK    1  A    between atoms: O1_2  and  C2_3 
REMARK    2  A    between atoms: C2_3  and  C3_4 
REMARK    3  A    between atoms: C3_4  and  O2_5 
REMARK    4  A    between atoms: O2_5  and  C4_6 
REMARK    5  A    between atoms: C9_11  and  O3_12 
REMARK    6  A    between atoms: O3_12  and  C10_13 
REMARK    7  A    between atoms: C10_13  and  C11_14 
REMARK    8  A    between atoms: C11_14  and  O4_15 
REMARK    9  A    between atoms: C21_26  and  N2_27 
ROOT
HETATM    1  C4  UNL     1      26.292   0.880  53.983  1.00  0.00     0.102 A 
HETATM    2  C5  UNL     1      25.952  -0.137  54.829  1.00  0.00     0.040 A 
HETATM    3  C6  UNL     1      24.666  -0.641  54.525  1.00  0.00     0.013 A 
HETATM    4  C7  UNL     1      23.746  -0.288  53.557  1.00  0.00    -0.015 A 
HETATM    5  C8  UNL     1      24.123   0.787  52.675  1.00  0.00     0.004 A 
HETATM    6  C9  UNL     1      25.421   1.281  52.998  1.00  0.00     0.110 A 
HETATM    7  C13 UNL     1      23.738   1.634  51.520  1.00  0.00     0.173 A 
HETATM    8  N1  UNL     1      23.267   2.992  51.920  1.00  0.00    -0.280 N 
HETATM    9  C14 UNL     1      22.321   2.200  52.318  1.00  0.00     0.056 A 
HETATM   10  C15 UNL     1      21.562   1.539  52.634  1.00  0.00    -0.057 C 
HETATM   11  C16 UNL     1      20.662   0.721  53.013  1.00  0.00    -0.088 C 
HETATM   12  C17 UNL     1      19.905   0.003  53.338  1.00  0.00     0.052 A 
HETATM   13  C18 UNL     1      18.980  -0.908  53.753  1.00  0.00     0.020 A 
HETATM   14  C19 UNL     1      20.145  -1.648  53.475  1.00  0.00     0.017 A 
HETATM   15  C20 UNL     1      21.502  -1.257  52.945  1.00  0.00     0.047 C 
HETATM   16  C21 UNL     1      22.594  -1.233  53.860  1.00  0.00     0.252 C 
HETATM   17  H19 UNL     1      22.692   3.773  52.307  1.00  0.00     0.128 HD
ENDROOT
BRANCH   1  18
HETATM   18  O2  UNL     1      27.538   1.448  54.192  1.00  0.00    -0.346 OA
BRANCH  18  19
HETATM   19  C3  UNL     1      28.578   0.689  54.775  1.00  0.00     0.201 C 
BRANCH  19  20
HETATM   20  C2  UNL     1      29.612   0.325  53.733  1.00  0.00     0.193 C 
BRANCH  20  21
HETATM   21  O1  UNL     1      29.155  -0.671  52.917  1.00  0.00    -0.394 OA
HETATM   22  C1  UNL     1      29.254  -1.958  53.401  1.00  0.00     0.201 C 
ENDBRANCH  20  21
ENDBRANCH  19  20
ENDBRANCH  18  19
ENDBRANCH   1  18
BRANCH   6  23
HETATM   23  O3  UNL     1      26.082   2.338  52.317  1.00  0.00    -0.346 OA
BRANCH  23  24
HETATM   24  C10 UNL     1      26.742   2.185  51.100  1.00  0.00     0.201 C 
BRANCH  24  25
HETATM   25  C11 UNL     1      26.579   3.521  50.371  1.00  0.00     0.193 C 
BRANCH  25  26
HETATM   26  O4  UNL     1      25.490   3.554  49.537  1.00  0.00    -0.394 OA
HETATM   27  C12 UNL     1      24.989   4.796  49.246  1.00  0.00     0.201 C 
ENDBRANCH  25  26
ENDBRANCH  24  25
ENDBRANCH  23  24
ENDBRANCH   6  23
BRANCH  16  28
HETATM   28  N2  UNL     1      22.192  -0.922  55.245  1.00  0.00     0.087 N 
HETATM   29  H25 UNL     1      21.405  -0.233  55.282  1.00  0.00     0.313 HD
HETATM   30  H26 UNL     1      22.023  -1.782  55.802  1.00  0.00     0.313 HD
ENDBRANCH  16  28
TORSDOF 9
ENDMDL
MODEL 8
REMARK VINA RESULT:      -6.6      6.624      9.747
REMARK  9 active torsions:
REMARK  status: ('A' for Active; 'I' for Inactive)
REMARK    1  A    between atoms: O1_2  and  C2_3 
REMARK    2  A    between atoms: C2_3  and  C3_4 
REMARK    3  A    between atoms: C3_4  and  O2_5 
REMARK    4  A    between atoms: O2_5  and  C4_6 
REMARK    5  A    between atoms: C9_11  and  O3_12 
REMARK    6  A    between atoms: O3_12  and  C10_13 
REMARK    7  A    between atoms: C10_13  and  C11_14 
REMARK    8  A    between atoms: C11_14  and  O4_15 
REMARK    9  A    between atoms: C21_26  and  N2_27 
ROOT
HETATM    1  C4  UNL     1      27.417   6.726  48.691  1.00  0.00     0.102 A 
HETATM    2  C5  UNL     1      27.883   5.448  48.576  1.00  0.00     0.040 A 
HETATM    3  C6  UNL     1      26.914   4.514  49.013  1.00  0.00     0.013 A 
HETATM    4  C7  UNL     1      25.636   4.681  49.511  1.00  0.00    -0.015 A 
HETATM    5  C8  UNL     1      25.164   6.037  49.625  1.00  0.00     0.004 A 
HETATM    6  C9  UNL     1      26.155   6.961  49.180  1.00  0.00     0.110 A 
HETATM    7  C13 UNL     1      24.044   6.929  50.010  1.00  0.00     0.173 A 
HETATM    8  N1  UNL     1      24.237   7.569  51.344  1.00  0.00    -0.280 N 
HETATM    9  C14 UNL     1      24.021   6.321  51.621  1.00  0.00     0.056 A 
HETATM   10  C15 UNL     1      23.843   5.302  51.825  1.00  0.00    -0.057 C 
HETATM   11  C16 UNL     1      23.633   4.065  52.047  1.00  0.00    -0.088 C 
HETATM   12  C17 UNL     1      23.459   3.000  52.217  1.00  0.00     0.052 A 
HETATM   13  C18 UNL     1      23.260   1.665  52.408  1.00  0.00     0.020 A 
HETATM   14  C19 UNL     1      23.581   1.809  51.045  1.00  0.00     0.017 A 
HETATM   15  C20 UNL     1      23.870   3.015  50.186  1.00  0.00     0.047 C 
HETATM   16  C21 UNL     1      25.221   3.246  49.794  1.00  0.00     0.252 C 
HETATM   17  H19 UNL     1      24.321   7.719  52.373  1.00  0.00     0.128 HD
ENDROOT
BRANCH   1  18
HETATM   18  O2  UNL     1      28.289   7.724  48.288  1.00  0.00    -0.346 OA
BRANCH  18  19
HETATM   19  C3  UNL     1      29.651   7.428  48.053  1.00  0.00     0.201 C 
BRANCH  19  20
HETATM   20  C2  UNL     1      30.530   8.187  49.022  1.00  0.00     0.193 C 
BRANCH  20  21
HETATM   21  O1  UNL     1      31.729   7.555  49.193  1.00  0.00    -0.394 OA
HETATM   22  C1  UNL     1      31.677   6.217  49.522  1.00  0.00     0.201 C 
ENDBRANCH  20  21
ENDBRANCH  19  20
ENDBRANCH  18  19
ENDBRANCH   1  18
BRANCH   6  23
HETATM   23  O3  UNL     1      26.000   8.374  49.165  1.00  0.00    -0.346 OA
BRANCH  23  24
HETATM   24  C10 UNL     1      25.540   9.092  48.064  1.00  0.00     0.201 C 
BRANCH  24  25
HETATM   25  C11 UNL     1      25.855  10.559  48.367  1.00  0.00     0.193 C 
BRANCH  25  26
HETATM   26  O4  UNL     1      26.901  10.719  49.240  1.00  0.00    -0.394 OA
HETATM   27  C12 UNL     1      28.047  11.261  48.717  1.00  0.00     0.201 C 
ENDBRANCH  25  26
ENDBRANCH  24  25
ENDBRANCH  23  24
ENDBRANCH   6  23
BRANCH  16  28
HETATM   28  N2  UNL     1      26.209   2.742  50.767  1.00  0.00     0.087 N 
HETATM   29  H25 UNL     1      26.031   1.744  51.028  1.00  0.00     0.313 HD
HETATM   30  H26 UNL     1      27.184   2.928  50.462  1.00  0.00     0.313 HD
ENDBRANCH  16  28
TORSDOF 9
ENDMDL
MODEL 9
REMARK VINA RESULT:      -6.5      3.813      7.117
REMARK  9 active torsions:
REMARK  status: ('A' for Active; 'I' for Inactive)
REMARK    1  A    between atoms: O1_2  and  C2_3 
REMARK    2  A    between atoms: C2_3  and  C3_4 
REMARK    3  A    between atoms: C3_4  and  O2_5 
REMARK    4  A    between atoms: O2_5  and  C4_6 
REMARK    5  A    between atoms: C9_11  and  O3_12 
REMARK    6  A    between atoms: O3_12  and  C10_13 
REMARK    7  A    between atoms: C10_13  and  C11_14 
REMARK    8  A    between atoms: C11_14  and  O4_15 
REMARK    9  A    between atoms: C21_26  and  N2_27 
ROOT
HETATM    1  C4  UNL     1      22.942   1.084  52.214  1.00  0.00     0.102 A 
HETATM    2  C5  UNL     1      21.845   0.609  51.555  1.00  0.00     0.040 A 
HETATM    3  C6  UNL     1      21.774   1.134  50.243  1.00  0.00     0.013 A 
HETATM    4  C7  UNL     1      22.597   2.007  49.558  1.00  0.00    -0.015 A 
HETATM    5  C8  UNL     1      23.748   2.497  50.271  1.00  0.00     0.004 A 
HETATM    6  C9  UNL     1      23.801   1.956  51.589  1.00  0.00     0.110 A 
HETATM    7  C13 UNL     1      24.962   3.348  50.226  1.00  0.00     0.173 A 
HETATM    8  N1  UNL     1      24.785   4.659  50.915  1.00  0.00    -0.280 N 
HETATM    9  C14 UNL     1      24.046   4.757  49.855  1.00  0.00     0.056 A 
HETATM   10  C15 UNL     1      23.451   4.818  48.986  1.00  0.00    -0.057 C 
HETATM   11  C16 UNL     1      22.735   4.865  47.933  1.00  0.00    -0.088 C 
HETATM   12  C17 UNL     1      22.119   4.883  47.030  1.00  0.00     0.052 A 
HETATM   13  C18 UNL     1      21.343   4.880  45.910  1.00  0.00     0.020 A 
HETATM   14  C19 UNL     1      21.674   3.532  46.145  1.00  0.00     0.017 A 
HETATM   15  C20 UNL     1      22.532   2.858  47.187  1.00  0.00     0.047 C 
HETATM   16  C21 UNL     1      21.875   2.136  48.226  1.00  0.00     0.252 C 
HETATM   17  H19 UNL     1      24.473   5.628  51.147  1.00  0.00     0.128 HD
ENDROOT
BRANCH   1  18
HETATM   18  O2  UNL     1      23.109   0.629  53.512  1.00  0.00    -0.346 OA
BRANCH  18  19
HETATM   19  C3  UNL     1      23.412  -0.728  53.758  1.00  0.00     0.201 C 
BRANCH  19  20
HETATM   20  C2  UNL     1      22.818  -1.170  55.078  1.00  0.00     0.193 C 
BRANCH  20  21
HETATM   21  O1  UNL     1      21.471  -0.947  55.107  1.00  0.00    -0.394 OA
HETATM   22  C1  UNL     1      20.702  -1.709  54.253  1.00  0.00     0.201 C 
ENDBRANCH  20  21
ENDBRANCH  19  20
ENDBRANCH  18  19
ENDBRANCH   1  18
BRANCH   6  23
HETATM   23  O3  UNL     1      24.812   2.241  52.546  1.00  0.00    -0.346 OA
BRANCH  23  24
HETATM   24  C10 UNL     1      26.012   1.541  52.638  1.00  0.00     0.201 C 
BRANCH  24  25
HETATM   25  C11 UNL     1      26.465   1.687  54.093  1.00  0.00     0.193 C 
BRANCH  25  26
HETATM   26  O4  UNL     1      27.814   1.503  54.262  1.00  0.00    -0.394 OA
HETATM   27  C12 UNL     1      28.632   2.398  53.622  1.00  0.00     0.201 C 
ENDBRANCH  25  26
ENDBRANCH  24  25
ENDBRANCH  23  24
ENDBRANCH   6  23
BRANCH  16  28
HETATM   28  N2  UNL     1      20.540   2.669  48.558  1.00  0.00     0.087 N 
HETATM   29  H25 UNL     1      19.809   1.921  48.570  1.00  0.00     0.313 HD
HETATM   30  H26 UNL     1      20.559   3.252  49.418  1.00  0.00     0.313 HD
ENDBRANCH  16  28
TORSDOF 9
ENDMDL
