MODEL 1
REMARK VINA RESULT:      -8.2      0.000      0.000
REMARK  5 active torsions:
REMARK  status: ('A' for Active; 'I' for Inactive)
REMARK    1  A    between atoms: C3_3  and  C4_4 
REMARK    2  A    between atoms: C5_5  and  C6_6 
REMARK    3  A    between atoms: C8_8  and  C9_9 
REMARK    4  A    between atoms: N2_17  and  C15_18 
REMARK    5  A    between atoms: C15_18  and  S1_19 
ROOT
HETATM    1  C6  UNL     1      24.840   1.710  52.546  1.00  0.00     0.190 C 
HETATM    2  C7  UNL     1      24.412   2.380  51.238  1.00  0.00     0.101 C 
HETATM    3  C8  UNL     1      25.746   2.964  50.852  1.00  0.00     0.067 C 
HETATM    4  N1  UNL     1      26.661   2.216  51.364  1.00  0.00    -0.179 NA
HETATM    5  N2  UNL     1      26.118   1.148  52.084  1.00  0.00    -0.279 N 
ENDROOT
BRANCH   3   6
HETATM    6  C9  UNL     1      25.981   4.157  50.046  1.00  0.00    -0.010 A 
HETATM    7  C10 UNL     1      27.138   4.182  49.289  1.00  0.00     0.015 A 
HETATM    8  C11 UNL     1      27.409   5.285  48.509  1.00  0.00     0.020 A 
HETATM    9  C12 UNL     1      26.532   6.351  48.487  1.00  0.00     0.011 A 
HETATM   10 BR1  UNL     1      26.899   7.888  47.407  1.00  0.00    -0.051 Br
HETATM   11  C13 UNL     1      25.389   6.276  49.262  1.00  0.00     0.020 A 
HETATM   12  C14 UNL     1      25.072   5.195  50.060  1.00  0.00     0.015 A 
ENDBRANCH   3   6
BRANCH   1  13
HETATM   13  C5  UNL     1      23.948   0.630  52.926  1.00  0.00    -0.074 C 
HETATM   14  C4  UNL     1      23.190  -0.265  53.259  1.00  0.00    -0.077 C 
BRANCH  14  15
HETATM   15  C3  UNL     1      22.307  -1.319  53.673  1.00  0.00     0.060 C 
HETATM   16  C2  UNL     1      21.189  -1.111  54.320  1.00  0.00    -0.022 C 
HETATM   17  C1  UNL     1      20.784   0.272  54.661  1.00  0.00     0.036 C 
ENDBRANCH  14  15
ENDBRANCH   1  13
BRANCH   5  18
HETATM   18  C15 UNL     1      26.750  -0.164  52.268  1.00  0.00     0.233 C 
BRANCH  18  19
HETATM   19  S1  UNL     1      28.309   0.005  53.182  1.00  0.00    -0.014 SA
HETATM   20  C16 UNL     1      29.182  -1.530  53.337  1.00  0.00     0.073 A 
HETATM   21  C17 UNL     1      30.072  -0.590  53.687  1.00  0.00     0.299 A 
HETATM   22  N3  UNL     1      29.754   0.796  53.695  1.00  0.00    -0.018 N 
HETATM   23  H17 UNL     1      29.880   1.349  52.814  1.00  0.00     0.292 HD
HETATM   24  H18 UNL     1      29.440   0.948  54.683  1.00  0.00     0.292 HD
ENDBRANCH  18  19
ENDBRANCH   5  18
TORSDOF 5
ENDMDL
MODEL 2
REMARK VINA RESULT:      -7.8      3.665      7.258
REMARK  5 active torsions:
REMARK  status: ('A' for Active; 'I' for Inactive)
REMARK    1  A    between atoms: C3_3  and  C4_4 
REMARK    2  A    between atoms: C5_5  and  C6_6 
REMARK    3  A    between atoms: C8_8  and  C9_9 
REMARK    4  A    between atoms: N2_17  and  C15_18 
REMARK    5  A    between atoms: C15_18  and  S1_19 
ROOT
HETATM    1  C6  UNL     1      25.665   1.232  53.331  1.00  0.00     0.190 C 
HETATM    2  C7  UNL     1      24.754   0.002  53.304  1.00  0.00     0.101 C 
HETATM    3  C8  UNL     1      23.594   0.613  52.563  1.00  0.00     0.067 C 
HETATM    4  N1  UNL     1      24.061   1.554  51.817  1.00  0.00    -0.179 NA
HETATM    5  N2  UNL     1      25.446   1.684  51.949  1.00  0.00    -0.279 N 
ENDROOT
BRANCH   3   6
HETATM    6  C9  UNL     1      22.191   0.223  52.656  1.00  0.00    -0.010 A 
HETATM    7  C10 UNL     1      21.816  -0.499  53.774  1.00  0.00     0.015 A 
HETATM    8  C11 UNL     1      20.503  -0.893  53.912  1.00  0.00     0.020 A 
HETATM    9  C12 UNL     1      19.576  -0.568  52.941  1.00  0.00     0.011 A 
HETATM   10 BR1  UNL     1      17.750  -1.111  53.124  1.00  0.00    -0.051 Br
HETATM   11  C13 UNL     1      20.003   0.156  51.843  1.00  0.00     0.020 A 
HETATM   12  C14 UNL     1      21.305   0.573  51.657  1.00  0.00     0.015 A 
ENDBRANCH   3   6
BRANCH   1  13
HETATM   13  C5  UNL     1      27.061   0.877  53.507  1.00  0.00    -0.074 C 
HETATM   14  C4  UNL     1      28.230   0.559  53.650  1.00  0.00    -0.077 C 
BRANCH  14  15
HETATM   15  C3  UNL     1      29.600   0.171  53.836  1.00  0.00     0.060 C 
HETATM   16  C2  UNL     1      30.035  -1.049  53.650  1.00  0.00    -0.022 C 
HETATM   17  C1  UNL     1      29.092  -2.109  53.226  1.00  0.00     0.036 C 
ENDBRANCH  14  15
ENDBRANCH   1  13
BRANCH   5  18
HETATM   18  C15 UNL     1      26.360   2.161  50.904  1.00  0.00     0.233 C 
BRANCH  18  19
HETATM   19  S1  UNL     1      25.849   3.800  50.314  1.00  0.00    -0.014 SA
HETATM   20  C16 UNL     1      24.441   3.733  49.239  1.00  0.00     0.073 A 
HETATM   21  C17 UNL     1      24.565   5.027  49.566  1.00  0.00     0.299 A 
HETATM   22  N3  UNL     1      25.591   5.503  50.427  1.00  0.00    -0.018 N 
HETATM   23  H17 UNL     1      25.423   5.507  51.460  1.00  0.00     0.292 HD
HETATM   24  H18 UNL     1      26.348   5.763  49.750  1.00  0.00     0.292 HD
ENDBRANCH  18  19
ENDBRANCH   5  18
TORSDOF 5
ENDMDL
MODEL 3
REMARK VINA RESULT:      -7.5      4.422      6.697
REMARK  5 active torsions:
REMARK  status: ('A' for Active; 'I' for Inactive)
REMARK    1  A    between atoms: C3_3  and  C4_4 
REMARK    2  A    between atoms: C5_5  and  C6_6 
REMARK    3  A    between atoms: C8_8  and  C9_9 
REMARK    4  A    between atoms: N2_17  and  C15_18 
REMARK    5  A    between atoms: C15_18  and  S1_19 
ROOT
HETATM    1  C6  UNL     1      21.520   0.534  51.778  1.00  0.00     0.190 C 
HETATM    2  C7  UNL     1      22.426  -0.084  52.846  1.00  0.00     0.101 C 
HETATM    3  C8  UNL     1      23.578   0.881  52.732  1.00  0.00     0.067 C 
HETATM    4  N1  UNL     1      23.103   2.006  52.322  1.00  0.00    -0.179 NA
HETATM    5  N2  UNL     1      21.721   1.948  52.126  1.00  0.00    -0.279 N 
ENDROOT
BRANCH   3   6
HETATM    6  C9  UNL     1      24.980   0.611  53.029  1.00  0.00    -0.010 A 
HETATM    7  C10 UNL     1      25.433  -0.674  52.793  1.00  0.00     0.015 A 
HETATM    8  C11 UNL     1      26.749  -0.984  53.056  1.00  0.00     0.020 A 
HETATM    9  C12 UNL     1      27.602  -0.018  53.552  1.00  0.00     0.011 A 
HETATM   10 BR1  UNL     1      29.433  -0.438  53.921  1.00  0.00    -0.051 Br
HETATM   11  C13 UNL     1      27.100   1.252  53.771  1.00  0.00     0.020 A 
HETATM   12  C14 UNL     1      25.791   1.612  53.523  1.00  0.00     0.015 A 
ENDBRANCH   3   6
BRANCH   1  13
HETATM   13  C5  UNL     1      20.126   0.182  51.971  1.00  0.00    -0.074 C 
HETATM   14  C4  UNL     1      18.956  -0.129  52.120  1.00  0.00    -0.077 C 
BRANCH  14  15
HETATM   15  C3  UNL     1      17.575  -0.490  52.273  1.00  0.00     0.060 C 
HETATM   16  C2  UNL     1      17.172  -1.519  52.973  1.00  0.00    -0.022 C 
HETATM   17  C1  UNL     1      18.167  -2.378  53.655  1.00  0.00     0.036 C 
ENDBRANCH  14  15
ENDBRANCH   1  13
BRANCH   5  18
HETATM   18  C15 UNL     1      20.793   3.078  52.264  1.00  0.00     0.233 C 
BRANCH  18  19
HETATM   19  S1  UNL     1      21.557   4.605  51.648  1.00  0.00    -0.014 SA
HETATM   20  C16 UNL     1      21.543   4.713  49.879  1.00  0.00     0.073 A 
HETATM   21  C17 UNL     1      21.853   5.948  50.298  1.00  0.00     0.299 A 
HETATM   22  N3  UNL     1      21.966   6.281  51.676  1.00  0.00    -0.018 N 
HETATM   23  H17 UNL     1      21.108   6.581  52.196  1.00  0.00     0.292 HD
HETATM   24  H18 UNL     1      22.987   6.132  51.859  1.00  0.00     0.292 HD
ENDBRANCH  18  19
ENDBRANCH   5  18
TORSDOF 5
ENDMDL
MODEL 4
REMARK VINA RESULT:      -7.4      4.367      7.805
REMARK  5 active torsions:
REMARK  status: ('A' for Active; 'I' for Inactive)
REMARK    1  A    between atoms: C3_3  and  C4_4 
REMARK    2  A    between atoms: C5_5  and  C6_6 
REMARK    3  A    between atoms: C8_8  and  C9_9 
REMARK    4  A    between atoms: N2_17  and  C15_18 
REMARK    5  A    between atoms: C15_18  and  S1_19 
ROOT
HETATM    1  C6  UNL     1      23.879   0.019  53.600  1.00  0.00     0.190 C 
HETATM    2  C7  UNL     1      22.931  -0.742  52.670  1.00  0.00     0.101 C 
HETATM    3  C8  UNL     1      21.783   0.234  52.693  1.00  0.00     0.067 C 
HETATM    4  N1  UNL     1      22.271   1.404  52.918  1.00  0.00    -0.179 NA
HETATM    5  N2  UNL     1      23.661   1.370  53.061  1.00  0.00    -0.279 N 
ENDROOT
BRANCH   3   6
HETATM    6  C9  UNL     1      20.369  -0.071  52.497  1.00  0.00    -0.010 A 
HETATM    7  C10 UNL     1      19.751  -0.826  53.477  1.00  0.00     0.015 A 
HETATM    8  C11 UNL     1      18.418  -1.143  53.342  1.00  0.00     0.020 A 
HETATM    9  C12 UNL     1      17.710  -0.709  52.238  1.00  0.00     0.011 A 
HETATM   10 BR1  UNL     1      15.857  -1.144  52.041  1.00  0.00    -0.051 Br
HETATM   11  C13 UNL     1      18.375   0.043  51.287  1.00  0.00     0.020 A 
HETATM   12  C14 UNL     1      19.709   0.387  51.375  1.00  0.00     0.015 A 
ENDBRANCH   3   6
BRANCH   1  13
HETATM   13  C5  UNL     1      25.265  -0.362  53.400  1.00  0.00    -0.074 C 
HETATM   14  C4  UNL     1      26.424  -0.700  53.225  1.00  0.00    -0.077 C 
BRANCH  14  15
HETATM   15  C3  UNL     1      27.785  -1.116  53.034  1.00  0.00     0.060 C 
HETATM   16  C2  UNL     1      28.781  -0.678  53.760  1.00  0.00    -0.022 C 
HETATM   17  C1  UNL     1      28.526   0.298  54.844  1.00  0.00     0.036 C 
ENDBRANCH  14  15
ENDBRANCH   1  13
BRANCH   5  18
HETATM   18  C15 UNL     1      24.579   2.464  52.724  1.00  0.00     0.233 C 
BRANCH  18  19
HETATM   19  S1  UNL     1      23.653   3.989  52.388  1.00  0.00    -0.014 SA
HETATM   20  C16 UNL     1      23.408   4.273  50.655  1.00  0.00     0.073 A 
HETATM   21  C17 UNL     1      22.571   5.123  51.267  1.00  0.00     0.299 A 
HETATM   22  N3  UNL     1      22.465   5.205  52.682  1.00  0.00    -0.018 N 
HETATM   23  H17 UNL     1      21.797   4.569  53.178  1.00  0.00     0.292 HD
HETATM   24  H18 UNL     1      23.153   5.962  52.914  1.00  0.00     0.292 HD
ENDBRANCH  18  19
ENDBRANCH   5  18
TORSDOF 5
ENDMDL
MODEL 5
REMARK VINA RESULT:      -7.1      3.509      5.122
REMARK  5 active torsions:
REMARK  status: ('A' for Active; 'I' for Inactive)
REMARK    1  A    between atoms: C3_3  and  C4_4 
REMARK    2  A    between atoms: C5_5  and  C6_6 
REMARK    3  A    between atoms: C8_8  and  C9_9 
REMARK    4  A    between atoms: N2_17  and  C15_18 
REMARK    5  A    between atoms: C15_18  and  S1_19 
ROOT
HETATM    1  C6  UNL     1      23.793   1.717  51.107  1.00  0.00     0.190 C 
HETATM    2  C7  UNL     1      25.018   2.597  51.368  1.00  0.00     0.101 C 
HETATM    3  C8  UNL     1      24.694   3.705  50.400  1.00  0.00     0.067 C 
HETATM    4  N1  UNL     1      23.413   3.750  50.275  1.00  0.00    -0.179 NA
HETATM    5  N2  UNL     1      22.779   2.781  51.057  1.00  0.00    -0.279 N 
ENDROOT
BRANCH   3   6
HETATM    6  C9  UNL     1      25.643   4.581  49.720  1.00  0.00    -0.010 A 
HETATM    7  C10 UNL     1      26.824   4.006  49.289  1.00  0.00     0.015 A 
HETATM    8  C11 UNL     1      27.756   4.787  48.641  1.00  0.00     0.020 A 
HETATM    9  C12 UNL     1      27.507   6.129  48.427  1.00  0.00     0.011 A 
HETATM   10 BR1  UNL     1      28.795   7.223  47.528  1.00  0.00    -0.051 Br
HETATM   11  C13 UNL     1      26.310   6.654  48.878  1.00  0.00     0.020 A 
HETATM   12  C14 UNL     1      25.345   5.915  49.532  1.00  0.00     0.015 A 
ENDBRANCH   3   6
BRANCH   1  13
HETATM   13  C5  UNL     1      23.508   0.830  52.219  1.00  0.00    -0.074 C 
HETATM   14  C4  UNL     1      23.268   0.100  53.167  1.00  0.00    -0.077 C 
BRANCH  14  15
HETATM   15  C3  UNL     1      23.005  -0.752  54.292  1.00  0.00     0.060 C 
HETATM   16  C2  UNL     1      21.863  -0.769  54.932  1.00  0.00    -0.022 C 
HETATM   17  C1  UNL     1      20.765   0.125  54.498  1.00  0.00     0.036 C 
ENDBRANCH  14  15
ENDBRANCH   1  13
BRANCH   5  18
HETATM   18  C15 UNL     1      21.435   2.899  51.636  1.00  0.00     0.233 C 
BRANCH  18  19
HETATM   19  S1  UNL     1      20.178   2.378  50.435  1.00  0.00    -0.014 SA
HETATM   20  C16 UNL     1      19.581   3.720  49.443  1.00  0.00     0.073 A 
HETATM   21  C17 UNL     1      19.149   2.613  48.822  1.00  0.00     0.299 A 
HETATM   22  N3  UNL     1      19.424   1.307  49.312  1.00  0.00    -0.018 N 
HETATM   23  H17 UNL     1      20.312   0.834  49.019  1.00  0.00     0.292 HD
HETATM   24  H18 UNL     1      18.586   1.111  49.909  1.00  0.00     0.292 HD
ENDBRANCH  18  19
ENDBRANCH   5  18
TORSDOF 5
ENDMDL
MODEL 6
REMARK VINA RESULT:      -7.1      3.629      5.389
REMARK  5 active torsions:
REMARK  status: ('A' for Active; 'I' for Inactive)
REMARK    1  A    between atoms: C3_3  and  C4_4 
REMARK    2  A    between atoms: C5_5  and  C6_6 
REMARK    3  A    between atoms: C8_8  and  C9_9 
REMARK    4  A    between atoms: N2_17  and  C15_18 
REMARK    5  A    between atoms: C15_18  and  S1_19 
ROOT
HETATM    1  C6  UNL     1      23.373   1.994  51.086  1.00  0.00     0.190 C 
HETATM    2  C7  UNL     1      24.807   2.513  51.220  1.00  0.00     0.101 C 
HETATM    3  C8  UNL     1      24.626   3.826  50.503  1.00  0.00     0.067 C 
HETATM    4  N1  UNL     1      23.395   4.179  50.644  1.00  0.00    -0.179 NA
HETATM    5  N2  UNL     1      22.669   3.248  51.392  1.00  0.00    -0.279 N 
ENDROOT
BRANCH   3   6
HETATM    6  C9  UNL     1      25.645   4.577  49.779  1.00  0.00    -0.010 A 
HETATM    7  C10 UNL     1      25.399   5.921  49.568  1.00  0.00     0.015 A 
HETATM    8  C11 UNL     1      26.328   6.678  48.889  1.00  0.00     0.020 A 
HETATM    9  C12 UNL     1      27.491   6.095  48.425  1.00  0.00     0.011 A 
HETATM   10 BR1  UNL     1      28.789   7.137  47.480  1.00  0.00    -0.051 Br
HETATM   11  C13 UNL     1      27.689   4.747  48.661  1.00  0.00     0.020 A 
HETATM   12  C14 UNL     1      26.790   3.946  49.336  1.00  0.00     0.015 A 
ENDBRANCH   3   6
BRANCH   1  13
HETATM   13  C5  UNL     1      23.053   1.002  52.096  1.00  0.00    -0.074 C 
HETATM   14  C4  UNL     1      22.803   0.164  52.946  1.00  0.00    -0.077 C 
BRANCH  14  15
HETATM   15  C3  UNL     1      22.517  -0.838  53.934  1.00  0.00     0.060 C 
HETATM   16  C2  UNL     1      21.304  -1.198  54.266  1.00  0.00    -0.022 C 
HETATM   17  C1  UNL     1      20.142  -0.556  53.610  1.00  0.00     0.036 C 
ENDBRANCH  14  15
ENDBRANCH   1  13
BRANCH   5  18
HETATM   18  C15 UNL     1      21.509   3.555  52.238  1.00  0.00     0.233 C 
BRANCH  18  19
HETATM   19  S1  UNL     1      20.014   3.738  51.225  1.00  0.00    -0.014 SA
HETATM   20  C16 UNL     1      18.776   2.528  51.605  1.00  0.00     0.073 A 
HETATM   21  C17 UNL     1      18.143   3.449  50.866  1.00  0.00     0.299 A 
HETATM   22  N3  UNL     1      18.800   4.602  50.355  1.00  0.00    -0.018 N 
HETATM   23  H17 UNL     1      18.848   5.462  50.950  1.00  0.00     0.292 HD
HETATM   24  H18 UNL     1      19.109   4.280  49.407  1.00  0.00     0.292 HD
ENDBRANCH  18  19
ENDBRANCH   5  18
TORSDOF 5
ENDMDL
MODEL 7
REMARK VINA RESULT:      -7.0      3.243      5.337
REMARK  5 active torsions:
REMARK  status: ('A' for Active; 'I' for Inactive)
REMARK    1  A    between atoms: C3_3  and  C4_4 
REMARK    2  A    between atoms: C5_5  and  C6_6 
REMARK    3  A    between atoms: C8_8  and  C9_9 
REMARK    4  A    between atoms: N2_17  and  C15_18 
REMARK    5  A    between atoms: C15_18  and  S1_19 
ROOT
HETATM    1  C6  UNL     1      24.675   3.274  50.230  1.00  0.00     0.190 C 
HETATM    2  C7  UNL     1      26.145   3.693  50.143  1.00  0.00     0.101 C 
HETATM    3  C8  UNL     1      25.938   5.077  49.584  1.00  0.00     0.067 C 
HETATM    4  N1  UNL     1      24.781   5.486  49.975  1.00  0.00    -0.179 NA
HETATM    5  N2  UNL     1      24.130   4.532  50.762  1.00  0.00    -0.279 N 
ENDROOT
BRANCH   3   6
HETATM    6  C9  UNL     1      26.867   5.833  48.751  1.00  0.00    -0.010 A 
HETATM    7  C10 UNL     1      28.140   5.313  48.604  1.00  0.00     0.015 A 
HETATM    8  C11 UNL     1      29.058   5.986  47.829  1.00  0.00     0.020 A 
HETATM    9  C12 UNL     1      28.705   7.168  47.208  1.00  0.00     0.011 A 
HETATM   10 BR1  UNL     1      29.973   8.113  46.128  1.00  0.00    -0.051 Br
HETATM   11  C13 UNL     1      27.420   7.646  47.386  1.00  0.00     0.020 A 
HETATM   12  C14 UNL     1      26.464   7.009  48.153  1.00  0.00     0.015 A 
ENDBRANCH   3   6
BRANCH   1  13
HETATM   13  C5  UNL     1      24.464   2.211  51.195  1.00  0.00    -0.074 C 
HETATM   14  C4  UNL     1      24.298   1.327  52.019  1.00  0.00    -0.077 C 
BRANCH  14  15
HETATM   15  C3  UNL     1      24.126   0.282  52.988  1.00  0.00     0.060 C 
HETATM   16  C2  UNL     1      25.055  -0.591  53.280  1.00  0.00    -0.022 C 
HETATM   17  C1  UNL     1      26.365  -0.527  52.593  1.00  0.00     0.036 C 
ENDBRANCH  14  15
ENDBRANCH   1  13
BRANCH   5  18
HETATM   18  C15 UNL     1      23.164   4.823  51.828  1.00  0.00     0.233 C 
BRANCH  18  19
HETATM   19  S1  UNL     1      21.478   4.429  51.281  1.00  0.00    -0.014 SA
HETATM   20  C16 UNL     1      20.702   3.194  52.289  1.00  0.00     0.073 A 
HETATM   21  C17 UNL     1      19.707   3.724  51.565  1.00  0.00     0.299 A 
HETATM   22  N3  UNL     1      19.920   4.764  50.620  1.00  0.00    -0.018 N 
HETATM   23  H17 UNL     1      19.889   5.759  50.945  1.00  0.00     0.292 HD
HETATM   24  H18 UNL     1      20.073   4.230  49.731  1.00  0.00     0.292 HD
ENDBRANCH  18  19
ENDBRANCH   5  18
TORSDOF 5
ENDMDL
MODEL 8
REMARK VINA RESULT:      -6.9      3.787      7.367
REMARK  5 active torsions:
REMARK  status: ('A' for Active; 'I' for Inactive)
REMARK    1  A    between atoms: C3_3  and  C4_4 
REMARK    2  A    between atoms: C5_5  and  C6_6 
REMARK    3  A    between atoms: C8_8  and  C9_9 
REMARK    4  A    between atoms: N2_17  and  C15_18 
REMARK    5  A    between atoms: C15_18  and  S1_19 
ROOT
HETATM    1  C6  UNL     1      23.765   2.162  51.131  1.00  0.00     0.190 C 
HETATM    2  C7  UNL     1      22.237   2.165  51.221  1.00  0.00     0.101 C 
HETATM    3  C8  UNL     1      22.089   1.187  52.357  1.00  0.00     0.067 C 
HETATM    4  N1  UNL     1      23.154   1.263  53.077  1.00  0.00    -0.179 NA
HETATM    5  N2  UNL     1      24.059   2.200  52.571  1.00  0.00    -0.279 N 
ENDROOT
BRANCH   3   6
HETATM    6  C9  UNL     1      20.954   0.307  52.613  1.00  0.00    -0.010 A 
HETATM    7  C10 UNL     1      21.123  -0.663  53.585  1.00  0.00     0.015 A 
HETATM    8  C11 UNL     1      20.083  -1.522  53.867  1.00  0.00     0.020 A 
HETATM    9  C12 UNL     1      18.888  -1.411  53.184  1.00  0.00     0.011 A 
HETATM   10 BR1  UNL     1      17.437  -2.599  53.569  1.00  0.00    -0.051 Br
HETATM   11  C13 UNL     1      18.770  -0.424  52.222  1.00  0.00     0.020 A 
HETATM   12  C14 UNL     1      19.781   0.460  51.903  1.00  0.00     0.015 A 
ENDBRANCH   3   6
BRANCH   1  13
HETATM   13  C5  UNL     1      24.280   3.364  50.501  1.00  0.00    -0.074 C 
HETATM   14  C4  UNL     1      24.728   4.364  49.965  1.00  0.00    -0.077 C 
BRANCH  14  15
HETATM   15  C3  UNL     1      25.274   5.538  49.346  1.00  0.00     0.060 C 
HETATM   16  C2  UNL     1      26.485   5.598  48.854  1.00  0.00    -0.022 C 
HETATM   17  C1  UNL     1      27.364   4.408  48.923  1.00  0.00     0.036 C 
ENDBRANCH  14  15
ENDBRANCH   1  13
BRANCH   5  18
HETATM   18  C15 UNL     1      25.017   2.975  53.369  1.00  0.00     0.233 C 
BRANCH  18  19
HETATM   19  S1  UNL     1      26.516   2.000  53.683  1.00  0.00    -0.014 SA
HETATM   20  C16 UNL     1      26.697   0.640  52.560  1.00  0.00     0.073 A 
HETATM   21  C17 UNL     1      27.891   0.756  53.158  1.00  0.00     0.299 A 
HETATM   22  N3  UNL     1      28.160   1.746  54.142  1.00  0.00    -0.018 N 
HETATM   23  H17 UNL     1      28.493   2.689  53.833  1.00  0.00     0.292 HD
HETATM   24  H18 UNL     1      27.937   1.241  55.033  1.00  0.00     0.292 HD
ENDBRANCH  18  19
ENDBRANCH   5  18
TORSDOF 5
ENDMDL
MODEL 9
REMARK VINA RESULT:      -6.8      5.144      9.171
REMARK  5 active torsions:
REMARK  status: ('A' for Active; 'I' for Inactive)
REMARK    1  A    between atoms: C3_3  and  C4_4 
REMARK    2  A    between atoms: C5_5  and  C6_6 
REMARK    3  A    between atoms: C8_8  and  C9_9 
REMARK    4  A    between atoms: N2_17  and  C15_18 
REMARK    5  A    between atoms: C15_18  and  S1_19 
ROOT
HETATM    1  C6  UNL     1      29.578   7.074  47.149  1.00  0.00     0.190 C 
HETATM    2  C7  UNL     1      28.378   7.234  48.086  1.00  0.00     0.101 C 
HETATM    3  C8  UNL     1      28.177   5.779  48.424  1.00  0.00     0.067 C 
HETATM    4  N1  UNL     1      29.320   5.194  48.320  1.00  0.00    -0.179 NA
HETATM    5  N2  UNL     1      30.328   6.084  47.937  1.00  0.00    -0.279 N 
ENDROOT
BRANCH   3   6
HETATM    6  C9  UNL     1      26.926   5.132  48.805  1.00  0.00    -0.010 A 
HETATM    7  C10 UNL     1      25.766   5.865  48.631  1.00  0.00     0.015 A 
HETATM    8  C11 UNL     1      24.557   5.302  48.974  1.00  0.00     0.020 A 
HETATM    9  C12 UNL     1      24.509   4.021  49.486  1.00  0.00     0.011 A 
HETATM   10 BR1  UNL     1      22.833   3.230  49.967  1.00  0.00    -0.051 Br
HETATM   11  C13 UNL     1      25.697   3.331  49.640  1.00  0.00     0.020 A 
HETATM   12  C14 UNL     1      26.934   3.849  49.312  1.00  0.00     0.015 A 
ENDBRANCH   3   6
BRANCH   1  13
HETATM   13  C5  UNL     1      30.356   8.294  47.042  1.00  0.00    -0.074 C 
HETATM   14  C4  UNL     1      31.025   9.311  46.961  1.00  0.00    -0.077 C 
BRANCH  14  15
HETATM   15  C3  UNL     1      31.812  10.509  46.889  1.00  0.00     0.060 C 
HETATM   16  C2  UNL     1      31.760  11.461  47.785  1.00  0.00    -0.022 C 
HETATM   17  C1  UNL     1      30.851  11.328  48.946  1.00  0.00     0.036 C 
ENDBRANCH  14  15
ENDBRANCH   1  13
BRANCH   5  18
HETATM   18  C15 UNL     1      31.747   5.966  48.291  1.00  0.00     0.233 C 
BRANCH  18  19
HETATM   19  S1  UNL     1      32.372   4.315  47.870  1.00  0.00    -0.014 SA
HETATM   20  C16 UNL     1      32.564   4.080  46.123  1.00  0.00     0.073 A 
HETATM   21  C17 UNL     1      33.226   3.058  46.684  1.00  0.00     0.299 A 
HETATM   22  N3  UNL     1      33.310   2.884  48.093  1.00  0.00    -0.018 N 
HETATM   23  H17 UNL     1      34.084   3.356  48.616  1.00  0.00     0.292 HD
HETATM   24  H18 UNL     1      32.492   2.258  48.289  1.00  0.00     0.292 HD
ENDBRANCH  18  19
ENDBRANCH   5  18
TORSDOF 5
ENDMDL
