MODEL 1
REMARK VINA RESULT:      -7.4      0.000      0.000
REMARK  5 active torsions:
REMARK  status: ('A' for Active; 'I' for Inactive)
REMARK    1  A    between atoms: C4_5  and  N1_6 
REMARK    2  A    between atoms: N1_6  and  C5_7 
REMARK    3  A    between atoms: C5_7  and  N2_8 
REMARK    4  A    between atoms: N2_8  and  C6_9 
REMARK    5  A    between atoms: C6_9  and  C7_10 
ROOT
HETATM    1  N2  UNL     1      24.991   3.422  52.773  1.00  0.00     0.104 N 
HETATM    2  H6  UNL     1      24.919   3.973  53.653  1.00  0.00     0.318 HD
ENDROOT
BRANCH   1   3
HETATM    3  C5  UNL     1      23.873   3.714  51.867  1.00  0.00     0.393 C 
BRANCH   3   4
HETATM    4  N1  UNL     1      24.260   3.356  50.535  1.00  0.00    -0.365 N 
HETATM    5  H3  UNL     1      23.826   2.531  50.061  1.00  0.00     0.161 HD
BRANCH   4   6
HETATM    6  C4  UNL     1      25.237   4.121  49.852  1.00  0.00     0.031 A 
HETATM    7  C3  UNL     1      26.480   3.651  49.570  1.00  0.00     0.032 A 
HETATM    8  C2  UNL     1      27.394   4.450  48.898  1.00  0.00     0.046 A 
HETATM    9  C1  UNL     1      27.081   5.729  48.495  1.00  0.00     0.138 A 
HETATM   10  F1  UNL     1      27.946   6.547  47.832  1.00  0.00    -0.204 F 
HETATM   11  C14 UNL     1      25.811   6.243  48.768  1.00  0.00     0.074 A 
HETATM   12  C13 UNL     1      24.946   5.415  49.434  1.00  0.00     0.056 A 
HETATM   13 CL1  UNL     1      25.313   7.866  48.294  1.00  0.00    -0.081 Cl
ENDBRANCH   4   6
ENDBRANCH   3   4
ENDBRANCH   1   3
BRANCH   1  14
HETATM   14  C6  UNL     1      25.115   2.002  53.004  1.00  0.00     0.312 C 
BRANCH  14  15
HETATM   15  C7  UNL     1      26.439   1.502  52.562  1.00  0.00    -0.007 C 
HETATM   16  C8  UNL     1      27.601   2.108  52.957  1.00  0.00     0.030 C 
HETATM   17  C9  UNL     1      28.803   1.918  53.624  1.00  0.00     0.118 C 
HETATM   18  N3  UNL     1      28.707   1.464  54.887  1.00  0.00    -0.254 NA
HETATM   19  C10 UNL     1      28.623   0.113  55.037  1.00  0.00     0.234 C 
HETATM   20  N4  UNL     1      28.680  -0.800  54.050  1.00  0.00    -0.230 NA
HETATM   21  C11 UNL     1      27.707  -0.915  53.124  1.00  0.00     0.259 C 
HETATM   22  O1  UNL     1      26.923  -0.790  52.081  1.00  0.00    -0.315 OA
HETATM   23  C12 UNL     1      26.490   0.408  51.742  1.00  0.00     0.152 C 
ENDBRANCH  14  15
ENDBRANCH   1  14
TORSDOF 5
ENDMDL
MODEL 2
REMARK VINA RESULT:      -7.2      3.605      4.788
REMARK  5 active torsions:
REMARK  status: ('A' for Active; 'I' for Inactive)
REMARK    1  A    between atoms: C4_5  and  N1_6 
REMARK    2  A    between atoms: N1_6  and  C5_7 
REMARK    3  A    between atoms: C5_7  and  N2_8 
REMARK    4  A    between atoms: N2_8  and  C6_9 
REMARK    5  A    between atoms: C6_9  and  C7_10 
ROOT
HETATM    1  N2  UNL     1      26.973   1.988  51.514  1.00  0.00     0.104 N 
HETATM    2  H6  UNL     1      27.618   1.617  50.786  1.00  0.00     0.318 HD
ENDROOT
BRANCH   1   3
HETATM    3  C5  UNL     1      26.130   3.067  50.984  1.00  0.00     0.393 C 
BRANCH   3   4
HETATM    4  N1  UNL     1      25.014   3.248  51.863  1.00  0.00    -0.365 N 
HETATM    5  H3  UNL     1      25.010   4.027  52.560  1.00  0.00     0.161 HD
BRANCH   4   6
HETATM    6  C4  UNL     1      23.906   2.368  51.792  1.00  0.00     0.031 A 
HETATM    7  C3  UNL     1      23.409   1.716  52.876  1.00  0.00     0.032 A 
HETATM    8  C2  UNL     1      22.320   0.866  52.741  1.00  0.00     0.046 A 
HETATM    9  C1  UNL     1      21.711   0.654  51.524  1.00  0.00     0.138 A 
HETATM   10  F1  UNL     1      20.641  -0.171  51.347  1.00  0.00    -0.204 F 
HETATM   11  C14 UNL     1      22.198   1.308  50.390  1.00  0.00     0.074 A 
HETATM   12  C13 UNL     1      23.274   2.136  50.575  1.00  0.00     0.056 A 
HETATM   13 CL1  UNL     1      21.489   1.104  48.789  1.00  0.00    -0.081 Cl
ENDBRANCH   4   6
ENDBRANCH   3   4
ENDBRANCH   1   3
BRANCH   1  14
HETATM   14  C6  UNL     1      27.656   2.404  52.716  1.00  0.00     0.312 C 
BRANCH  14  15
HETATM   15  C7  UNL     1      27.766   1.288  53.684  1.00  0.00    -0.007 C 
HETATM   16  C8  UNL     1      26.657   0.627  54.143  1.00  0.00     0.030 C 
HETATM   17  C9  UNL     1      26.034  -0.609  54.224  1.00  0.00     0.118 C 
HETATM   18  N3  UNL     1      25.822  -1.237  53.053  1.00  0.00    -0.254 NA
HETATM   19  C10 UNL     1      26.850  -1.994  52.580  1.00  0.00     0.234 C 
HETATM   20  N4  UNL     1      28.026  -2.209  53.197  1.00  0.00    -0.230 NA
HETATM   21  C11 UNL     1      28.929  -1.225  53.380  1.00  0.00     0.259 C 
HETATM   22  O1  UNL     1      29.628  -0.206  53.816  1.00  0.00    -0.315 OA
HETATM   23  C12 UNL     1      29.007   0.915  54.123  1.00  0.00     0.152 C 
ENDBRANCH  14  15
ENDBRANCH   1  14
TORSDOF 5
ENDMDL
MODEL 3
REMARK VINA RESULT:      -7.1      4.553      6.474
REMARK  5 active torsions:
REMARK  status: ('A' for Active; 'I' for Inactive)
REMARK    1  A    between atoms: C4_5  and  N1_6 
REMARK    2  A    between atoms: N1_6  and  C5_7 
REMARK    3  A    between atoms: C5_7  and  N2_8 
REMARK    4  A    between atoms: N2_8  and  C6_9 
REMARK    5  A    between atoms: C6_9  and  C7_10 
ROOT
HETATM    1  N2  UNL     1      24.204   3.235  51.386  1.00  0.00     0.104 N 
HETATM    2  H6  UNL     1      23.625   3.260  50.520  1.00  0.00     0.318 HD
ENDROOT
BRANCH   1   3
HETATM    3  C5  UNL     1      25.502   2.594  51.142  1.00  0.00     0.393 C 
BRANCH   3   4
HETATM    4  N1  UNL     1      26.340   2.815  52.282  1.00  0.00    -0.365 N 
HETATM    5  H3  UNL     1      26.313   3.728  52.791  1.00  0.00     0.161 HD
BRANCH   4   6
HETATM    6  C4  UNL     1      27.214   1.793  52.727  1.00  0.00     0.031 A 
HETATM    7  C3  UNL     1      28.387   2.049  53.364  1.00  0.00     0.032 A 
HETATM    8  C2  UNL     1      29.202   1.003  53.775  1.00  0.00     0.046 A 
HETATM    9  C1  UNL     1      28.858  -0.313  53.559  1.00  0.00     0.138 A 
HETATM   10  F1  UNL     1      29.627  -1.369  53.946  1.00  0.00    -0.204 F 
HETATM   11  C14 UNL     1      27.659  -0.611  52.907  1.00  0.00     0.074 A 
HETATM   12  C13 UNL     1      26.891   0.456  52.520  1.00  0.00     0.056 A 
HETATM   13 CL1  UNL     1      27.130  -2.260  52.583  1.00  0.00    -0.081 Cl
ENDBRANCH   4   6
ENDBRANCH   3   4
ENDBRANCH   1   3
BRANCH   1  14
HETATM   14  C6  UNL     1      23.523   2.623  52.502  1.00  0.00     0.312 C 
BRANCH  14  15
HETATM   15  C7  UNL     1      22.973   1.297  52.133  1.00  0.00    -0.007 C 
HETATM   16  C8  UNL     1      23.261   0.174  52.863  1.00  0.00     0.030 C 
HETATM   17  C9  UNL     1      22.711  -0.855  53.613  1.00  0.00     0.118 C 
HETATM   18  N3  UNL     1      21.940  -0.478  54.650  1.00  0.00    -0.254 NA
HETATM   19  C10 UNL     1      20.631  -0.233  54.369  1.00  0.00     0.234 C 
HETATM   20  N4  UNL     1      20.034  -0.382  53.172  1.00  0.00    -0.230 NA
HETATM   21  C11 UNL     1      20.333   0.406  52.120  1.00  0.00     0.259 C 
HETATM   22  O1  UNL     1      20.863   0.963  51.059  1.00  0.00    -0.315 OA
HETATM   23  C12 UNL     1      22.159   1.202  51.037  1.00  0.00     0.152 C 
ENDBRANCH  14  15
ENDBRANCH   1  14
TORSDOF 5
ENDMDL
MODEL 4
REMARK VINA RESULT:      -7.1      3.673      4.787
REMARK  5 active torsions:
REMARK  status: ('A' for Active; 'I' for Inactive)
REMARK    1  A    between atoms: C4_5  and  N1_6 
REMARK    2  A    between atoms: N1_6  and  C5_7 
REMARK    3  A    between atoms: C5_7  and  N2_8 
REMARK    4  A    between atoms: N2_8  and  C6_9 
REMARK    5  A    between atoms: C6_9  and  C7_10 
ROOT
HETATM    1  N2  UNL     1      26.729   3.262  51.234  1.00  0.00     0.104 N 
HETATM    2  H6  UNL     1      26.647   3.636  52.202  1.00  0.00     0.318 HD
ENDROOT
BRANCH   1   3
HETATM    3  C5  UNL     1      25.704   3.834  50.351  1.00  0.00     0.393 C 
BRANCH   3   4
HETATM    4  N1  UNL     1      24.480   3.946  51.086  1.00  0.00    -0.365 N 
HETATM    5  H3  UNL     1      24.282   4.799  51.658  1.00  0.00     0.161 HD
BRANCH   4   6
HETATM    6  C4  UNL     1      23.529   2.897  51.041  1.00  0.00     0.031 A 
HETATM    7  C3  UNL     1      22.978   2.448  49.883  1.00  0.00     0.032 A 
HETATM    8  C2  UNL     1      22.050   1.416  49.905  1.00  0.00     0.046 A 
HETATM    9  C1  UNL     1      21.660   0.816  51.081  1.00  0.00     0.138 A 
HETATM   10  F1  UNL     1      20.753  -0.199  51.148  1.00  0.00    -0.204 F 
HETATM   11  C14 UNL     1      22.207   1.254  52.290  1.00  0.00     0.074 A 
HETATM   12  C13 UNL     1      23.118   2.275  52.215  1.00  0.00     0.056 A 
HETATM   13 CL1  UNL     1      21.773   0.551  53.847  1.00  0.00    -0.081 Cl
ENDBRANCH   4   6
ENDBRANCH   3   4
ENDBRANCH   1   3
BRANCH   1  14
HETATM   14  C6  UNL     1      26.712   1.820  51.181  1.00  0.00     0.312 C 
BRANCH  14  15
HETATM   15  C7  UNL     1      26.593   1.235  52.538  1.00  0.00    -0.007 C 
HETATM   16  C8  UNL     1      26.179  -0.057  52.726  1.00  0.00     0.030 C 
HETATM   17  C9  UNL     1      26.536  -1.290  53.251  1.00  0.00     0.118 C 
HETATM   18  N3  UNL     1      27.687  -1.813  52.790  1.00  0.00    -0.254 NA
HETATM   19  C10 UNL     1      28.824  -1.421  53.428  1.00  0.00     0.234 C 
HETATM   20  N4  UNL     1      28.895  -0.608  54.498  1.00  0.00    -0.230 NA
HETATM   21  C11 UNL     1      28.570   0.699  54.427  1.00  0.00     0.259 C 
HETATM   22  O1  UNL     1      27.958   1.857  54.401  1.00  0.00    -0.315 OA
HETATM   23  C12 UNL     1      26.906   2.011  53.621  1.00  0.00     0.152 C 
ENDBRANCH  14  15
ENDBRANCH   1  14
TORSDOF 5
ENDMDL
MODEL 5
REMARK VINA RESULT:      -7.0      4.479      5.818
REMARK  5 active torsions:
REMARK  status: ('A' for Active; 'I' for Inactive)
REMARK    1  A    between atoms: C4_5  and  N1_6 
REMARK    2  A    between atoms: N1_6  and  C5_7 
REMARK    3  A    between atoms: C5_7  and  N2_8 
REMARK    4  A    between atoms: N2_8  and  C6_9 
REMARK    5  A    between atoms: C6_9  and  C7_10 
ROOT
HETATM    1  N2  UNL     1      25.132   3.372  52.289  1.00  0.00     0.104 N 
HETATM    2  H6  UNL     1      24.856   3.300  53.291  1.00  0.00     0.318 HD
ENDROOT
BRANCH   1   3
HETATM    3  C5  UNL     1      23.975   3.203  51.402  1.00  0.00     0.393 C 
BRANCH   3   4
HETATM    4  N1  UNL     1      23.806   1.806  51.134  1.00  0.00    -0.365 N 
HETATM    5  H3  UNL     1      24.448   1.313  50.473  1.00  0.00     0.161 HD
BRANCH   4   6
HETATM    6  C4  UNL     1      22.764   1.084  51.766  1.00  0.00     0.031 A 
HETATM    7  C3  UNL     1      21.500   1.025  51.270  1.00  0.00     0.032 A 
HETATM    8  C2  UNL     1      20.521   0.301  51.936  1.00  0.00     0.046 A 
HETATM    9  C1  UNL     1      20.788  -0.376  53.105  1.00  0.00     0.138 A 
HETATM   10  F1  UNL     1      19.859  -1.098  53.791  1.00  0.00    -0.204 F 
HETATM   11  C14 UNL     1      22.078  -0.336  53.642  1.00  0.00     0.074 A 
HETATM   12  C13 UNL     1      23.007   0.393  52.947  1.00  0.00     0.056 A 
HETATM   13 CL1  UNL     1      22.520  -1.168  55.131  1.00  0.00    -0.081 Cl
ENDBRANCH   4   6
ENDBRANCH   3   4
ENDBRANCH   1   3
BRANCH   1  14
HETATM   14  C6  UNL     1      26.199   2.468  51.930  1.00  0.00     0.312 C 
BRANCH  14  15
HETATM   15  C7  UNL     1      26.889   1.949  53.135  1.00  0.00    -0.007 C 
HETATM   16  C8  UNL     1      26.246   1.144  54.037  1.00  0.00     0.030 C 
HETATM   17  C9  UNL     1      26.259  -0.102  54.647  1.00  0.00     0.118 C 
HETATM   18  N3  UNL     1      26.247  -1.161  53.817  1.00  0.00    -0.254 NA
HETATM   19  C10 UNL     1      27.458  -1.580  53.357  1.00  0.00     0.234 C 
HETATM   20  N4  UNL     1      28.656  -1.068  53.694  1.00  0.00    -0.230 NA
HETATM   21  C11 UNL     1      29.030   0.176  53.335  1.00  0.00     0.259 C 
HETATM   22  O1  UNL     1      29.229   1.468  53.247  1.00  0.00    -0.315 OA
HETATM   23  C12 UNL     1      28.199   2.286  53.341  1.00  0.00     0.152 C 
ENDBRANCH  14  15
ENDBRANCH   1  14
TORSDOF 5
ENDMDL
MODEL 6
REMARK VINA RESULT:      -7.0      3.183      3.924
REMARK  5 active torsions:
REMARK  status: ('A' for Active; 'I' for Inactive)
REMARK    1  A    between atoms: C4_5  and  N1_6 
REMARK    2  A    between atoms: N1_6  and  C5_7 
REMARK    3  A    between atoms: C5_7  and  N2_8 
REMARK    4  A    between atoms: N2_8  and  C6_9 
REMARK    5  A    between atoms: C6_9  and  C7_10 
ROOT
HETATM    1  N2  UNL     1      24.097   0.313  53.699  1.00  0.00     0.104 N 
HETATM    2  H6  UNL     1      23.878   0.876  54.546  1.00  0.00     0.318 HD
ENDROOT
BRANCH   1   3
HETATM    3  C5  UNL     1      22.881  -0.253  53.102  1.00  0.00     0.393 C 
BRANCH   3   4
HETATM    4  N1  UNL     1      22.069   0.822  52.617  1.00  0.00    -0.365 N 
HETATM    5  H3  UNL     1      21.430   1.337  53.266  1.00  0.00     0.161 HD
BRANCH   4   6
HETATM    6  C4  UNL     1      22.126   1.193  51.252  1.00  0.00     0.031 A 
HETATM    7  C3  UNL     1      21.351   0.616  50.296  1.00  0.00     0.032 A 
HETATM    8  C2  UNL     1      21.454   1.022  48.973  1.00  0.00     0.046 A 
HETATM    9  C1  UNL     1      22.329   2.012  48.584  1.00  0.00     0.138 A 
HETATM   10  F1  UNL     1      22.463   2.442  47.298  1.00  0.00    -0.204 F 
HETATM   11  C14 UNL     1      23.140   2.626  49.542  1.00  0.00     0.074 A 
HETATM   12  C13 UNL     1      23.001   2.189  50.833  1.00  0.00     0.056 A 
HETATM   13 CL1  UNL     1      24.291   3.901  49.146  1.00  0.00    -0.081 Cl
ENDBRANCH   4   6
ENDBRANCH   3   4
ENDBRANCH   1   3
BRANCH   1  14
HETATM   14  C6  UNL     1      25.082  -0.714  53.943  1.00  0.00     0.312 C 
BRANCH  14  15
HETATM   15  C7  UNL     1      26.282  -0.517  53.096  1.00  0.00    -0.007 C 
HETATM   16  C8  UNL     1      26.616   0.717  52.604  1.00  0.00     0.030 C 
HETATM   17  C9  UNL     1      27.600   1.694  52.583  1.00  0.00     0.118 C 
HETATM   18  N3  UNL     1      27.991   2.158  53.785  1.00  0.00    -0.254 NA
HETATM   19  C10 UNL     1      28.968   1.451  54.416  1.00  0.00     0.234 C 
HETATM   20  N4  UNL     1      29.607   0.372  53.928  1.00  0.00    -0.230 NA
HETATM   21  C11 UNL     1      28.979  -0.805  53.734  1.00  0.00     0.259 C 
HETATM   22  O1  UNL     1      28.284  -1.814  53.269  1.00  0.00    -0.315 OA
HETATM   23  C12 UNL     1      27.069  -1.598  52.805  1.00  0.00     0.152 C 
ENDBRANCH  14  15
ENDBRANCH   1  14
TORSDOF 5
ENDMDL
MODEL 7
REMARK VINA RESULT:      -6.9      4.426      7.040
REMARK  5 active torsions:
REMARK  status: ('A' for Active; 'I' for Inactive)
REMARK    1  A    between atoms: C4_5  and  N1_6 
REMARK    2  A    between atoms: N1_6  and  C5_7 
REMARK    3  A    between atoms: C5_7  and  N2_8 
REMARK    4  A    between atoms: N2_8  and  C6_9 
REMARK    5  A    between atoms: C6_9  and  C7_10 
ROOT
HETATM    1  N2  UNL     1      24.731   3.583  51.978  1.00  0.00     0.104 N 
HETATM    2  H6  UNL     1      25.638   4.084  51.884  1.00  0.00     0.318 HD
ENDROOT
BRANCH   1   3
HETATM    3  C5  UNL     1      24.688   2.782  53.208  1.00  0.00     0.393 C 
BRANCH   3   4
HETATM    4  N1  UNL     1      26.027   2.424  53.566  1.00  0.00    -0.365 N 
HETATM    5  H3  UNL     1      26.670   3.134  53.985  1.00  0.00     0.161 HD
BRANCH   4   6
HETATM    6  C4  UNL     1      26.488   1.102  53.354  1.00  0.00     0.031 A 
HETATM    7  C3  UNL     1      25.667   0.082  52.989  1.00  0.00     0.032 A 
HETATM    8  C2  UNL     1      26.179  -1.193  52.796  1.00  0.00     0.046 A 
HETATM    9  C1  UNL     1      27.517  -1.470  52.962  1.00  0.00     0.138 A 
HETATM   10  F1  UNL     1      28.062  -2.706  52.783  1.00  0.00    -0.204 F 
HETATM   11  C14 UNL     1      28.390  -0.444  53.336  1.00  0.00     0.074 A 
HETATM   12  C13 UNL     1      27.835   0.796  53.515  1.00  0.00     0.056 A 
HETATM   13 CL1  UNL     1      30.118  -0.697  53.573  1.00  0.00    -0.081 Cl
ENDBRANCH   4   6
ENDBRANCH   3   4
ENDBRANCH   1   3
BRANCH   1  14
HETATM   14  C6  UNL     1      24.406   2.779  50.824  1.00  0.00     0.312 C 
BRANCH  14  15
HETATM   15  C7  UNL     1      22.950   2.797  50.550  1.00  0.00    -0.007 C 
HETATM   16  C8  UNL     1      22.244   1.639  50.357  1.00  0.00     0.030 C 
HETATM   17  C9  UNL     1      21.192   0.868  50.827  1.00  0.00     0.118 C 
HETATM   18  N3  UNL     1      21.258   0.514  52.124  1.00  0.00    -0.254 NA
HETATM   19  C10 UNL     1      20.758   1.410  53.019  1.00  0.00     0.234 C 
HETATM   20  N4  UNL     1      20.163   2.580  52.723  1.00  0.00    -0.230 NA
HETATM   21  C11 UNL     1      20.841   3.610  52.180  1.00  0.00     0.259 C 
HETATM   22  O1  UNL     1      21.441   4.457  51.379  1.00  0.00    -0.315 OA
HETATM   23  C12 UNL     1      22.304   4.002  50.493  1.00  0.00     0.152 C 
ENDBRANCH  14  15
ENDBRANCH   1  14
TORSDOF 5
ENDMDL
MODEL 8
REMARK VINA RESULT:      -6.9      3.910      7.156
REMARK  5 active torsions:
REMARK  status: ('A' for Active; 'I' for Inactive)
REMARK    1  A    between atoms: C4_5  and  N1_6 
REMARK    2  A    between atoms: N1_6  and  C5_7 
REMARK    3  A    between atoms: C5_7  and  N2_8 
REMARK    4  A    between atoms: N2_8  and  C6_9 
REMARK    5  A    between atoms: C6_9  and  C7_10 
ROOT
HETATM    1  N2  UNL     1      25.548   3.189  52.247  1.00  0.00     0.104 N 
HETATM    2  H6  UNL     1      26.510   3.194  51.849  1.00  0.00     0.318 HD
ENDROOT
BRANCH   1   3
HETATM    3  C5  UNL     1      25.508   2.495  53.540  1.00  0.00     0.393 C 
BRANCH   3   4
HETATM    4  N1  UNL     1      26.843   2.401  54.049  1.00  0.00    -0.365 N 
HETATM    5  H3  UNL     1      27.264   3.196  54.582  1.00  0.00     0.161 HD
BRANCH   4   6
HETATM    6  C4  UNL     1      27.604   1.226  53.830  1.00  0.00     0.031 A 
HETATM    7  C3  UNL     1      28.913   1.117  54.178  1.00  0.00     0.032 A 
HETATM    8  C2  UNL     1      29.604  -0.062  53.936  1.00  0.00     0.046 A 
HETATM    9  C1  UNL     1      29.000  -1.150  53.346  1.00  0.00     0.138 A 
HETATM   10  F1  UNL     1      29.640  -2.325  53.091  1.00  0.00    -0.204 F 
HETATM   11  C14 UNL     1      27.655  -1.071  52.976  1.00  0.00     0.074 A 
HETATM   12  C13 UNL     1      27.017   0.114  53.236  1.00  0.00     0.056 A 
HETATM   13 CL1  UNL     1      26.792  -2.406  52.216  1.00  0.00    -0.081 Cl
ENDBRANCH   4   6
ENDBRANCH   3   4
ENDBRANCH   1   3
BRANCH   1  14
HETATM   14  C6  UNL     1      24.563   2.652  51.339  1.00  0.00     0.312 C 
BRANCH  14  15
HETATM   15  C7  UNL     1      24.774   3.154  49.961  1.00  0.00    -0.007 C 
HETATM   16  C8  UNL     1      23.720   3.423  49.128  1.00  0.00     0.030 C 
HETATM   17  C9  UNL     1      23.095   4.412  48.384  1.00  0.00     0.118 C 
HETATM   18  N3  UNL     1      22.734   5.516  49.063  1.00  0.00    -0.254 NA
HETATM   19  C10 UNL     1      23.687   6.479  49.197  1.00  0.00     0.234 C 
HETATM   20  N4  UNL     1      24.926   6.448  48.673  1.00  0.00    -0.230 NA
HETATM   21  C11 UNL     1      25.858   5.569  49.092  1.00  0.00     0.259 C 
HETATM   22  O1  UNL     1      26.618   4.520  49.290  1.00  0.00    -0.315 OA
HETATM   23  C12 UNL     1      26.054   3.351  49.519  1.00  0.00     0.152 C 
ENDBRANCH  14  15
ENDBRANCH   1  14
TORSDOF 5
ENDMDL
MODEL 9
REMARK VINA RESULT:      -6.8      2.015      2.713
REMARK  5 active torsions:
REMARK  status: ('A' for Active; 'I' for Inactive)
REMARK    1  A    between atoms: C4_5  and  N1_6 
REMARK    2  A    between atoms: N1_6  and  C5_7 
REMARK    3  A    between atoms: C5_7  and  N2_8 
REMARK    4  A    between atoms: N2_8  and  C6_9 
REMARK    5  A    between atoms: C6_9  and  C7_10 
ROOT
HETATM    1  N2  UNL     1      22.989   0.880  51.967  1.00  0.00     0.104 N 
HETATM    2  H6  UNL     1      23.532   0.405  51.217  1.00  0.00     0.318 HD
ENDROOT
BRANCH   1   3
HETATM    3  C5  UNL     1      22.522   2.203  51.533  1.00  0.00     0.393 C 
BRANCH   3   4
HETATM    4  N1  UNL     1      23.247   3.203  52.258  1.00  0.00    -0.365 N 
HETATM    5  H3  UNL     1      23.280   3.179  53.303  1.00  0.00     0.161 HD
BRANCH   4   6
HETATM    6  C4  UNL     1      23.923   4.233  51.560  1.00  0.00     0.031 A 
HETATM    7  C3  UNL     1      23.595   5.546  51.679  1.00  0.00     0.032 A 
HETATM    8  C2  UNL     1      24.296   6.509  50.967  1.00  0.00     0.046 A 
HETATM    9  C1  UNL     1      25.335   6.177  50.128  1.00  0.00     0.138 A 
HETATM   10  F1  UNL     1      26.050   7.090  49.411  1.00  0.00    -0.204 F 
HETATM   11  C14 UNL     1      25.699   4.836  49.982  1.00  0.00     0.074 A 
HETATM   12  C13 UNL     1      24.976   3.924  50.705  1.00  0.00     0.056 A 
HETATM   13 CL1  UNL     1      27.013   4.309  48.933  1.00  0.00    -0.081 Cl
ENDBRANCH   4   6
ENDBRANCH   3   4
ENDBRANCH   1   3
BRANCH   1  14
HETATM   14  C6  UNL     1      23.706   0.966  53.216  1.00  0.00     0.312 C 
BRANCH  14  15
HETATM   15  C7  UNL     1      25.010   0.266  53.136  1.00  0.00    -0.007 C 
HETATM   16  C8  UNL     1      25.909   0.540  52.140  1.00  0.00     0.030 C 
HETATM   17  C9  UNL     1      27.196   0.982  51.873  1.00  0.00     0.118 C 
HETATM   18  N3  UNL     1      27.522   2.182  52.386  1.00  0.00    -0.254 NA
HETATM   19  C10 UNL     1      27.986   2.185  53.666  1.00  0.00     0.234 C 
HETATM   20  N4  UNL     1      28.195   1.102  54.437  1.00  0.00    -0.230 NA
HETATM   21  C11 UNL     1      27.180   0.335  54.882  1.00  0.00     0.259 C 
HETATM   22  O1  UNL     1      26.223  -0.549  55.028  1.00  0.00    -0.315 OA
HETATM   23  C12 UNL     1      25.313  -0.674  54.083  1.00  0.00     0.152 C 
ENDBRANCH  14  15
ENDBRANCH   1  14
TORSDOF 5
ENDMDL
