MODEL 1
REMARK VINA RESULT:      -6.6      0.000      0.000
REMARK  10 active torsions:
REMARK  status: ('A' for Active; 'I' for Inactive)
REMARK    1  A    between atoms: C2_2  and  C3_3 
REMARK    2  A    between atoms: C2_2  and  N4_19 
REMARK    3  A    between atoms: C3_3  and  C4_4 
REMARK    4  A    between atoms: C9_11  and  C10_12 
REMARK    5  A    between atoms: C10_12  and  C11_13 
REMARK    6  A    between atoms: C10_12  and  C13_16 
REMARK    7  A    between atoms: C11_13  and  C12_14 
REMARK    8  A    between atoms: C12_14  and  N3_15 
REMARK    9  A    between atoms: N4_19  and  C15_20 
REMARK   10  A    between atoms: C15_20  and  C16_21 
ROOT
HETATM    1  C4  UNL     1      24.710   1.626  51.958  1.00  0.00     0.045 A 
HETATM    2  C5  UNL     1      25.350   0.773  53.005  1.00  0.00     0.062 A 
HETATM    3  C6  UNL     1      26.781   1.096  53.125  1.00  0.00     0.040 A 
HETATM    4  C7  UNL     1      27.392   0.233  54.152  1.00  0.00     0.096 C 
HETATM    5  N1  UNL     1      27.902  -0.461  54.968  1.00  0.00    -0.192 NA
HETATM    6  C8  UNL     1      27.646   1.924  52.576  1.00  0.00     0.134 A 
HETATM    7  N2  UNL     1      26.948   2.696  51.609  1.00  0.00    -0.267 NA
HETATM    8  C9  UNL     1      25.664   2.547  51.361  1.00  0.00     0.028 A 
ENDROOT
BRANCH   1   9
HETATM    9  C3  UNL     1      23.426   2.206  52.478  1.00  0.00     0.066 C 
BRANCH   9  10
HETATM   10  C2  UNL     1      22.312   1.262  52.208  1.00  0.00    -0.004 C 
HETATM   11  C1  UNL     1      21.772   0.637  51.184  1.00  0.00     0.037 C 
BRANCH  10  12
HETATM   12  N4  UNL     1      21.673   0.980  53.474  1.00  0.00    -0.391 N 
HETATM   13  H16 UNL     1      21.648   1.911  53.947  1.00  0.00     0.159 HD
BRANCH  12  14
HETATM   14  C15 UNL     1      21.217  -0.342  53.872  1.00  0.00     0.156 C 
BRANCH  14  15
HETATM   15  C16 UNL     1      22.130  -0.962  54.869  1.00  0.00     0.410 C 
HETATM   16  O1  UNL     1      22.716  -1.724  55.608  1.00  0.00    -0.428 OA
ENDBRANCH  14  15
ENDBRANCH  12  14
ENDBRANCH  10  12
ENDBRANCH   9  10
ENDBRANCH   1   9
BRANCH   8  17
HETATM   17  C10 UNL     1      25.202   3.498  50.353  1.00  0.00     0.081 C 
BRANCH  17  18
HETATM   18  C11 UNL     1      26.331   4.045  49.543  1.00  0.00     0.004 C 
BRANCH  18  19
HETATM   19  C12 UNL     1      27.291   4.699  48.865  1.00  0.00     0.077 C 
BRANCH  19  20
HETATM   20  N3  UNL     1      28.463   5.479  48.813  1.00  0.00    -0.408 N 
HETATM   21  H12 UNL     1      29.010   5.074  49.612  1.00  0.00     0.155 HD
HETATM   22  H13 UNL     1      28.167   6.062  47.989  1.00  0.00     0.155 HD
ENDBRANCH  19  20
ENDBRANCH  18  19
ENDBRANCH  17  18
BRANCH  17  23
HETATM   23  C13 UNL     1      24.152   2.906  49.492  1.00  0.00    -0.005 C 
HETATM   24  C14 UNL     1      23.148   3.291  48.699  1.00  0.00     0.053 C 
HETATM   25 BR1  UNL     1      21.933   2.235  47.691  1.00  0.00    -0.064 Br
ENDBRANCH  17  23
ENDBRANCH   8  17
TORSDOF 10
ENDMDL
MODEL 2
REMARK VINA RESULT:      -6.6      2.179      2.609
REMARK  10 active torsions:
REMARK  status: ('A' for Active; 'I' for Inactive)
REMARK    1  A    between atoms: C2_2  and  C3_3 
REMARK    2  A    between atoms: C2_2  and  N4_19 
REMARK    3  A    between atoms: C3_3  and  C4_4 
REMARK    4  A    between atoms: C9_11  and  C10_12 
REMARK    5  A    between atoms: C10_12  and  C11_13 
REMARK    6  A    between atoms: C10_12  and  C13_16 
REMARK    7  A    between atoms: C11_13  and  C12_14 
REMARK    8  A    between atoms: C12_14  and  N3_15 
REMARK    9  A    between atoms: N4_19  and  C15_20 
REMARK   10  A    between atoms: C15_20  and  C16_21 
ROOT
HETATM    1  C4  UNL     1      24.939   1.579  51.585  1.00  0.00     0.045 A 
HETATM    2  C5  UNL     1      25.441   0.727  52.706  1.00  0.00     0.062 A 
HETATM    3  C6  UNL     1      26.824   1.093  53.049  1.00  0.00     0.040 A 
HETATM    4  C7  UNL     1      27.300   0.230  54.145  1.00  0.00     0.096 C 
HETATM    5  N1  UNL     1      27.702  -0.463  55.020  1.00  0.00    -0.192 NA
HETATM    6  C8  UNL     1      27.732   1.960  52.653  1.00  0.00     0.134 A 
HETATM    7  N2  UNL     1      27.164   2.729  51.601  1.00  0.00    -0.267 NA
HETATM    8  C9  UNL     1      25.940   2.542  51.156  1.00  0.00     0.028 A 
ENDROOT
BRANCH   1   9
HETATM    9  C3  UNL     1      23.570   2.106  51.910  1.00  0.00     0.066 C 
BRANCH   9  10
HETATM   10  C2  UNL     1      22.556   1.370  51.113  1.00  0.00    -0.004 C 
HETATM   11  C1  UNL     1      22.084   1.355  49.885  1.00  0.00     0.037 C 
BRANCH  10  12
HETATM   12  N4  UNL     1      21.942   0.399  51.992  1.00  0.00    -0.391 N 
HETATM   13  H16 UNL     1      21.858  -0.452  51.392  1.00  0.00     0.159 HD
BRANCH  12  14
HETATM   14  C15 UNL     1      21.577   0.676  53.371  1.00  0.00     0.156 C 
BRANCH  14  15
HETATM   15  C16 UNL     1      21.885  -0.474  54.263  1.00  0.00     0.410 C 
HETATM   16  O1  UNL     1      21.879  -1.315  55.137  1.00  0.00    -0.428 OA
ENDBRANCH  14  15
ENDBRANCH  12  14
ENDBRANCH  10  12
ENDBRANCH   9  10
ENDBRANCH   1   9
BRANCH   8  17
HETATM   17  C10 UNL     1      25.605   3.498  50.103  1.00  0.00     0.081 C 
BRANCH  17  18
HETATM   18  C11 UNL     1      24.750   4.612  50.613  1.00  0.00     0.004 C 
BRANCH  18  19
HETATM   19  C12 UNL     1      24.129   5.675  51.154  1.00  0.00     0.077 C 
BRANCH  19  20
HETATM   20  N3  UNL     1      24.139   6.889  51.869  1.00  0.00    -0.408 N 
HETATM   21  H12 UNL     1      24.983   7.358  51.458  1.00  0.00     0.155 HD
HETATM   22  H13 UNL     1      23.284   6.681  52.445  1.00  0.00     0.155 HD
ENDBRANCH  19  20
ENDBRANCH  18  19
ENDBRANCH  17  18
BRANCH  17  23
HETATM   23  C13 UNL     1      26.820   4.011  49.430  1.00  0.00    -0.005 C 
HETATM   24  C14 UNL     1      27.285   5.140  48.888  1.00  0.00     0.053 C 
HETATM   25 BR1  UNL     1      28.964   5.484  48.068  1.00  0.00    -0.064 Br
ENDBRANCH  17  23
ENDBRANCH   8  17
TORSDOF 10
ENDMDL
MODEL 3
REMARK VINA RESULT:      -6.5      2.545      2.957
REMARK  10 active torsions:
REMARK  status: ('A' for Active; 'I' for Inactive)
REMARK    1  A    between atoms: C2_2  and  C3_3 
REMARK    2  A    between atoms: C2_2  and  N4_19 
REMARK    3  A    between atoms: C3_3  and  C4_4 
REMARK    4  A    between atoms: C9_11  and  C10_12 
REMARK    5  A    between atoms: C10_12  and  C11_13 
REMARK    6  A    between atoms: C10_12  and  C13_16 
REMARK    7  A    between atoms: C11_13  and  C12_14 
REMARK    8  A    between atoms: C12_14  and  N3_15 
REMARK    9  A    between atoms: N4_19  and  C15_20 
REMARK   10  A    between atoms: C15_20  and  C16_21 
ROOT
HETATM    1  C4  UNL     1      23.994   0.215  52.788  1.00  0.00     0.045 A 
HETATM    2  C5  UNL     1      25.173  -0.619  53.176  1.00  0.00     0.062 A 
HETATM    3  C6  UNL     1      26.425   0.056  52.799  1.00  0.00     0.040 A 
HETATM    4  C7  UNL     1      27.569  -0.791  53.179  1.00  0.00     0.096 C 
HETATM    5  N1  UNL     1      28.502  -1.465  53.468  1.00  0.00    -0.192 NA
HETATM    6  C8  UNL     1      26.794   1.183  52.225  1.00  0.00     0.134 A 
HETATM    7  N2  UNL     1      25.614   1.909  51.905  1.00  0.00    -0.267 NA
HETATM    8  C9  UNL     1      24.404   1.463  52.164  1.00  0.00     0.028 A 
ENDROOT
BRANCH   1   9
HETATM    9  C3  UNL     1      23.023   0.302  53.931  1.00  0.00     0.066 C 
BRANCH   9  10
HETATM   10  C2  UNL     1      21.897  -0.636  53.695  1.00  0.00    -0.004 C 
HETATM   11  C1  UNL     1      21.316  -1.654  54.293  1.00  0.00     0.037 C 
BRANCH  10  12
HETATM   12  N4  UNL     1      21.300  -0.280  52.427  1.00  0.00    -0.391 N 
HETATM   13  H16 UNL     1      22.055  -0.490  51.735  1.00  0.00     0.159 HD
BRANCH  12  14
HETATM   14  C15 UNL     1      19.950   0.241  52.288  1.00  0.00     0.156 C 
BRANCH  14  15
HETATM   15  C16 UNL     1      19.912   1.720  52.447  1.00  0.00     0.410 C 
HETATM   16  O1  UNL     1      20.063   2.864  52.821  1.00  0.00    -0.428 OA
ENDBRANCH  14  15
ENDBRANCH  12  14
ENDBRANCH  10  12
ENDBRANCH   9  10
ENDBRANCH   1   9
BRANCH   8  17
HETATM   17  C10 UNL     1      23.384   2.430  51.767  1.00  0.00     0.081 C 
BRANCH  17  18
HETATM   18  C11 UNL     1      23.701   3.806  52.254  1.00  0.00     0.004 C 
BRANCH  18  19
HETATM   19  C12 UNL     1      23.812   5.081  52.669  1.00  0.00     0.077 C 
BRANCH  19  20
HETATM   20  N3  UNL     1      24.276   6.402  52.515  1.00  0.00    -0.408 N 
HETATM   21  H12 UNL     1      24.467   6.666  53.513  1.00  0.00     0.155 HD
HETATM   22  H13 UNL     1      24.184   6.426  51.468  1.00  0.00     0.155 HD
ENDBRANCH  19  20
ENDBRANCH  18  19
ENDBRANCH  17  18
BRANCH  17  23
HETATM   23  C13 UNL     1      23.159   2.410  50.304  1.00  0.00    -0.005 C 
HETATM   24  C14 UNL     1      22.293   1.920  49.412  1.00  0.00     0.053 C 
HETATM   25 BR1  UNL     1      22.287   2.080  47.519  1.00  0.00    -0.064 Br
ENDBRANCH  17  23
ENDBRANCH   8  17
TORSDOF 10
ENDMDL
MODEL 4
REMARK VINA RESULT:      -6.3      2.582      5.074
REMARK  10 active torsions:
REMARK  status: ('A' for Active; 'I' for Inactive)
REMARK    1  A    between atoms: C2_2  and  C3_3 
REMARK    2  A    between atoms: C2_2  and  N4_19 
REMARK    3  A    between atoms: C3_3  and  C4_4 
REMARK    4  A    between atoms: C9_11  and  C10_12 
REMARK    5  A    between atoms: C10_12  and  C11_13 
REMARK    6  A    between atoms: C10_12  and  C13_16 
REMARK    7  A    between atoms: C11_13  and  C12_14 
REMARK    8  A    between atoms: C12_14  and  N3_15 
REMARK    9  A    between atoms: N4_19  and  C15_20 
REMARK   10  A    between atoms: C15_20  and  C16_21 
ROOT
HETATM    1  C4  UNL     1      24.392   1.297  52.329  1.00  0.00     0.045 A 
HETATM    2  C5  UNL     1      24.210   0.357  53.477  1.00  0.00     0.062 A 
HETATM    3  C6  UNL     1      22.849  -0.204  53.469  1.00  0.00     0.040 A 
HETATM    4  C7  UNL     1      22.691  -1.116  54.616  1.00  0.00     0.096 C 
HETATM    5  N1  UNL     1      22.543  -1.845  55.541  1.00  0.00    -0.192 NA
HETATM    6  C8  UNL     1      21.759  -0.114  52.736  1.00  0.00     0.134 A 
HETATM    7  N2  UNL     1      22.030   0.786  51.670  1.00  0.00    -0.267 NA
HETATM    8  C9  UNL     1      23.190   1.387  51.515  1.00  0.00     0.028 A 
ENDROOT
BRANCH   1   9
HETATM    9  C3  UNL     1      25.684   1.005  51.621  1.00  0.00     0.066 C 
BRANCH   9  10
HETATM   10  C2  UNL     1      26.511   2.237  51.572  1.00  0.00    -0.004 C 
HETATM   11  C1  UNL     1      26.812   3.192  50.719  1.00  0.00     0.037 C 
BRANCH  10  12
HETATM   12  N4  UNL     1      27.142   2.381  52.865  1.00  0.00    -0.391 N 
HETATM   13  H16 UNL     1      26.522   3.059  53.363  1.00  0.00     0.159 HD
BRANCH  12  14
HETATM   14  C15 UNL     1      28.358   1.686  53.252  1.00  0.00     0.156 C 
BRANCH  14  15
HETATM   15  C16 UNL     1      28.108   0.708  54.345  1.00  0.00     0.410 C 
HETATM   16  O1  UNL     1      27.968  -0.295  55.012  1.00  0.00    -0.428 OA
ENDBRANCH  14  15
ENDBRANCH  12  14
ENDBRANCH  10  12
ENDBRANCH   9  10
ENDBRANCH   1   9
BRANCH   8  17
HETATM   17  C10 UNL     1      23.202   2.221  50.316  1.00  0.00     0.081 C 
BRANCH  17  18
HETATM   18  C11 UNL     1      22.014   1.966  49.447  1.00  0.00     0.004 C 
BRANCH  18  19
HETATM   19  C12 UNL     1      21.019   1.852  48.550  1.00  0.00     0.077 C 
BRANCH  19  20
HETATM   20  N3  UNL     1      19.701   2.099  48.119  1.00  0.00    -0.408 N 
HETATM   21  H12 UNL     1      19.871   2.467  47.152  1.00  0.00     0.155 HD
HETATM   22  H13 UNL     1      19.236   1.779  49.007  1.00  0.00     0.155 HD
ENDBRANCH  19  20
ENDBRANCH  18  19
ENDBRANCH  17  18
BRANCH  17  23
HETATM   23  C13 UNL     1      23.328   3.657  50.657  1.00  0.00    -0.005 C 
HETATM   24  C14 UNL     1      23.295   4.852  50.060  1.00  0.00     0.053 C 
HETATM   25 BR1  UNL     1      23.500   6.584  50.814  1.00  0.00    -0.064 Br
ENDBRANCH  17  23
ENDBRANCH   8  17
TORSDOF 10
ENDMDL
MODEL 5
REMARK VINA RESULT:      -6.1      3.255      5.690
REMARK  10 active torsions:
REMARK  status: ('A' for Active; 'I' for Inactive)
REMARK    1  A    between atoms: C2_2  and  C3_3 
REMARK    2  A    between atoms: C2_2  and  N4_19 
REMARK    3  A    between atoms: C3_3  and  C4_4 
REMARK    4  A    between atoms: C9_11  and  C10_12 
REMARK    5  A    between atoms: C10_12  and  C11_13 
REMARK    6  A    between atoms: C10_12  and  C13_16 
REMARK    7  A    between atoms: C11_13  and  C12_14 
REMARK    8  A    between atoms: C12_14  and  N3_15 
REMARK    9  A    between atoms: N4_19  and  C15_20 
REMARK   10  A    between atoms: C15_20  and  C16_21 
ROOT
HETATM    1  C4  UNL     1      24.435   1.441  52.253  1.00  0.00     0.045 A 
HETATM    2  C5  UNL     1      24.286   0.511  53.413  1.00  0.00     0.062 A 
HETATM    3  C6  UNL     1      22.940  -0.084  53.425  1.00  0.00     0.040 A 
HETATM    4  C7  UNL     1      22.815  -0.985  54.585  1.00  0.00     0.096 C 
HETATM    5  N1  UNL     1      22.693  -1.706  55.519  1.00  0.00    -0.192 NA
HETATM    6  C8  UNL     1      21.842  -0.031  52.701  1.00  0.00     0.134 A 
HETATM    7  N2  UNL     1      22.081   0.863  51.621  1.00  0.00    -0.267 NA
HETATM    8  C9  UNL     1      23.223   1.491  51.449  1.00  0.00     0.028 A 
ENDROOT
BRANCH   1   9
HETATM    9  C3  UNL     1      25.727   1.173  51.537  1.00  0.00     0.066 C 
BRANCH   9  10
HETATM   10  C2  UNL     1      26.761   2.127  52.009  1.00  0.00    -0.004 C 
HETATM   11  C1  UNL     1      27.703   2.191  52.926  1.00  0.00     0.037 C 
BRANCH  10  12
HETATM   12  N4  UNL     1      26.660   3.312  51.185  1.00  0.00    -0.391 N 
HETATM   13  H16 UNL     1      26.519   4.079  51.880  1.00  0.00     0.159 HD
BRANCH  12  14
HETATM   14  C15 UNL     1      26.752   3.296  49.735  1.00  0.00     0.156 C 
BRANCH  14  15
HETATM   15  C16 UNL     1      26.540   4.650  49.156  1.00  0.00     0.410 C 
HETATM   16  O1  UNL     1      26.665   5.793  48.768  1.00  0.00    -0.428 OA
ENDBRANCH  14  15
ENDBRANCH  12  14
ENDBRANCH  10  12
ENDBRANCH   9  10
ENDBRANCH   1   9
BRANCH   8  17
HETATM   17  C10 UNL     1      23.204   2.310  50.239  1.00  0.00     0.081 C 
BRANCH  17  18
HETATM   18  C11 UNL     1      22.055   1.963  49.350  1.00  0.00     0.004 C 
BRANCH  18  19
HETATM   19  C12 UNL     1      20.916   1.713  48.681  1.00  0.00     0.077 C 
BRANCH  19  20
HETATM   20  N3  UNL     1      19.715   2.129  48.074  1.00  0.00    -0.408 N 
HETATM   21  H12 UNL     1      19.043   1.415  48.448  1.00  0.00     0.155 HD
HETATM   22  H13 UNL     1      20.131   2.947  47.560  1.00  0.00     0.155 HD
ENDBRANCH  19  20
ENDBRANCH  18  19
ENDBRANCH  17  18
BRANCH  17  23
HETATM   23  C13 UNL     1      23.224   3.755  50.564  1.00  0.00    -0.005 C 
HETATM   24  C14 UNL     1      22.746   4.911  50.095  1.00  0.00     0.053 C 
HETATM   25 BR1  UNL     1      22.963   6.672  50.774  1.00  0.00    -0.064 Br
ENDBRANCH  17  23
ENDBRANCH   8  17
TORSDOF 10
ENDMDL
MODEL 6
REMARK VINA RESULT:      -5.9      3.172      5.470
REMARK  10 active torsions:
REMARK  status: ('A' for Active; 'I' for Inactive)
REMARK    1  A    between atoms: C2_2  and  C3_3 
REMARK    2  A    between atoms: C2_2  and  N4_19 
REMARK    3  A    between atoms: C3_3  and  C4_4 
REMARK    4  A    between atoms: C9_11  and  C10_12 
REMARK    5  A    between atoms: C10_12  and  C11_13 
REMARK    6  A    between atoms: C10_12  and  C13_16 
REMARK    7  A    between atoms: C11_13  and  C12_14 
REMARK    8  A    between atoms: C12_14  and  N3_15 
REMARK    9  A    between atoms: N4_19  and  C15_20 
REMARK   10  A    between atoms: C15_20  and  C16_21 
ROOT
HETATM    1  C4  UNL     1      22.986   1.398  52.080  1.00  0.00     0.045 A 
HETATM    2  C5  UNL     1      21.571   0.975  52.308  1.00  0.00     0.062 A 
HETATM    3  C6  UNL     1      21.526  -0.227  53.157  1.00  0.00     0.040 A 
HETATM    4  C7  UNL     1      20.122  -0.631  53.356  1.00  0.00     0.096 C 
HETATM    5  N1  UNL     1      18.999  -0.977  53.517  1.00  0.00    -0.192 NA
HETATM    6  C8  UNL     1      22.377  -1.022  53.772  1.00  0.00     0.134 A 
HETATM    7  N2  UNL     1      23.686  -0.537  53.508  1.00  0.00    -0.267 NA
HETATM    8  C9  UNL     1      23.924   0.523  52.767  1.00  0.00     0.028 A 
ENDROOT
BRANCH   1   9
HETATM    9  C3  UNL     1      23.128   2.875  52.308  1.00  0.00     0.066 C 
BRANCH   9  10
HETATM   10  C2  UNL     1      22.623   3.609  51.120  1.00  0.00    -0.004 C 
HETATM   11  C1  UNL     1      22.894   3.719  49.837  1.00  0.00     0.037 C 
BRANCH  10  12
HETATM   12  N4  UNL     1      21.509   4.421  51.558  1.00  0.00    -0.391 N 
HETATM   13  H16 UNL     1      21.865   4.870  52.432  1.00  0.00     0.159 HD
BRANCH  12  14
HETATM   14  C15 UNL     1      20.242   4.502  50.851  1.00  0.00     0.156 C 
BRANCH  14  15
HETATM   15  C16 UNL     1      19.157   3.797  51.584  1.00  0.00     0.410 C 
HETATM   16  O1  UNL     1      18.232   3.083  51.908  1.00  0.00    -0.428 OA
ENDBRANCH  14  15
ENDBRANCH  12  14
ENDBRANCH  10  12
ENDBRANCH   9  10
ENDBRANCH   1   9
BRANCH   8  17
HETATM   17  C10 UNL     1      25.353   0.818  52.700  1.00  0.00     0.081 C 
BRANCH  17  18
HETATM   18  C11 UNL     1      26.177  -0.427  52.659  1.00  0.00     0.004 C 
BRANCH  18  19
HETATM   19  C12 UNL     1      26.805  -1.605  52.496  1.00  0.00     0.077 C 
BRANCH  19  20
HETATM   20  N3  UNL     1      27.600  -2.666  52.973  1.00  0.00    -0.408 N 
HETATM   21  H12 UNL     1      27.079  -2.932  53.845  1.00  0.00     0.155 HD
HETATM   22  H13 UNL     1      28.305  -2.631  52.193  1.00  0.00     0.155 HD
ENDBRANCH  19  20
ENDBRANCH  18  19
ENDBRANCH  17  18
BRANCH  17  23
HETATM   23  C13 UNL     1      25.668   1.715  51.565  1.00  0.00    -0.005 C 
HETATM   24  C14 UNL     1      26.632   2.547  51.160  1.00  0.00     0.053 C 
HETATM   25 BR1  UNL     1      26.738   3.596  49.580  1.00  0.00    -0.064 Br
ENDBRANCH  17  23
ENDBRANCH   8  17
TORSDOF 10
ENDMDL
MODEL 7
REMARK VINA RESULT:      -5.7      4.098      7.065
REMARK  10 active torsions:
REMARK  status: ('A' for Active; 'I' for Inactive)
REMARK    1  A    between atoms: C2_2  and  C3_3 
REMARK    2  A    between atoms: C2_2  and  N4_19 
REMARK    3  A    between atoms: C3_3  and  C4_4 
REMARK    4  A    between atoms: C9_11  and  C10_12 
REMARK    5  A    between atoms: C10_12  and  C11_13 
REMARK    6  A    between atoms: C10_12  and  C13_16 
REMARK    7  A    between atoms: C11_13  and  C12_14 
REMARK    8  A    between atoms: C12_14  and  N3_15 
REMARK    9  A    between atoms: N4_19  and  C15_20 
REMARK   10  A    between atoms: C15_20  and  C16_21 
ROOT
HETATM    1  C4  UNL     1      24.212   2.531  51.128  1.00  0.00     0.045 A 
HETATM    2  C5  UNL     1      23.837   3.061  49.782  1.00  0.00     0.062 A 
HETATM    3  C6  UNL     1      22.642   2.367  49.273  1.00  0.00     0.040 A 
HETATM    4  C7  UNL     1      22.301   2.896  47.940  1.00  0.00     0.096 C 
HETATM    5  N1  UNL     1      22.019   3.303  46.862  1.00  0.00    -0.192 NA
HETATM    6  C8  UNL     1      21.816   1.422  49.672  1.00  0.00     0.134 A 
HETATM    7  N2  UNL     1      22.244   0.992  50.958  1.00  0.00    -0.267 NA
HETATM    8  C9  UNL     1      23.293   1.495  51.571  1.00  0.00     0.028 A 
ENDROOT
BRANCH   1   9
HETATM    9  C3  UNL     1      24.479   3.666  52.074  1.00  0.00     0.066 C 
BRANCH   9  10
HETATM   10  C2  UNL     1      23.292   4.556  52.126  1.00  0.00    -0.004 C 
HETATM   11  C1  UNL     1      21.993   4.462  52.309  1.00  0.00     0.037 C 
BRANCH  10  12
HETATM   12  N4  UNL     1      23.759   5.908  51.908  1.00  0.00    -0.391 N 
HETATM   13  H16 UNL     1      24.521   6.018  52.615  1.00  0.00     0.159 HD
BRANCH  12  14
HETATM   14  C15 UNL     1      23.207   6.801  50.903  1.00  0.00     0.156 C 
BRANCH  14  15
HETATM   15  C16 UNL     1      24.200   7.819  50.467  1.00  0.00     0.410 C 
HETATM   16  O1  UNL     1      25.179   8.523  50.338  1.00  0.00    -0.428 OA
ENDBRANCH  14  15
ENDBRANCH  12  14
ENDBRANCH  10  12
ENDBRANCH   9  10
ENDBRANCH   1   9
BRANCH   8  17
HETATM   17  C10 UNL     1      23.474   0.899  52.892  1.00  0.00     0.081 C 
BRANCH  17  18
HETATM   18  C11 UNL     1      22.206   0.310  53.417  1.00  0.00     0.004 C 
BRANCH  18  19
HETATM   19  C12 UNL     1      21.168  -0.315  54.001  1.00  0.00     0.077 C 
BRANCH  19  20
HETATM   20  N3  UNL     1      20.536  -1.469  54.505  1.00  0.00    -0.408 N 
HETATM   21  H12 UNL     1      20.568  -1.282  55.537  1.00  0.00     0.155 HD
HETATM   22  H13 UNL     1      20.363  -1.915  53.568  1.00  0.00     0.155 HD
ENDBRANCH  19  20
ENDBRANCH  18  19
ENDBRANCH  17  18
BRANCH  17  23
HETATM   23  C13 UNL     1      24.574  -0.093  52.892  1.00  0.00    -0.005 C 
HETATM   24  C14 UNL     1      25.897  -0.148  52.709  1.00  0.00     0.053 C 
HETATM   25 BR1  UNL     1      27.065  -1.644  52.779  1.00  0.00    -0.064 Br
ENDBRANCH  17  23
ENDBRANCH   8  17
TORSDOF 10
ENDMDL
MODEL 8
REMARK VINA RESULT:      -5.7      3.722      6.094
REMARK  10 active torsions:
REMARK  status: ('A' for Active; 'I' for Inactive)
REMARK    1  A    between atoms: C2_2  and  C3_3 
REMARK    2  A    between atoms: C2_2  and  N4_19 
REMARK    3  A    between atoms: C3_3  and  C4_4 
REMARK    4  A    between atoms: C9_11  and  C10_12 
REMARK    5  A    between atoms: C10_12  and  C11_13 
REMARK    6  A    between atoms: C10_12  and  C13_16 
REMARK    7  A    between atoms: C11_13  and  C12_14 
REMARK    8  A    between atoms: C12_14  and  N3_15 
REMARK    9  A    between atoms: N4_19  and  C15_20 
REMARK   10  A    between atoms: C15_20  and  C16_21 
ROOT
HETATM    1  C4  UNL     1      21.821   1.032  50.995  1.00  0.00     0.045 A 
HETATM    2  C5  UNL     1      20.503   0.414  51.337  1.00  0.00     0.062 A 
HETATM    3  C6  UNL     1      20.500  -0.047  52.734  1.00  0.00     0.040 A 
HETATM    4  C7  UNL     1      19.197  -0.664  53.042  1.00  0.00     0.096 C 
HETATM    5  N1  UNL     1      18.158  -1.172  53.304  1.00  0.00    -0.192 NA
HETATM    6  C8  UNL     1      21.325  -0.062  53.760  1.00  0.00     0.134 A 
HETATM    7  N2  UNL     1      22.539   0.552  53.346  1.00  0.00    -0.267 NA
HETATM    8  C9  UNL     1      22.727   1.023  52.132  1.00  0.00     0.028 A 
ENDROOT
BRANCH   1   9
HETATM    9  C3  UNL     1      21.611   2.342  50.291  1.00  0.00     0.066 C 
BRANCH   9  10
HETATM   10  C2  UNL     1      22.240   2.287  48.947  1.00  0.00    -0.004 C 
HETATM   11  C1  UNL     1      22.084   1.647  47.808  1.00  0.00     0.037 C 
BRANCH  10  12
HETATM   12  N4  UNL     1      23.334   3.233  48.946  1.00  0.00    -0.391 N 
HETATM   13  H16 UNL     1      24.158   2.650  49.217  1.00  0.00     0.159 HD
BRANCH  12  14
HETATM   14  C15 UNL     1      23.182   4.642  48.625  1.00  0.00     0.156 C 
BRANCH  14  15
HETATM   15  C16 UNL     1      23.528   5.510  49.782  1.00  0.00     0.410 C 
HETATM   16  O1  UNL     1      23.520   6.322  50.683  1.00  0.00    -0.428 OA
ENDBRANCH  14  15
ENDBRANCH  12  14
ENDBRANCH  10  12
ENDBRANCH   9  10
ENDBRANCH   1   9
BRANCH   8  17
HETATM   17  C10 UNL     1      24.046   1.636  51.997  1.00  0.00     0.081 C 
BRANCH  17  18
HETATM   18  C11 UNL     1      24.100   2.987  52.631  1.00  0.00     0.004 C 
BRANCH  18  19
HETATM   19  C12 UNL     1      24.192   4.118  53.353  1.00  0.00     0.077 C 
BRANCH  19  20
HETATM   20  N3  UNL     1      23.854   5.462  53.605  1.00  0.00    -0.408 N 
HETATM   21  H12 UNL     1      22.806   5.410  53.605  1.00  0.00     0.155 HD
HETATM   22  H13 UNL     1      24.844   5.813  53.661  1.00  0.00     0.155 HD
ENDBRANCH  19  20
ENDBRANCH  18  19
ENDBRANCH  17  18
BRANCH  17  23
HETATM   23  C13 UNL     1      25.111   0.749  52.518  1.00  0.00    -0.005 C 
HETATM   24  C14 UNL     1      26.225   0.140  52.102  1.00  0.00     0.053 C 
HETATM   25 BR1  UNL     1      27.421  -0.981  53.063  1.00  0.00    -0.064 Br
ENDBRANCH  17  23
ENDBRANCH   8  17
TORSDOF 10
ENDMDL
MODEL 9
REMARK VINA RESULT:      -5.7      2.730      4.851
REMARK  10 active torsions:
REMARK  status: ('A' for Active; 'I' for Inactive)
REMARK    1  A    between atoms: C2_2  and  C3_3 
REMARK    2  A    between atoms: C2_2  and  N4_19 
REMARK    3  A    between atoms: C3_3  and  C4_4 
REMARK    4  A    between atoms: C9_11  and  C10_12 
REMARK    5  A    between atoms: C10_12  and  C11_13 
REMARK    6  A    between atoms: C10_12  and  C13_16 
REMARK    7  A    between atoms: C11_13  and  C12_14 
REMARK    8  A    between atoms: C12_14  and  N3_15 
REMARK    9  A    between atoms: N4_19  and  C15_20 
REMARK   10  A    between atoms: C15_20  and  C16_21 
ROOT
HETATM    1  C4  UNL     1      25.479   2.959  50.872  1.00  0.00     0.045 A 
HETATM    2  C5  UNL     1      26.733   3.272  50.122  1.00  0.00     0.062 A 
HETATM    3  C6  UNL     1      26.615   4.573  49.444  1.00  0.00     0.040 A 
HETATM    4  C7  UNL     1      27.857   4.851  48.701  1.00  0.00     0.096 C 
HETATM    5  N1  UNL     1      28.846   5.086  48.089  1.00  0.00    -0.192 NA
HETATM    6  C8  UNL     1      25.722   5.533  49.320  1.00  0.00     0.134 A 
HETATM    7  N2  UNL     1      24.576   5.154  50.072  1.00  0.00    -0.267 NA
HETATM    8  C9  UNL     1      24.498   4.025  50.742  1.00  0.00     0.028 A 
ENDROOT
BRANCH   1   9
HETATM    9  C3  UNL     1      25.809   2.492  52.260  1.00  0.00     0.066 C 
BRANCH   9  10
HETATM   10  C2  UNL     1      25.445   1.059  52.399  1.00  0.00    -0.004 C 
HETATM   11  C1  UNL     1      24.408   0.333  52.757  1.00  0.00     0.037 C 
BRANCH  10  12
HETATM   12  N4  UNL     1      26.603   0.283  52.013  1.00  0.00    -0.391 N 
HETATM   13  H16 UNL     1      26.760   0.560  51.018  1.00  0.00     0.159 HD
BRANCH  12  14
HETATM   14  C15 UNL     1      27.292  -0.636  52.903  1.00  0.00     0.156 C 
BRANCH  14  15
HETATM   15  C16 UNL     1      27.823   0.059  54.107  1.00  0.00     0.410 C 
HETATM   16  O1  UNL     1      28.029   0.828  55.022  1.00  0.00    -0.428 OA
ENDBRANCH  14  15
ENDBRANCH  12  14
ENDBRANCH  10  12
ENDBRANCH   9  10
ENDBRANCH   1   9
BRANCH   8  17
HETATM   17  C10 UNL     1      23.228   3.915  51.455  1.00  0.00     0.081 C 
BRANCH  17  18
HETATM   18  C11 UNL     1      22.442   5.184  51.391  1.00  0.00     0.004 C 
BRANCH  18  19
HETATM   19  C12 UNL     1      21.701   6.283  51.163  1.00  0.00     0.077 C 
BRANCH  19  20
HETATM   20  N3  UNL     1      21.558   7.677  51.021  1.00  0.00    -0.408 N 
HETATM   21  H12 UNL     1      20.681   7.732  50.447  1.00  0.00     0.155 HD
HETATM   22  H13 UNL     1      22.416   7.930  51.573  1.00  0.00     0.155 HD
ENDBRANCH  19  20
ENDBRANCH  18  19
ENDBRANCH  17  18
BRANCH  17  23
HETATM   23  C13 UNL     1      22.435   2.760  50.974  1.00  0.00    -0.005 C 
HETATM   24  C14 UNL     1      21.983   2.241  49.829  1.00  0.00     0.053 C 
HETATM   25 BR1  UNL     1      20.945   0.676  49.539  1.00  0.00    -0.064 Br
ENDBRANCH  17  23
ENDBRANCH   8  17
TORSDOF 10
ENDMDL
