MODEL 1
REMARK VINA RESULT:      -7.9      0.000      0.000
REMARK  1 active torsions:
REMARK  status: ('A' for Active; 'I' for Inactive)
REMARK    1  A    between atoms: C16_19  and  O1_20 
ROOT
HETATM    1  C1  UNL     1      32.489   9.493  43.547  1.00  0.00     0.045 C 
HETATM    2  C2  UNL     1      31.911   8.534  44.578  1.00  0.00     0.156 C 
HETATM    3  N1  UNL     1      32.769   8.315  45.678  1.00  0.00    -0.369 N 
HETATM    4  C3  UNL     1      33.554   7.220  45.211  1.00  0.00     0.132 C 
HETATM    5  C4  UNL     1      33.004   5.923  44.881  1.00  0.00     0.039 A 
HETATM    6  C5  UNL     1      32.606   4.919  45.896  1.00  0.00     0.124 A 
HETATM    7  N2  UNL     1      33.632   4.048  45.578  1.00  0.00    -0.411 N 
HETATM    8  C6  UNL     1      34.394   3.232  46.337  1.00  0.00     0.117 C 
HETATM    9  C7  UNL     1      34.582   3.508  47.833  1.00  0.00     0.021 C 
HETATM   10  C8  UNL     1      35.190   4.859  47.953  1.00  0.00     0.031 C 
HETATM   11  C9  UNL     1      35.418   5.436  49.327  1.00  0.00     0.269 C 
HETATM   12  N3  UNL     1      35.685   6.889  48.957  1.00  0.00     0.083 N 
HETATM   13  C10 UNL     1      34.405   7.387  48.503  1.00  0.00     0.275 C 
HETATM   14  C11 UNL     1      34.506   8.569  47.578  1.00  0.00     0.086 C 
HETATM   15  C12 UNL     1      33.116   8.792  46.984  1.00  0.00     0.006 C 
HETATM   16  C13 UNL     1      32.409   9.409  47.911  1.00  0.00     0.003 C 
HETATM   17  C14 UNL     1      31.211  10.033  48.531  1.00  0.00     0.071 C 
HETATM   18  C15 UNL     1      29.971   9.582  48.065  1.00  0.00    -0.007 C 
HETATM   19  C16 UNL     1      28.844   8.859  48.381  1.00  0.00     0.075 C 
HETATM   20  C17 UNL     1      27.849   8.238  47.398  1.00  0.00     0.062 C 
HETATM   21  C18 UNL     1      28.187   8.490  46.100  1.00  0.00     0.022 C 
HETATM   22  C19 UNL     1      28.264  10.076  45.987  1.00  0.00     0.105 C 
HETATM   23  C20 UNL     1      29.695   9.781  46.560  1.00  0.00     0.004 C 
HETATM   24  S1  UNL     1      30.310   9.387  44.871  1.00  0.00    -0.072 SA
HETATM   25  N4  UNL     1      28.660   8.107  44.734  1.00  0.00    -0.337 N 
HETATM   26  C21 UNL     1      34.193   4.966  44.658  1.00  0.00     0.124 A 
HETATM   27  H18 UNL     1      36.034   7.398  49.776  1.00  0.00     0.315 HD
HETATM   28  H30 UNL     1      28.105   7.424  44.301  1.00  0.00     0.173 HD
ENDROOT
BRANCH  19  29
HETATM   29  O1  UNL     1      28.886   8.857  49.739  1.00  0.00    -0.360 OA
HETATM   30  H26 UNL     1      28.550   8.063  50.249  1.00  0.00     0.217 HD
ENDBRANCH  19  29
TORSDOF 1
ENDMDL
MODEL 2
REMARK VINA RESULT:      -7.4      8.679     12.476
REMARK  1 active torsions:
REMARK  status: ('A' for Active; 'I' for Inactive)
REMARK    1  A    between atoms: C16_19  and  O1_20 
ROOT
HETATM    1  C1  UNL     1      26.073   4.660  49.332  1.00  0.00     0.045 C 
HETATM    2  C2  UNL     1      24.715   4.632  50.019  1.00  0.00     0.156 C 
HETATM    3  N1  UNL     1      23.632   4.707  49.115  1.00  0.00    -0.369 N 
HETATM    4  C3  UNL     1      23.459   6.117  48.997  1.00  0.00     0.132 C 
HETATM    5  C4  UNL     1      23.102   6.977  50.104  1.00  0.00     0.039 A 
HETATM    6  C5  UNL     1      21.730   7.077  50.656  1.00  0.00     0.124 A 
HETATM    7  N2  UNL     1      21.535   8.367  50.197  1.00  0.00    -0.411 N 
HETATM    8  C6  UNL     1      20.447   8.999  49.708  1.00  0.00     0.117 C 
HETATM    9  C7  UNL     1      19.293   8.201  49.093  1.00  0.00     0.021 C 
HETATM   10  C8  UNL     1      19.855   7.424  47.958  1.00  0.00     0.031 C 
HETATM   11  C9  UNL     1      18.956   6.474  47.208  1.00  0.00     0.269 C 
HETATM   12  N3  UNL     1      20.002   5.681  46.437  1.00  0.00     0.083 N 
HETATM   13  C10 UNL     1      20.682   4.901  47.449  1.00  0.00     0.275 C 
HETATM   14  C11 UNL     1      22.074   4.484  47.062  1.00  0.00     0.086 C 
HETATM   15  C12 UNL     1      22.738   3.921  48.318  1.00  0.00     0.006 C 
HETATM   16  C13 UNL     1      22.270   2.696  48.470  1.00  0.00     0.003 C 
HETATM   17  C14 UNL     1      22.084   1.372  49.118  1.00  0.00     0.071 C 
HETATM   18  C15 UNL     1      22.292   1.328  50.501  1.00  0.00    -0.007 C 
HETATM   19  C16 UNL     1      21.685   1.187  51.728  1.00  0.00     0.075 C 
HETATM   20  C17 UNL     1      22.246   1.623  53.083  1.00  0.00     0.062 C 
HETATM   21  C18 UNL     1      23.482   2.188  52.967  1.00  0.00     0.022 C 
HETATM   22  C19 UNL     1      24.381   1.087  52.250  1.00  0.00     0.105 C 
HETATM   23  C20 UNL     1      23.698   1.732  50.993  1.00  0.00     0.004 C 
HETATM   24  S1  UNL     1      24.938   3.093  50.995  1.00  0.00    -0.072 SA
HETATM   25  N4  UNL     1      24.454   3.324  53.018  1.00  0.00    -0.337 N 
HETATM   26  C21 UNL     1      22.778   8.366  49.518  1.00  0.00     0.124 A 
HETATM   27  H18 UNL     1      19.545   5.093  45.733  1.00  0.00     0.315 HD
HETATM   28  H30 UNL     1      24.497   3.768  53.892  1.00  0.00     0.173 HD
ENDROOT
BRANCH  19  29
HETATM   29  O1  UNL     1      20.513   0.589  51.391  1.00  0.00    -0.360 OA
HETATM   30  H26 UNL     1      19.793   1.119  50.937  1.00  0.00     0.217 HD
ENDBRANCH  19  29
TORSDOF 1
ENDMDL
MODEL 3
REMARK VINA RESULT:      -7.3      2.634      6.751
REMARK  1 active torsions:
REMARK  status: ('A' for Active; 'I' for Inactive)
REMARK    1  A    between atoms: C16_19  and  O1_20 
ROOT
HETATM    1  C1  UNL     1      31.661   7.978  43.715  1.00  0.00     0.045 C 
HETATM    2  C2  UNL     1      31.722   8.315  45.198  1.00  0.00     0.156 C 
HETATM    3  N1  UNL     1      30.448   8.480  45.785  1.00  0.00    -0.369 N 
HETATM    4  C3  UNL     1      30.209   9.867  45.557  1.00  0.00     0.132 C 
HETATM    5  C4  UNL     1      31.030  10.923  46.106  1.00  0.00     0.039 A 
HETATM    6  C5  UNL     1      30.957  11.369  47.518  1.00  0.00     0.124 A 
HETATM    7  N2  UNL     1      30.404  12.597  47.203  1.00  0.00    -0.411 N 
HETATM    8  C6  UNL     1      29.481  13.359  47.826  1.00  0.00     0.117 C 
HETATM    9  C7  UNL     1      28.477  12.731  48.798  1.00  0.00     0.021 C 
HETATM   10  C8  UNL     1      27.713  11.710  48.035  1.00  0.00     0.031 C 
HETATM   11  C9  UNL     1      26.699  10.864  48.763  1.00  0.00     0.269 C 
HETATM   12  N3  UNL     1      26.466   9.781  47.719  1.00  0.00     0.083 N 
HETATM   13  C10 UNL     1      27.700   9.027  47.700  1.00  0.00     0.275 C 
HETATM   14  C11 UNL     1      27.945   8.293  46.410  1.00  0.00     0.086 C 
HETATM   15  C12 UNL     1      29.386   7.786  46.451  1.00  0.00     0.006 C 
HETATM   16  C13 UNL     1      29.382   6.711  47.216  1.00  0.00     0.003 C 
HETATM   17  C14 UNL     1      29.950   5.552  47.952  1.00  0.00     0.071 C 
HETATM   18  C15 UNL     1      31.296   5.656  48.323  1.00  0.00    -0.007 C 
HETATM   19  C16 UNL     1      32.164   5.807  49.379  1.00  0.00     0.075 C 
HETATM   20  C17 UNL     1      33.609   6.304  49.312  1.00  0.00     0.062 C 
HETATM   21  C18 UNL     1      33.994   6.591  48.035  1.00  0.00     0.022 C 
HETATM   22  C19 UNL     1      33.762   5.245  47.216  1.00  0.00     0.105 C 
HETATM   23  C20 UNL     1      32.309   5.836  47.173  1.00  0.00     0.004 C 
HETATM   24  S1  UNL     1      32.768   6.910  45.750  1.00  0.00    -0.072 SA
HETATM   25  N4  UNL     1      34.395   7.506  46.923  1.00  0.00    -0.337 N 
HETATM   26  C21 UNL     1      30.303  12.256  45.833  1.00  0.00     0.124 A 
HETATM   27  H18 UNL     1      25.661   9.206  47.986  1.00  0.00     0.315 HD
HETATM   28  H30 UNL     1      35.188   8.048  47.124  1.00  0.00     0.173 HD
ENDROOT
BRANCH  19  29
HETATM   29  O1  UNL     1      31.396   5.415  50.429  1.00  0.00    -0.360 OA
HETATM   30  H26 UNL     1      30.950   6.101  51.007  1.00  0.00     0.217 HD
ENDBRANCH  19  29
TORSDOF 1
ENDMDL
MODEL 4
REMARK VINA RESULT:      -7.3      8.700     10.818
REMARK  1 active torsions:
REMARK  status: ('A' for Active; 'I' for Inactive)
REMARK    1  A    between atoms: C16_19  and  O1_20 
ROOT
HETATM    1  C1  UNL     1      21.998   3.223  46.771  1.00  0.00     0.045 C 
HETATM    2  C2  UNL     1      21.968   3.657  48.230  1.00  0.00     0.156 C 
HETATM    3  N1  UNL     1      23.094   3.224  48.964  1.00  0.00    -0.369 N 
HETATM    4  C3  UNL     1      22.661   1.943  49.416  1.00  0.00     0.132 C 
HETATM    5  C4  UNL     1      21.525   1.743  50.289  1.00  0.00     0.039 A 
HETATM    6  C5  UNL     1      21.557   2.002  51.749  1.00  0.00     0.124 A 
HETATM    7  N2  UNL     1      21.463   0.664  52.087  1.00  0.00    -0.411 N 
HETATM    8  C6  UNL     1      22.015  -0.057  53.084  1.00  0.00     0.117 C 
HETATM    9  C7  UNL     1      23.301   0.416  53.771  1.00  0.00     0.021 C 
HETATM   10  C8  UNL     1      24.344   0.518  52.718  1.00  0.00     0.031 C 
HETATM   11  C9  UNL     1      25.707   1.044  53.091  1.00  0.00     0.269 C 
HETATM   12  N3  UNL     1      26.273   1.305  51.702  1.00  0.00     0.083 N 
HETATM   13  C10 UNL     1      25.513   2.432  51.208  1.00  0.00     0.275 C 
HETATM   14  C11 UNL     1      25.471   2.528  49.708  1.00  0.00     0.086 C 
HETATM   15  C12 UNL     1      24.424   3.583  49.356  1.00  0.00     0.006 C 
HETATM   16  C13 UNL     1      24.997   4.757  49.548  1.00  0.00     0.003 C 
HETATM   17  C14 UNL     1      25.097   6.238  49.611  1.00  0.00     0.071 C 
HETATM   18  C15 UNL     1      23.901   6.927  49.839  1.00  0.00    -0.007 C 
HETATM   19  C16 UNL     1      23.188   7.676  50.747  1.00  0.00     0.075 C 
HETATM   20  C17 UNL     1      21.676   7.909  50.753  1.00  0.00     0.062 C 
HETATM   21  C18 UNL     1      21.057   7.285  49.710  1.00  0.00     0.022 C 
HETATM   22  C19 UNL     1      21.766   7.851  48.402  1.00  0.00     0.105 C 
HETATM   23  C20 UNL     1      22.786   6.724  48.791  1.00  0.00     0.004 C 
HETATM   24  S1  UNL     1      21.732   5.460  47.967  1.00  0.00    -0.072 SA
HETATM   25  N4  UNL     1      20.161   6.257  49.096  1.00  0.00    -0.337 N 
HETATM   26  C21 UNL     1      21.543   0.265  50.731  1.00  0.00     0.124 A 
HETATM   27  H18 UNL     1      27.276   1.509  51.768  1.00  0.00     0.315 HD
HETATM   28  H30 UNL     1      19.240   6.285  49.432  1.00  0.00     0.173 HD
ENDROOT
BRANCH  19  29
HETATM   29  O1  UNL     1      24.167   8.107  51.582  1.00  0.00    -0.360 OA
HETATM   30  H26 UNL     1      24.546   9.030  51.476  1.00  0.00     0.217 HD
ENDBRANCH  19  29
TORSDOF 1
ENDMDL
MODEL 5
REMARK VINA RESULT:      -7.3      1.404      1.705
REMARK  1 active torsions:
REMARK  status: ('A' for Active; 'I' for Inactive)
REMARK    1  A    between atoms: C16_19  and  O1_20 
ROOT
HETATM    1  C1  UNL     1      32.775  11.353  45.759  1.00  0.00     0.045 C 
HETATM    2  C2  UNL     1      32.031  10.027  45.818  1.00  0.00     0.156 C 
HETATM    3  N1  UNL     1      32.646   9.080  46.667  1.00  0.00    -0.369 N 
HETATM    4  C3  UNL     1      33.553   8.444  45.769  1.00  0.00     0.132 C 
HETATM    5  C4  UNL     1      33.137   7.705  44.598  1.00  0.00     0.039 A 
HETATM    6  C5  UNL     1      32.573   6.334  44.650  1.00  0.00     0.124 A 
HETATM    7  N2  UNL     1      33.676   5.753  44.052  1.00  0.00    -0.411 N 
HETATM    8  C6  UNL     1      34.293   4.569  44.249  1.00  0.00     0.117 C 
HETATM    9  C7  UNL     1      34.151   3.827  45.582  1.00  0.00     0.021 C 
HETATM   10  C8  UNL     1      34.666   4.733  46.641  1.00  0.00     0.031 C 
HETATM   11  C9  UNL     1      34.576   4.296  48.082  1.00  0.00     0.269 C 
HETATM   12  N3  UNL     1      34.859   5.622  48.773  1.00  0.00     0.083 N 
HETATM   13  C10 UNL     1      33.685   6.425  48.507  1.00  0.00     0.275 C 
HETATM   14  C11 UNL     1      33.933   7.907  48.579  1.00  0.00     0.086 C 
HETATM   15  C12 UNL     1      32.691   8.596  48.015  1.00  0.00     0.006 C 
HETATM   16  C13 UNL     1      31.781   8.567  48.969  1.00  0.00     0.003 C 
HETATM   17  C14 UNL     1      30.456   8.785  49.605  1.00  0.00     0.071 C 
HETATM   18  C15 UNL     1      29.360   8.858  48.737  1.00  0.00    -0.007 C 
HETATM   19  C16 UNL     1      28.221   8.218  48.306  1.00  0.00     0.075 C 
HETATM   20  C17 UNL     1      27.481   8.456  46.988  1.00  0.00     0.062 C 
HETATM   21  C18 UNL     1      28.075   9.427  46.236  1.00  0.00     0.022 C 
HETATM   22  C19 UNL     1      28.111  10.717  47.168  1.00  0.00     0.105 C 
HETATM   23  C20 UNL     1      29.400   9.982  47.680  1.00  0.00     0.004 C 
HETATM   24  S1  UNL     1      30.372  10.670  46.278  1.00  0.00    -0.072 SA
HETATM   25  N4  UNL     1      28.839   9.937  45.056  1.00  0.00    -0.337 N 
HETATM   26  C21 UNL     1      34.382   6.980  44.048  1.00  0.00     0.124 A 
HETATM   27  H18 UNL     1      35.007   5.468  49.776  1.00  0.00     0.315 HD
HETATM   28  H30 UNL     1      28.415   9.737  44.194  1.00  0.00     0.173 HD
ENDROOT
BRANCH  19  29
HETATM   29  O1  UNL     1      27.976   7.363  49.333  1.00  0.00    -0.360 OA
HETATM   30  H26 UNL     1      27.238   6.689  49.257  1.00  0.00     0.217 HD
ENDBRANCH  19  29
TORSDOF 1
ENDMDL
MODEL 6
REMARK VINA RESULT:      -7.1      4.679      7.248
REMARK  1 active torsions:
REMARK  status: ('A' for Active; 'I' for Inactive)
REMARK    1  A    between atoms: C16_19  and  O1_20 
ROOT
HETATM    1  C1  UNL     1      28.613   5.482  48.208  1.00  0.00     0.045 C 
HETATM    2  C2  UNL     1      27.958   6.811  48.552  1.00  0.00     0.156 C 
HETATM    3  N1  UNL     1      28.067   7.771  47.522  1.00  0.00    -0.369 N 
HETATM    4  C3  UNL     1      29.312   8.389  47.842  1.00  0.00     0.132 C 
HETATM    5  C4  UNL     1      29.557   9.108  49.072  1.00  0.00     0.039 A 
HETATM    6  C5  UNL     1      29.060  10.481  49.333  1.00  0.00     0.124 A 
HETATM    7  N2  UNL     1      30.321  11.048  49.294  1.00  0.00    -0.411 N 
HETATM    8  C6  UNL     1      30.766  12.234  48.828  1.00  0.00     0.117 C 
HETATM    9  C7  UNL     1      29.974  12.999  47.762  1.00  0.00     0.021 C 
HETATM   10  C8  UNL     1      29.870  12.111  46.576  1.00  0.00     0.031 C 
HETATM   11  C9  UNL     1      29.065  12.573  45.387  1.00  0.00     0.269 C 
HETATM   12  N3  UNL     1      28.942  11.258  44.630  1.00  0.00     0.083 N 
HETATM   13  C10 UNL     1      28.057  10.454  45.445  1.00  0.00     0.275 C 
HETATM   14  C11 UNL     1      28.216   8.973  45.237  1.00  0.00     0.086 C 
HETATM   15  C12 UNL     1      27.426   8.278  46.345  1.00  0.00     0.006 C 
HETATM   16  C13 UNL     1      26.158   8.327  45.986  1.00  0.00     0.003 C 
HETATM   17  C14 UNL     1      24.691   8.123  46.109  1.00  0.00     0.071 C 
HETATM   18  C15 UNL     1      24.188   8.039  47.412  1.00  0.00    -0.007 C 
HETATM   19  C16 UNL     1      23.433   8.674  48.372  1.00  0.00     0.075 C 
HETATM   20  C17 UNL     1      23.463   8.415  49.879  1.00  0.00     0.062 C 
HETATM   21  C18 UNL     1      24.346   7.429  50.212  1.00  0.00     0.022 C 
HETATM   22  C19 UNL     1      23.888   6.156  49.373  1.00  0.00     0.105 C 
HETATM   23  C20 UNL     1      24.746   6.897  48.287  1.00  0.00     0.004 C 
HETATM   24  S1  UNL     1      26.289   6.181  48.991  1.00  0.00    -0.072 SA
HETATM   25  N4  UNL     1      25.597   6.897  50.832  1.00  0.00    -0.337 N 
HETATM   26  C21 UNL     1      30.918   9.819  48.923  1.00  0.00     0.124 A 
HETATM   27  H18 UNL     1      28.562  11.430  43.694  1.00  0.00     0.315 HD
HETATM   28  H30 UNL     1      25.673   7.083  51.793  1.00  0.00     0.173 HD
ENDROOT
BRANCH  19  29
HETATM   29  O1  UNL     1      22.710   9.548  47.624  1.00  0.00    -0.360 OA
HETATM   30  H26 UNL     1      21.921   9.223  47.099  1.00  0.00     0.217 HD
ENDBRANCH  19  29
TORSDOF 1
ENDMDL
MODEL 7
REMARK VINA RESULT:      -7.0      2.762      6.657
REMARK  1 active torsions:
REMARK  status: ('A' for Active; 'I' for Inactive)
REMARK    1  A    between atoms: C16_19  and  O1_20 
ROOT
HETATM    1  C1  UNL     1      31.852   5.994  50.181  1.00  0.00     0.045 C 
HETATM    2  C2  UNL     1      31.434   6.179  48.730  1.00  0.00     0.156 C 
HETATM    3  N1  UNL     1      31.321   7.535  48.350  1.00  0.00    -0.369 N 
HETATM    4  C3  UNL     1      29.967   7.815  48.697  1.00  0.00     0.132 C 
HETATM    5  C4  UNL     1      28.832   7.147  48.098  1.00  0.00     0.039 A 
HETATM    6  C5  UNL     1      28.318   7.459  46.743  1.00  0.00     0.124 A 
HETATM    7  N2  UNL     1      27.147   8.026  47.212  1.00  0.00    -0.411 N 
HETATM    8  C6  UNL     1      26.414   9.075  46.782  1.00  0.00     0.117 C 
HETATM    9  C7  UNL     1      27.055  10.178  45.933  1.00  0.00     0.021 C 
HETATM   10  C8  UNL     1      28.162  10.759  46.736  1.00  0.00     0.031 C 
HETATM   11  C9  UNL     1      29.032  11.823  46.116  1.00  0.00     0.269 C 
HETATM   12  N3  UNL     1      30.182  11.832  47.114  1.00  0.00     0.083 N 
HETATM   13  C10 UNL     1      30.854  10.568  46.902  1.00  0.00     0.275 C 
HETATM   14  C11 UNL     1      31.638  10.089  48.093  1.00  0.00     0.086 C 
HETATM   15  C12 UNL     1      32.047   8.645  47.807  1.00  0.00     0.006 C 
HETATM   16  C13 UNL     1      33.077   8.704  46.985  1.00  0.00     0.003 C 
HETATM   17  C14 UNL     1      34.157   8.190  46.103  1.00  0.00     0.071 C 
HETATM   18  C15 UNL     1      33.945   6.925  45.543  1.00  0.00    -0.007 C 
HETATM   19  C16 UNL     1      33.682   6.237  44.381  1.00  0.00     0.075 C 
HETATM   20  C17 UNL     1      33.096   4.830  44.263  1.00  0.00     0.062 C 
HETATM   21  C18 UNL     1      32.853   4.272  45.485  1.00  0.00     0.022 C 
HETATM   22  C19 UNL     1      34.253   4.300  46.243  1.00  0.00     0.105 C 
HETATM   23  C20 UNL     1      33.761   5.761  46.539  1.00  0.00     0.004 C 
HETATM   24  S1  UNL     1      32.737   5.152  47.942  1.00  0.00    -0.072 SA
HETATM   25  N4  UNL     1      31.974   3.759  46.579  1.00  0.00    -0.337 N 
HETATM   26  C21 UNL     1      27.566   7.898  48.559  1.00  0.00     0.124 A 
HETATM   27  H18 UNL     1      30.793  12.634  46.933  1.00  0.00     0.315 HD
HETATM   28  H30 UNL     1      31.372   3.037  46.297  1.00  0.00     0.173 HD
ENDROOT
BRANCH  19  29
HETATM   29  O1  UNL     1      34.068   7.133  43.435  1.00  0.00    -0.360 OA
HETATM   30  H26 UNL     1      34.976   7.059  43.016  1.00  0.00     0.217 HD
ENDBRANCH  19  29
TORSDOF 1
ENDMDL
MODEL 8
REMARK VINA RESULT:      -6.9      4.455      7.560
REMARK  1 active torsions:
REMARK  status: ('A' for Active; 'I' for Inactive)
REMARK    1  A    between atoms: C16_19  and  O1_20 
ROOT
HETATM    1  C1  UNL     1      27.739   8.508  44.364  1.00  0.00     0.045 C 
HETATM    2  C2  UNL     1      27.555   9.137  45.737  1.00  0.00     0.156 C 
HETATM    3  N1  UNL     1      27.270   8.194  46.749  1.00  0.00    -0.369 N 
HETATM    4  C3  UNL     1      25.848   8.122  46.676  1.00  0.00     0.132 C 
HETATM    5  C4  UNL     1      24.974   9.245  46.933  1.00  0.00     0.039 A 
HETATM    6  C5  UNL     1      24.658   9.744  48.293  1.00  0.00     0.124 A 
HETATM    7  N2  UNL     1      23.340   9.326  48.246  1.00  0.00    -0.411 N 
HETATM    8  C6  UNL     1      22.519   8.817  49.188  1.00  0.00     0.117 C 
HETATM    9  C7  UNL     1      23.090   8.127  50.431  1.00  0.00     0.021 C 
HETATM   10  C8  UNL     1      23.917   6.988  49.956  1.00  0.00     0.031 C 
HETATM   11  C9  UNL     1      24.678   6.167  50.966  1.00  0.00     0.269 C 
HETATM   12  N3  UNL     1      25.614   5.410  50.035  1.00  0.00     0.083 N 
HETATM   13  C10 UNL     1      26.528   6.418  49.544  1.00  0.00     0.275 C 
HETATM   14  C11 UNL     1      27.164   6.073  48.225  1.00  0.00     0.086 C 
HETATM   15  C12 UNL     1      27.869   7.333  47.726  1.00  0.00     0.006 C 
HETATM   16  C13 UNL     1      29.000   7.420  48.400  1.00  0.00     0.003 C 
HETATM   17  C14 UNL     1      30.292   8.011  48.836  1.00  0.00     0.071 C 
HETATM   18  C15 UNL     1      30.412   9.398  48.702  1.00  0.00    -0.007 C 
HETATM   19  C16 UNL     1      30.485  10.594  49.381  1.00  0.00     0.075 C 
HETATM   20  C17 UNL     1      30.190  11.985  48.817  1.00  0.00     0.062 C 
HETATM   21  C18 UNL     1      29.841  11.940  47.499  1.00  0.00     0.022 C 
HETATM   22  C19 UNL     1      31.057  11.220  46.767  1.00  0.00     0.105 C 
HETATM   23  C20 UNL     1      30.268   9.961  47.272  1.00  0.00     0.004 C 
HETATM   24  S1  UNL     1      29.139  10.064  45.822  1.00  0.00    -0.072 SA
HETATM   25  N4  UNL     1      28.889  12.073  46.353  1.00  0.00    -0.337 N 
HETATM   26  C21 UNL     1      23.533   8.698  46.991  1.00  0.00     0.124 A 
HETATM   27  H18 UNL     1      26.094   4.667  50.552  1.00  0.00     0.315 HD
HETATM   28  H30 UNL     1      28.485  12.963  46.276  1.00  0.00     0.173 HD
ENDROOT
BRANCH  19  29
HETATM   29  O1  UNL     1      30.863  10.187  50.620  1.00  0.00    -0.360 OA
HETATM   30  H26 UNL     1      31.826   9.982  50.807  1.00  0.00     0.217 HD
ENDBRANCH  19  29
TORSDOF 1
ENDMDL
MODEL 9
REMARK VINA RESULT:      -6.9     24.116     26.039
REMARK  1 active torsions:
REMARK  status: ('A' for Active; 'I' for Inactive)
REMARK    1  A    between atoms: C16_19  and  O1_20 
ROOT
HETATM    1  C1  UNL     1      43.436   1.321  72.744  1.00  0.00     0.045 C 
HETATM    2  C2  UNL     1      42.568   1.943  71.660  1.00  0.00     0.156 C 
HETATM    3  N1  UNL     1      43.310   2.417  70.555  1.00  0.00    -0.369 N 
HETATM    4  C3  UNL     1      43.614   3.747  70.968  1.00  0.00     0.132 C 
HETATM    5  C4  UNL     1      42.610   4.756  71.225  1.00  0.00     0.039 A 
HETATM    6  C5  UNL     1      41.891   5.489  70.155  1.00  0.00     0.124 A 
HETATM    7  N2  UNL     1      42.507   6.695  70.433  1.00  0.00    -0.411 N 
HETATM    8  C6  UNL     1      42.927   7.700  69.637  1.00  0.00     0.117 C 
HETATM    9  C7  UNL     1      43.244   7.446  68.159  1.00  0.00     0.021 C 
HETATM   10  C8  UNL     1      44.317   6.418  68.115  1.00  0.00     0.031 C 
HETATM   11  C9  UNL     1      44.780   5.905  66.776  1.00  0.00     0.269 C 
HETATM   12  N3  UNL     1      45.563   4.679  67.224  1.00  0.00     0.083 N 
HETATM   13  C10 UNL     1      44.552   3.758  67.696  1.00  0.00     0.275 C 
HETATM   14  C11 UNL     1      45.065   2.746  68.684  1.00  0.00     0.086 C 
HETATM   15  C12 UNL     1      43.845   2.044  69.279  1.00  0.00     0.006 C 
HETATM   16  C13 UNL     1      43.445   1.164  68.382  1.00  0.00     0.003 C 
HETATM   17  C14 UNL     1      42.585   0.108  67.788  1.00  0.00     0.071 C 
HETATM   18  C15 UNL     1      41.255   0.080  68.221  1.00  0.00    -0.007 C 
HETATM   19  C16 UNL     1      39.947   0.311  67.860  1.00  0.00     0.075 C 
HETATM   20  C17 UNL     1      38.767   0.558  68.801  1.00  0.00     0.062 C 
HETATM   21  C18 UNL     1      39.140   0.514  70.113  1.00  0.00     0.022 C 
HETATM   22  C19 UNL     1      39.803  -0.920  70.312  1.00  0.00     0.105 C 
HETATM   23  C20 UNL     1      41.034  -0.137  69.733  1.00  0.00     0.004 C 
HETATM   24  S1  UNL     1      41.412   0.539  71.403  1.00  0.00    -0.072 SA
HETATM   25  N4  UNL     1      39.399   1.109  71.460  1.00  0.00    -0.337 N 
HETATM   26  C21 UNL     1      43.347   6.099  71.405  1.00  0.00     0.124 A 
HETATM   27  H18 UNL     1      46.099   4.300  66.437  1.00  0.00     0.315 HD
HETATM   28  H30 UNL     1      38.618   1.553  71.852  1.00  0.00     0.173 HD
ENDROOT
BRANCH  19  29
HETATM   29  O1  UNL     1      40.021   0.264  66.504  1.00  0.00    -0.360 OA
HETATM   30  H26 UNL     1      39.212   0.016  65.967  1.00  0.00     0.217 HD
ENDBRANCH  19  29
TORSDOF 1
ENDMDL
