MODEL 1
REMARK VINA RESULT:      -9.7      0.000      0.000
REMARK  3 active torsions:
REMARK  status: ('A' for Active; 'I' for Inactive)
REMARK    1  A    between atoms: O1_2  and  C2_3 
REMARK    2  A    between atoms: N4_17  and  C13_18 
REMARK    3  A    between atoms: C17_22  and  C18_23 
ROOT
HETATM    1  C2  UNL     1      26.968  -0.250  53.731  1.00  0.00     0.069 A 
HETATM    2  C3  UNL     1      25.665  -0.575  54.045  1.00  0.00     0.046 A 
HETATM    3  C4  UNL     1      24.622   0.010  53.355  1.00  0.00    -0.025 A 
HETATM    4  C5  UNL     1      23.220  -0.347  53.700  1.00  0.00     0.051 C 
HETATM    5  C6  UNL     1      24.886   0.930  52.344  1.00  0.00     0.091 A 
HETATM    6  C7  UNL     1      26.233   1.228  52.063  1.00  0.00     0.007 A 
HETATM    7  C8  UNL     1      27.284   0.654  52.739  1.00  0.00     0.048 A 
HETATM    8  C9  UNL     1      26.503   2.222  50.956  1.00  0.00     0.314 C 
HETATM    9  N1  UNL     1      25.839   3.433  51.294  1.00  0.00     0.120 N 
HETATM   10  C10 UNL     1      24.509   3.621  50.854  1.00  0.00     0.420 A 
HETATM   11  C11 UNL     1      23.681   2.391  50.742  1.00  0.00     0.202 A 
HETATM   12  N2  UNL     1      22.905   2.136  49.712  1.00  0.00    -0.216 NA
HETATM   13  C12 UNL     1      22.823   3.047  48.622  1.00  0.00     0.257 A 
HETATM   14  N3  UNL     1      23.507   4.143  48.618  1.00  0.00    -0.163 NA
HETATM   15  N4  UNL     1      24.363   4.482  49.681  1.00  0.00    -0.231 N 
HETATM   16  O2  UNL     1      23.687   1.415  51.762  1.00  0.00    -0.291 OA
HETATM   17  H11 UNL     1      25.931   3.700  52.295  1.00  0.00     0.319 HD
ENDROOT
BRANCH  15  18
HETATM   18  C13 UNL     1      25.139   5.675  49.693  1.00  0.00     0.045 A 
HETATM   19  C14 UNL     1      26.215   5.872  48.949  1.00  0.00     0.027 A 
HETATM   20  C15 UNL     1      26.754   7.200  49.217  1.00  0.00    -0.001 A 
HETATM   21  C16 UNL     1      25.980   7.774  50.127  1.00  0.00    -0.011 A 
HETATM   22  C17 UNL     1      24.865   6.857  50.525  1.00  0.00     0.093 A 
BRANCH  22  23
HETATM   23  C18 UNL     1      23.562   7.487  50.202  1.00  0.00    -0.045 A 
HETATM   24  C19 UNL     1      23.540   8.497  49.263  1.00  0.00     0.008 A 
HETATM   25  C20 UNL     1      22.339   9.094  48.950  1.00  0.00     0.001 A 
HETATM   26  C21 UNL     1      21.147   8.720  49.543  1.00  0.00     0.000 A 
HETATM   27  C22 UNL     1      21.247   7.696  50.481  1.00  0.00     0.001 A 
HETATM   28  C23 UNL     1      22.416   7.039  50.856  1.00  0.00     0.008 A 
ENDBRANCH  22  23
ENDBRANCH  15  18
BRANCH   1  29
HETATM   29  O1  UNL     1      28.082  -0.803  54.386  1.00  0.00    -0.356 OA
HETATM   30  C1  UNL     1      29.349  -0.434  53.861  1.00  0.00     0.210 C 
ENDBRANCH   1  29
TORSDOF 3
ENDMDL
MODEL 2
REMARK VINA RESULT:      -8.8      2.821      6.745
REMARK  3 active torsions:
REMARK  status: ('A' for Active; 'I' for Inactive)
REMARK    1  A    between atoms: O1_2  and  C2_3 
REMARK    2  A    between atoms: N4_17  and  C13_18 
REMARK    3  A    between atoms: C17_22  and  C18_23 
ROOT
HETATM    1  C2  UNL     1      28.598   5.583  48.208  1.00  0.00     0.069 A 
HETATM    2  C3  UNL     1      28.151   6.744  47.613  1.00  0.00     0.046 A 
HETATM    3  C4  UNL     1      26.843   7.151  47.790  1.00  0.00    -0.025 A 
HETATM    4  C5  UNL     1      26.370   8.405  47.144  1.00  0.00     0.051 C 
HETATM    5  C6  UNL     1      25.977   6.389  48.568  1.00  0.00     0.091 A 
HETATM    6  C7  UNL     1      26.482   5.213  49.154  1.00  0.00     0.007 A 
HETATM    7  C8  UNL     1      27.781   4.793  48.988  1.00  0.00     0.048 A 
HETATM    8  C9  UNL     1      25.531   4.401  50.004  1.00  0.00     0.314 C 
HETATM    9  N1  UNL     1      24.418   4.053  49.191  1.00  0.00     0.120 N 
HETATM   10  C10 UNL     1      23.308   4.926  49.152  1.00  0.00     0.420 A 
HETATM   11  C11 UNL     1      23.612   6.373  49.317  1.00  0.00     0.202 A 
HETATM   12  N2  UNL     1      22.918   7.170  50.100  1.00  0.00    -0.216 NA
HETATM   13  C12 UNL     1      21.817   6.673  50.849  1.00  0.00     0.257 A 
HETATM   14  N3  UNL     1      21.473   5.429  50.782  1.00  0.00    -0.163 NA
HETATM   15  N4  UNL     1      22.170   4.514  49.972  1.00  0.00    -0.231 N 
HETATM   16  O2  UNL     1      24.686   6.973  48.625  1.00  0.00    -0.291 OA
HETATM   17  H11 UNL     1      24.675   3.751  48.229  1.00  0.00     0.319 HD
ENDROOT
BRANCH  15  18
HETATM   18  C13 UNL     1      21.821   3.137  49.893  1.00  0.00     0.045 A 
HETATM   19  C14 UNL     1      21.622   2.482  48.761  1.00  0.00     0.027 A 
HETATM   20  C15 UNL     1      21.282   1.095  49.056  1.00  0.00    -0.001 A 
HETATM   21  C16 UNL     1      21.285   0.949  50.372  1.00  0.00    -0.011 A 
HETATM   22  C17 UNL     1      21.631   2.242  51.045  1.00  0.00     0.093 A 
BRANCH  22  23
HETATM   23  C18 UNL     1      22.872   2.073  51.841  1.00  0.00    -0.045 A 
HETATM   24  C19 UNL     1      23.498   0.844  51.821  1.00  0.00     0.008 A 
HETATM   25  C20 UNL     1      24.651   0.669  52.555  1.00  0.00     0.001 A 
HETATM   26  C21 UNL     1      25.208   1.680  53.314  1.00  0.00     0.000 A 
HETATM   27  C22 UNL     1      24.521   2.891  53.287  1.00  0.00     0.001 A 
HETATM   28  C23 UNL     1      23.353   3.154  52.575  1.00  0.00     0.008 A 
ENDBRANCH  22  23
ENDBRANCH  15  18
BRANCH   1  29
HETATM   29  O1  UNL     1      29.913   5.103  48.076  1.00  0.00    -0.356 OA
HETATM   30  C1  UNL     1      30.927   5.934  48.621  1.00  0.00     0.210 C 
ENDBRANCH   1  29
TORSDOF 3
ENDMDL
MODEL 3
REMARK VINA RESULT:      -8.4      3.967      6.239
REMARK  3 active torsions:
REMARK  status: ('A' for Active; 'I' for Inactive)
REMARK    1  A    between atoms: O1_2  and  C2_3 
REMARK    2  A    between atoms: N4_17  and  C13_18 
REMARK    3  A    between atoms: C17_22  and  C18_23 
ROOT
HETATM    1  C2  UNL     1      26.613  -0.440  52.955  1.00  0.00     0.069 A 
HETATM    2  C3  UNL     1      27.002   0.534  52.059  1.00  0.00     0.046 A 
HETATM    3  C4  UNL     1      26.087   1.468  51.614  1.00  0.00    -0.025 A 
HETATM    4  C5  UNL     1      26.516   2.515  50.648  1.00  0.00     0.051 C 
HETATM    5  C6  UNL     1      24.772   1.424  52.069  1.00  0.00     0.091 A 
HETATM    6  C7  UNL     1      24.426   0.411  52.982  1.00  0.00     0.007 A 
HETATM    7  C8  UNL     1      25.324  -0.527  53.436  1.00  0.00     0.048 A 
HETATM    8  C9  UNL     1      22.997   0.383  53.473  1.00  0.00     0.314 C 
HETATM    9  N1  UNL     1      22.153   0.266  52.335  1.00  0.00     0.120 N 
HETATM   10  C10 UNL     1      21.695   1.446  51.707  1.00  0.00     0.420 A 
HETATM   11  C11 UNL     1      22.616   2.612  51.762  1.00  0.00     0.202 A 
HETATM   12  N2  UNL     1      22.220   3.831  52.056  1.00  0.00    -0.216 NA
HETATM   13  C12 UNL     1      20.854   4.100  52.347  1.00  0.00     0.257 A 
HETATM   14  N3  UNL     1      19.972   3.155  52.333  1.00  0.00    -0.163 NA
HETATM   15  N4  UNL     1      20.320   1.825  52.034  1.00  0.00    -0.231 N 
HETATM   16  O2  UNL     1      23.994   2.463  51.496  1.00  0.00    -0.291 OA
HETATM   17  H11 UNL     1      22.494  -0.413  51.624  1.00  0.00     0.319 HD
ENDROOT
BRANCH  15  18
HETATM   18  C13 UNL     1      19.372   0.765  52.027  1.00  0.00     0.045 A 
HETATM   19  C14 UNL     1      19.175  -0.067  53.037  1.00  0.00     0.027 A 
HETATM   20  C15 UNL     1      18.132  -1.022  52.683  1.00  0.00    -0.001 A 
HETATM   21  C16 UNL     1      17.723  -0.738  51.455  1.00  0.00    -0.011 A 
HETATM   22  C17 UNL     1      18.474   0.437  50.908  1.00  0.00     0.093 A 
BRANCH  22  23
HETATM   23  C18 UNL     1      17.526   1.536  50.602  1.00  0.00    -0.045 A 
HETATM   24  C19 UNL     1      17.763   2.310  49.485  1.00  0.00     0.008 A 
HETATM   25  C20 UNL     1      16.893   3.335  49.185  1.00  0.00     0.001 A 
HETATM   26  C21 UNL     1      15.787   3.622  49.962  1.00  0.00     0.000 A 
HETATM   27  C22 UNL     1      15.612   2.799  51.073  1.00  0.00     0.001 A 
HETATM   28  C23 UNL     1      16.440   1.744  51.448  1.00  0.00     0.008 A 
ENDBRANCH  22  23
ENDBRANCH  15  18
BRANCH   1  29
HETATM   29  O1  UNL     1      27.485  -1.424  53.454  1.00  0.00    -0.356 OA
HETATM   30  C1  UNL     1      28.860  -1.071  53.476  1.00  0.00     0.210 C 
ENDBRANCH   1  29
TORSDOF 3
ENDMDL
MODEL 4
REMARK VINA RESULT:      -8.2      4.316      6.879
REMARK  3 active torsions:
REMARK  status: ('A' for Active; 'I' for Inactive)
REMARK    1  A    between atoms: O1_2  and  C2_3 
REMARK    2  A    between atoms: N4_17  and  C13_18 
REMARK    3  A    between atoms: C17_22  and  C18_23 
ROOT
HETATM    1  C2  UNL     1      25.071   3.303  50.999  1.00  0.00     0.069 A 
HETATM    2  C3  UNL     1      24.217   4.375  51.157  1.00  0.00     0.046 A 
HETATM    3  C4  UNL     1      24.459   5.554  50.481  1.00  0.00    -0.025 A 
HETATM    4  C5  UNL     1      23.533   6.705  50.657  1.00  0.00     0.051 C 
HETATM    5  C6  UNL     1      25.565   5.661  49.642  1.00  0.00     0.091 A 
HETATM    6  C7  UNL     1      26.405   4.538  49.516  1.00  0.00     0.007 A 
HETATM    7  C8  UNL     1      26.179   3.356  50.182  1.00  0.00     0.048 A 
HETATM    8  C9  UNL     1      27.596   4.668  48.595  1.00  0.00     0.314 C 
HETATM    9  N1  UNL     1      28.379   5.762  49.055  1.00  0.00     0.120 N 
HETATM   10  C10 UNL     1      28.107   7.051  48.544  1.00  0.00     0.420 A 
HETATM   11  C11 UNL     1      26.690   7.323  48.185  1.00  0.00     0.202 A 
HETATM   12  N2  UNL     1      26.331   7.919  47.069  1.00  0.00    -0.216 NA
HETATM   13  C12 UNL     1      27.307   8.340  46.124  1.00  0.00     0.257 A 
HETATM   14  N3  UNL     1      28.567   8.145  46.337  1.00  0.00    -0.163 NA
HETATM   15  N4  UNL     1      29.028   7.509  47.504  1.00  0.00    -0.231 N 
HETATM   16  O2  UNL     1      25.637   6.946  49.045  1.00  0.00    -0.291 OA
HETATM   17  H11 UNL     1      28.489   5.798  50.089  1.00  0.00     0.319 HD
ENDROOT
BRANCH  15  18
HETATM   18  C13 UNL     1      30.408   7.269  47.754  1.00  0.00     0.045 A 
HETATM   19  C14 UNL     1      31.149   6.405  47.080  1.00  0.00     0.027 A 
HETATM   20  C15 UNL     1      32.510   6.420  47.604  1.00  0.00    -0.001 A 
HETATM   21  C16 UNL     1      32.553   7.302  48.591  1.00  0.00    -0.011 A 
HETATM   22  C17 UNL     1      31.212   7.938  48.790  1.00  0.00     0.093 A 
BRANCH  22  23
HETATM   23  C18 UNL     1      31.315   9.401  48.568  1.00  0.00    -0.045 A 
HETATM   24  C19 UNL     1      30.555  10.237  49.359  1.00  0.00     0.008 A 
HETATM   25  C20 UNL     1      30.638  11.598  49.167  1.00  0.00     0.001 A 
HETATM   26  C21 UNL     1      31.457  12.164  48.208  1.00  0.00     0.000 A 
HETATM   27  C22 UNL     1      32.194  11.260  47.448  1.00  0.00     0.001 A 
HETATM   28  C23 UNL     1      32.171   9.873  47.575  1.00  0.00     0.008 A 
ENDBRANCH  22  23
ENDBRANCH  15  18
BRANCH   1  29
HETATM   29  O1  UNL     1      24.892   2.070  51.652  1.00  0.00    -0.356 OA
HETATM   30  C1  UNL     1      23.809   2.012  52.568  1.00  0.00     0.210 C 
ENDBRANCH   1  29
TORSDOF 3
ENDMDL
MODEL 5
REMARK VINA RESULT:      -7.9      3.376      7.725
REMARK  3 active torsions:
REMARK  status: ('A' for Active; 'I' for Inactive)
REMARK    1  A    between atoms: O1_2  and  C2_3 
REMARK    2  A    between atoms: N4_17  and  C13_18 
REMARK    3  A    between atoms: C17_22  and  C18_23 
ROOT
HETATM    1  C2  UNL     1      21.438   3.649  46.267  1.00  0.00     0.069 A 
HETATM    2  C3  UNL     1      20.230   3.744  46.928  1.00  0.00     0.046 A 
HETATM    3  C4  UNL     1      20.200   3.792  48.307  1.00  0.00    -0.025 A 
HETATM    4  C5  UNL     1      18.893   3.895  49.011  1.00  0.00     0.051 C 
HETATM    5  C6  UNL     1      21.389   3.744  49.031  1.00  0.00     0.091 A 
HETATM    6  C7  UNL     1      22.594   3.647  48.309  1.00  0.00     0.007 A 
HETATM    7  C8  UNL     1      22.642   3.598  46.936  1.00  0.00     0.048 A 
HETATM    8  C9  UNL     1      23.875   3.605  49.110  1.00  0.00     0.314 C 
HETATM    9  N1  UNL     1      23.794   2.495  49.994  1.00  0.00     0.120 N 
HETATM   10  C10 UNL     1      23.243   2.693  51.280  1.00  0.00     0.420 A 
HETATM   11  C11 UNL     1      22.182   3.731  51.381  1.00  0.00     0.202 A 
HETATM   12  N2  UNL     1      22.141   4.627  52.342  1.00  0.00    -0.216 NA
HETATM   13  C12 UNL     1      23.137   4.651  53.356  1.00  0.00     0.257 A 
HETATM   14  N3  UNL     1      24.106   3.797  53.357  1.00  0.00    -0.163 NA
HETATM   15  N4  UNL     1      24.222   2.811  52.360  1.00  0.00    -0.231 N 
HETATM   16  O2  UNL     1      21.145   3.805  50.427  1.00  0.00    -0.291 OA
HETATM   17  H11 UNL     1      23.399   1.636  49.559  1.00  0.00     0.319 HD
ENDROOT
BRANCH  15  18
HETATM   18  C13 UNL     1      25.288   1.869  52.330  1.00  0.00     0.045 A 
HETATM   19  C14 UNL     1      26.568   2.188  52.428  1.00  0.00     0.027 A 
HETATM   20  C15 UNL     1      27.377   0.976  52.360  1.00  0.00    -0.001 A 
HETATM   21  C16 UNL     1      26.553  -0.052  52.220  1.00  0.00    -0.011 A 
HETATM   22  C17 UNL     1      25.130   0.413  52.187  1.00  0.00     0.093 A 
BRANCH  22  23
HETATM   23  C18 UNL     1      24.382  -0.188  53.319  1.00  0.00    -0.045 A 
HETATM   24  C19 UNL     1      23.011  -0.291  53.214  1.00  0.00     0.008 A 
HETATM   25  C20 UNL     1      22.300  -0.846  54.255  1.00  0.00     0.001 A 
HETATM   26  C21 UNL     1      22.909  -1.308  55.407  1.00  0.00     0.000 A 
HETATM   27  C22 UNL     1      24.294  -1.171  55.442  1.00  0.00     0.001 A 
HETATM   28  C23 UNL     1      25.089  -0.623  54.438  1.00  0.00     0.008 A 
ENDBRANCH  22  23
ENDBRANCH  15  18
BRANCH   1  29
HETATM   29  O1  UNL     1      21.550   3.596  44.867  1.00  0.00    -0.356 OA
HETATM   30  C1  UNL     1      20.415   4.045  44.142  1.00  0.00     0.210 C 
ENDBRANCH   1  29
TORSDOF 3
ENDMDL
MODEL 6
REMARK VINA RESULT:      -7.8      3.797      7.625
REMARK  3 active torsions:
REMARK  status: ('A' for Active; 'I' for Inactive)
REMARK    1  A    between atoms: O1_2  and  C2_3 
REMARK    2  A    between atoms: N4_17  and  C13_18 
REMARK    3  A    between atoms: C17_22  and  C18_23 
ROOT
HETATM    1  C2  UNL     1      29.214   9.596  48.796  1.00  0.00     0.069 A 
HETATM    2  C3  UNL     1      29.056   9.383  47.442  1.00  0.00     0.046 A 
HETATM    3  C4  UNL     1      27.928   8.739  46.972  1.00  0.00    -0.025 A 
HETATM    4  C5  UNL     1      27.766   8.513  45.510  1.00  0.00     0.051 C 
HETATM    5  C6  UNL     1      26.952   8.306  47.865  1.00  0.00     0.091 A 
HETATM    6  C7  UNL     1      27.161   8.548  49.236  1.00  0.00     0.007 A 
HETATM    7  C8  UNL     1      28.278   9.188  49.721  1.00  0.00     0.048 A 
HETATM    8  C9  UNL     1      26.088   8.079  50.191  1.00  0.00     0.314 C 
HETATM    9  N1  UNL     1      25.927   6.679  50.004  1.00  0.00     0.120 N 
HETATM   10  C10 UNL     1      24.986   6.226  49.053  1.00  0.00     0.420 A 
HETATM   11  C11 UNL     1      24.782   7.104  47.870  1.00  0.00     0.202 A 
HETATM   12  N2  UNL     1      23.595   7.405  47.392  1.00  0.00    -0.216 NA
HETATM   13  C12 UNL     1      22.416   6.894  48.003  1.00  0.00     0.257 A 
HETATM   14  N3  UNL     1      22.483   6.126  49.040  1.00  0.00    -0.163 NA
HETATM   15  N4  UNL     1      23.716   5.765  49.612  1.00  0.00    -0.231 N 
HETATM   16  O2  UNL     1      25.880   7.671  47.188  1.00  0.00    -0.291 OA
HETATM   17  H11 UNL     1      26.824   6.161  49.902  1.00  0.00     0.319 HD
ENDROOT
BRANCH  15  18
HETATM   18  C13 UNL     1      23.816   4.934  50.763  1.00  0.00     0.045 A 
HETATM   19  C14 UNL     1      23.561   5.336  51.997  1.00  0.00     0.027 A 
HETATM   20  C15 UNL     1      23.764   4.226  52.921  1.00  0.00    -0.001 A 
HETATM   21  C16 UNL     1      24.142   3.173  52.211  1.00  0.00    -0.011 A 
HETATM   22  C17 UNL     1      24.213   3.517  50.755  1.00  0.00     0.093 A 
BRANCH  22  23
HETATM   23  C18 UNL     1      23.264   2.668  49.995  1.00  0.00    -0.045 A 
HETATM   24  C19 UNL     1      22.455   1.801  50.699  1.00  0.00     0.008 A 
HETATM   25  C20 UNL     1      21.568   1.004  50.010  1.00  0.00     0.001 A 
HETATM   26  C21 UNL     1      21.455   1.038  48.633  1.00  0.00     0.000 A 
HETATM   27  C22 UNL     1      22.303   1.935  47.989  1.00  0.00     0.001 A 
HETATM   28  C23 UNL     1      23.226   2.776  48.606  1.00  0.00     0.008 A 
ENDBRANCH  22  23
ENDBRANCH  15  18
BRANCH   1  29
HETATM   29  O1  UNL     1      30.332  10.244  49.351  1.00  0.00    -0.356 OA
HETATM   30  C1  UNL     1      30.738  11.437  48.697  1.00  0.00     0.210 C 
ENDBRANCH   1  29
TORSDOF 3
ENDMDL
MODEL 7
REMARK VINA RESULT:      -7.7      5.427      8.554
REMARK  3 active torsions:
REMARK  status: ('A' for Active; 'I' for Inactive)
REMARK    1  A    between atoms: O1_2  and  C2_3 
REMARK    2  A    between atoms: N4_17  and  C13_18 
REMARK    3  A    between atoms: C17_22  and  C18_23 
ROOT
HETATM    1  C2  UNL     1      25.085   6.861  48.599  1.00  0.00     0.069 A 
HETATM    2  C3  UNL     1      25.295   5.538  48.926  1.00  0.00     0.046 A 
HETATM    3  C4  UNL     1      26.578   5.025  48.939  1.00  0.00    -0.025 A 
HETATM    4  C5  UNL     1      26.795   3.597  49.294  1.00  0.00     0.051 C 
HETATM    5  C6  UNL     1      27.657   5.845  48.620  1.00  0.00     0.091 A 
HETATM    6  C7  UNL     1      27.388   7.187  48.293  1.00  0.00     0.007 A 
HETATM    7  C8  UNL     1      26.118   7.714  48.275  1.00  0.00     0.048 A 
HETATM    8  C9  UNL     1      28.572   8.066  47.957  1.00  0.00     0.314 C 
HETATM    9  N1  UNL     1      29.256   7.468  46.864  1.00  0.00     0.120 N 
HETATM   10  C10 UNL     1      30.286   6.540  47.135  1.00  0.00     0.420 A 
HETATM   11  C11 UNL     1      30.122   5.727  48.369  1.00  0.00     0.202 A 
HETATM   12  N2  UNL     1      31.096   5.512  49.226  1.00  0.00    -0.216 NA
HETATM   13  C12 UNL     1      32.389   6.065  49.009  1.00  0.00     0.257 A 
HETATM   14  N3  UNL     1      32.635   6.792  47.969  1.00  0.00    -0.163 NA
HETATM   15  N4  UNL     1      31.643   7.072  47.012  1.00  0.00    -0.231 N 
HETATM   16  O2  UNL     1      28.882   5.133  48.689  1.00  0.00    -0.291 OA
HETATM   17  H11 UNL     1      28.626   7.102  46.120  1.00  0.00     0.319 HD
ENDROOT
BRANCH  15  18
HETATM   18  C13 UNL     1      31.885   7.881  45.868  1.00  0.00     0.045 A 
HETATM   19  C14 UNL     1      31.700   7.484  44.619  1.00  0.00     0.027 A 
HETATM   20  C15 UNL     1      32.047   8.568  43.708  1.00  0.00    -0.001 A 
HETATM   21  C16 UNL     1      32.437   9.601  44.439  1.00  0.00    -0.011 A 
HETATM   22  C17 UNL     1      32.373   9.269  45.898  1.00  0.00     0.093 A 
BRANCH  22  23
HETATM   23  C18 UNL     1      31.426  10.187  46.578  1.00  0.00    -0.045 A 
HETATM   24  C19 UNL     1      31.637  10.473  47.910  1.00  0.00     0.008 A 
HETATM   25  C20 UNL     1      30.768  11.323  48.558  1.00  0.00     0.001 A 
HETATM   26  C21 UNL     1      29.687  11.904  47.923  1.00  0.00     0.000 A 
HETATM   27  C22 UNL     1      29.537  11.569  46.579  1.00  0.00     0.001 A 
HETATM   28  C23 UNL     1      30.366  10.722  45.849  1.00  0.00     0.008 A 
ENDBRANCH  22  23
ENDBRANCH  15  18
BRANCH   1  29
HETATM   29  O1  UNL     1      23.811   7.456  48.564  1.00  0.00    -0.356 OA
HETATM   30  C1  UNL     1      23.781   8.856  48.797  1.00  0.00     0.210 C 
ENDBRANCH   1  29
TORSDOF 3
ENDMDL
MODEL 8
REMARK VINA RESULT:      -7.6      9.556     12.792
REMARK  3 active torsions:
REMARK  status: ('A' for Active; 'I' for Inactive)
REMARK    1  A    between atoms: O1_2  and  C2_3 
REMARK    2  A    between atoms: N4_17  and  C13_18 
REMARK    3  A    between atoms: C17_22  and  C18_23 
ROOT
HETATM    1  C2  UNL     1      35.085   5.686  41.016  1.00  0.00     0.069 A 
HETATM    2  C3  UNL     1      35.476   6.989  40.790  1.00  0.00     0.046 A 
HETATM    3  C4  UNL     1      35.383   7.923  41.803  1.00  0.00    -0.025 A 
HETATM    4  C5  UNL     1      35.808   9.327  41.550  1.00  0.00     0.051 C 
HETATM    5  C6  UNL     1      34.893   7.549  43.051  1.00  0.00     0.091 A 
HETATM    6  C7  UNL     1      34.508   6.207  43.230  1.00  0.00     0.007 A 
HETATM    7  C8  UNL     1      34.594   5.264  42.233  1.00  0.00     0.048 A 
HETATM    8  C9  UNL     1      33.986   5.816  44.594  1.00  0.00     0.314 C 
HETATM    9  N1  UNL     1      32.868   6.644  44.881  1.00  0.00     0.120 N 
HETATM   10  C10 UNL     1      33.087   7.871  45.548  1.00  0.00     0.420 A 
HETATM   11  C11 UNL     1      34.384   8.542  45.267  1.00  0.00     0.202 A 
HETATM   12  N2  UNL     1      35.141   9.067  46.204  1.00  0.00    -0.216 NA
HETATM   13  C12 UNL     1      34.747   9.015  47.570  1.00  0.00     0.257 A 
HETATM   14  N3  UNL     1      33.640   8.449  47.922  1.00  0.00    -0.163 NA
HETATM   15  N4  UNL     1      32.780   7.859  46.978  1.00  0.00    -0.231 N 
HETATM   16  O2  UNL     1      34.876   8.648  43.948  1.00  0.00    -0.291 OA
HETATM   17  H11 UNL     1      32.224   6.780  44.075  1.00  0.00     0.319 HD
ENDROOT
BRANCH  15  18
HETATM   18  C13 UNL     1      31.565   7.216  47.342  1.00  0.00     0.045 A 
HETATM   19  C14 UNL     1      30.371   7.566  46.890  1.00  0.00     0.027 A 
HETATM   20  C15 UNL     1      29.357   6.694  47.470  1.00  0.00    -0.001 A 
HETATM   21  C16 UNL     1      29.973   5.832  48.266  1.00  0.00    -0.011 A 
HETATM   22  C17 UNL     1      31.450   6.077  48.266  1.00  0.00     0.093 A 
BRANCH  22  23
HETATM   23  C18 UNL     1      32.155   4.871  47.766  1.00  0.00    -0.045 A 
HETATM   24  C19 UNL     1      33.476   4.693  48.121  1.00  0.00     0.008 A 
HETATM   25  C20 UNL     1      34.147   3.579  47.666  1.00  0.00     0.001 A 
HETATM   26  C21 UNL     1      33.546   2.627  46.865  1.00  0.00     0.000 A 
HETATM   27  C22 UNL     1      32.213   2.872  46.548  1.00  0.00     0.001 A 
HETATM   28  C23 UNL     1      31.461   3.969  46.963  1.00  0.00     0.008 A 
ENDBRANCH  22  23
ENDBRANCH  15  18
BRANCH   1  29
HETATM   29  O1  UNL     1      35.150   4.679  40.037  1.00  0.00    -0.356 OA
HETATM   30  C1  UNL     1      34.289   3.568  40.241  1.00  0.00     0.210 C 
ENDBRANCH   1  29
TORSDOF 3
ENDMDL
MODEL 9
REMARK VINA RESULT:      -7.6      3.798      6.573
REMARK  3 active torsions:
REMARK  status: ('A' for Active; 'I' for Inactive)
REMARK    1  A    between atoms: O1_2  and  C2_3 
REMARK    2  A    between atoms: N4_17  and  C13_18 
REMARK    3  A    between atoms: C17_22  and  C18_23 
ROOT
HETATM    1  C2  UNL     1      28.773   5.592  48.200  1.00  0.00     0.069 A 
HETATM    2  C3  UNL     1      28.355   6.811  47.709  1.00  0.00     0.046 A 
HETATM    3  C4  UNL     1      27.052   7.225  47.906  1.00  0.00    -0.025 A 
HETATM    4  C5  UNL     1      26.611   8.542  47.373  1.00  0.00     0.051 C 
HETATM    5  C6  UNL     1      26.162   6.411  48.600  1.00  0.00     0.091 A 
HETATM    6  C7  UNL     1      26.638   5.176  49.081  1.00  0.00     0.007 A 
HETATM    7  C8  UNL     1      27.932   4.749  48.893  1.00  0.00     0.048 A 
HETATM    8  C9  UNL     1      25.661   4.308  49.840  1.00  0.00     0.314 C 
HETATM    9  N1  UNL     1      24.554   4.057  48.984  1.00  0.00     0.120 N 
HETATM   10  C10 UNL     1      23.460   4.951  49.012  1.00  0.00     0.420 A 
HETATM   11  C11 UNL     1      23.786   6.370  49.314  1.00  0.00     0.202 A 
HETATM   12  N2  UNL     1      23.096   7.104  50.158  1.00  0.00    -0.216 NA
HETATM   13  C12 UNL     1      21.975   6.561  50.844  1.00  0.00     0.257 A 
HETATM   14  N3  UNL     1      21.610   5.335  50.658  1.00  0.00    -0.163 NA
HETATM   15  N4  UNL     1      22.303   4.486  49.776  1.00  0.00    -0.231 N 
HETATM   16  O2  UNL     1      24.880   7.011  48.694  1.00  0.00    -0.291 OA
HETATM   17  H11 UNL     1      24.819   3.840  48.001  1.00  0.00     0.319 HD
ENDROOT
BRANCH  15  18
HETATM   18  C13 UNL     1      21.931   3.129  49.565  1.00  0.00     0.045 A 
HETATM   19  C14 UNL     1      21.415   2.343  50.497  1.00  0.00     0.027 A 
HETATM   20  C15 UNL     1      21.157   1.025  49.931  1.00  0.00    -0.001 A 
HETATM   21  C16 UNL     1      21.527   1.050  48.659  1.00  0.00    -0.011 A 
HETATM   22  C17 UNL     1      22.061   2.401  48.293  1.00  0.00     0.093 A 
BRANCH  22  23
HETATM   23  C18 UNL     1      21.229   2.990  47.216  1.00  0.00    -0.045 A 
HETATM   24  C19 UNL     1      19.862   3.026  47.393  1.00  0.00     0.008 A 
HETATM   25  C20 UNL     1      19.073   3.570  46.403  1.00  0.00     0.001 A 
HETATM   26  C21 UNL     1      19.599   4.083  45.233  1.00  0.00     0.000 A 
HETATM   27  C22 UNL     1      20.985   4.013  45.124  1.00  0.00     0.001 A 
HETATM   28  C23 UNL     1      21.855   3.482  46.072  1.00  0.00     0.008 A 
ENDBRANCH  22  23
ENDBRANCH  15  18
BRANCH   1  29
HETATM   29  O1  UNL     1      30.081   5.102  48.040  1.00  0.00    -0.356 OA
HETATM   30  C1  UNL     1      31.117   5.955  48.504  1.00  0.00     0.210 C 
ENDBRANCH   1  29
TORSDOF 3
ENDMDL
