MODEL 1
REMARK VINA RESULT:      -6.9      0.000      0.000
REMARK  2 active torsions:
REMARK  status: ('A' for Active; 'I' for Inactive)
REMARK    1  A    between atoms: O1_2  and  C2_3 
REMARK    2  A    between atoms: C8_9  and  C10_11 
ROOT
HETATM    1  C2  UNL     1      24.494   4.951  50.073  1.00  0.00     0.078 A 
HETATM    2  C3  UNL     1      25.507   5.385  49.252  1.00  0.00     0.037 A 
HETATM    3  C4  UNL     1      26.693   4.771  49.015  1.00  0.00     0.005 A 
HETATM    4  C5  UNL     1      26.786   3.577  49.737  1.00  0.00     0.030 A 
HETATM    5  C6  UNL     1      25.815   3.064  50.589  1.00  0.00     0.040 A 
HETATM    6  C7  UNL     1      24.664   3.772  50.745  1.00  0.00     0.022 A 
HETATM    7  C8  UNL     1      23.494   3.359  51.610  1.00  0.00     0.073 C 
HETATM    8  C9  UNL     1      23.151   4.490  52.509  1.00  0.00     0.034 C 
HETATM    9  C15 UNL     1      24.091   2.232  52.396  1.00  0.00     0.112 C 
HETATM   10  N1  UNL     1      25.040   2.788  53.053  1.00  0.00    -0.257 NA
HETATM   11  C16 UNL     1      25.906   2.130  53.944  1.00  0.00     0.227 C 
HETATM   12  N2  UNL     1      26.801   1.359  53.497  1.00  0.00    -0.264 NA
HETATM   13  C17 UNL     1      27.014   1.092  52.116  1.00  0.00     0.272 C 
HETATM   14  N3  UNL     1      26.254   1.859  51.176  1.00  0.00    -0.371 N 
HETATM   15  H21 UNL     1      25.682   1.359  50.466  1.00  0.00     0.161 HD
ENDROOT
BRANCH   7  16
HETATM   16  C10 UNL     1      22.424   2.926  50.688  1.00  0.00     0.093 C 
HETATM   17  C11 UNL     1      21.119   2.876  51.033  1.00  0.00     0.073 C 
HETATM   18  C12 UNL     1      20.550   3.234  52.347  1.00  0.00     0.079 C 
HETATM   19  O2  UNL     1      20.149   2.450  50.100  1.00  0.00    -0.351 OA
HETATM   20  C13 UNL     1      20.418   1.706  48.955  1.00  0.00     0.202 C 
HETATM   21  C14 UNL     1      21.883   1.589  48.693  1.00  0.00     0.202 C 
HETATM   22  O3  UNL     1      22.640   2.535  49.375  1.00  0.00    -0.349 OA
ENDBRANCH   7  16
BRANCH   1  23
HETATM   23  O1  UNL     1      23.351   5.689  50.209  1.00  0.00    -0.355 OA
HETATM   24  C1  UNL     1      22.764   6.267  49.062  1.00  0.00     0.210 C 
ENDBRANCH   1  23
TORSDOF 2
ENDMDL
MODEL 2
REMARK VINA RESULT:      -6.7      4.033      7.129
REMARK  2 active torsions:
REMARK  status: ('A' for Active; 'I' for Inactive)
REMARK    1  A    between atoms: O1_2  and  C2_3 
REMARK    2  A    between atoms: C8_9  and  C10_11 
ROOT
HETATM    1  C2  UNL     1      24.440  -0.794  55.210  1.00  0.00     0.078 A 
HETATM    2  C3  UNL     1      23.235  -1.428  55.400  1.00  0.00     0.037 A 
HETATM    3  C4  UNL     1      22.180  -1.460  54.549  1.00  0.00     0.005 A 
HETATM    4  C5  UNL     1      22.460  -0.736  53.386  1.00  0.00     0.030 A 
HETATM    5  C6  UNL     1      23.645  -0.065  53.110  1.00  0.00     0.040 A 
HETATM    6  C7  UNL     1      24.635  -0.106  54.044  1.00  0.00     0.022 A 
HETATM    7  C8  UNL     1      25.993   0.543  53.908  1.00  0.00     0.073 C 
HETATM    8  C9  UNL     1      26.240   1.373  55.114  1.00  0.00     0.034 C 
HETATM    9  C15 UNL     1      25.784   1.417  52.709  1.00  0.00     0.112 C 
HETATM   10  N1  UNL     1      24.865   2.229  53.080  1.00  0.00    -0.257 NA
HETATM   11  C16 UNL     1      24.317   3.254  52.288  1.00  0.00     0.227 C 
HETATM   12  N2  UNL     1      23.539   2.964  51.336  1.00  0.00    -0.264 NA
HETATM   13  C17 UNL     1      23.157   1.639  50.986  1.00  0.00     0.272 C 
HETATM   14  N3  UNL     1      23.572   0.585  51.861  1.00  0.00    -0.371 N 
HETATM   15  H21 UNL     1      24.107  -0.214  51.466  1.00  0.00     0.161 HD
ENDROOT
BRANCH   7  16
HETATM   16  C10 UNL     1      26.958  -0.549  53.674  1.00  0.00     0.093 C 
HETATM   17  C11 UNL     1      28.287  -0.428  53.888  1.00  0.00     0.073 C 
HETATM   18  C12 UNL     1      28.984   0.777  54.379  1.00  0.00     0.079 C 
HETATM   19  O2  UNL     1      29.153  -1.515  53.641  1.00  0.00    -0.351 OA
HETATM   20  C13 UNL     1      28.848  -2.608  52.834  1.00  0.00     0.202 C 
HETATM   21  C14 UNL     1      27.412  -2.622  52.427  1.00  0.00     0.202 C 
HETATM   22  O3  UNL     1      26.608  -1.812  53.220  1.00  0.00    -0.349 OA
ENDBRANCH   7  16
BRANCH   1  23
HETATM   23  O1  UNL     1      25.411  -0.855  56.171  1.00  0.00    -0.355 OA
HETATM   24  C1  UNL     1      25.049  -1.170  57.498  1.00  0.00     0.210 C 
ENDBRANCH   1  23
TORSDOF 2
ENDMDL
MODEL 3
REMARK VINA RESULT:      -6.5      1.714      4.115
REMARK  2 active torsions:
REMARK  status: ('A' for Active; 'I' for Inactive)
REMARK    1  A    between atoms: O1_2  and  C2_3 
REMARK    2  A    between atoms: C8_9  and  C10_11 
ROOT
HETATM    1  C2  UNL     1      22.582   2.472  48.821  1.00  0.00     0.078 A 
HETATM    2  C3  UNL     1      21.591   1.562  48.540  1.00  0.00     0.037 A 
HETATM    3  C4  UNL     1      21.052   0.648  49.384  1.00  0.00     0.005 A 
HETATM    4  C5  UNL     1      21.644   0.731  50.648  1.00  0.00     0.030 A 
HETATM    5  C6  UNL     1      22.649   1.616  51.019  1.00  0.00     0.040 A 
HETATM    6  C7  UNL     1      23.110   2.489  50.083  1.00  0.00     0.022 A 
HETATM    7  C8  UNL     1      24.179   3.533  50.311  1.00  0.00     0.073 C 
HETATM    8  C9  UNL     1      25.213   3.386  49.257  1.00  0.00     0.034 C 
HETATM    9  C15 UNL     1      24.727   3.109  51.640  1.00  0.00     0.112 C 
HETATM   10  N1  UNL     1      25.196   1.939  51.416  1.00  0.00    -0.257 NA
HETATM   11  C16 UNL     1      25.821   1.117  52.372  1.00  0.00     0.227 C 
HETATM   12  N2  UNL     1      25.130   0.560  53.270  1.00  0.00    -0.264 NA
HETATM   13  C17 UNL     1      23.720   0.699  53.400  1.00  0.00     0.272 C 
HETATM   14  N3  UNL     1      23.032   1.401  52.360  1.00  0.00    -0.371 N 
HETATM   15  H21 UNL     1      22.432   2.211  52.612  1.00  0.00     0.161 HD
ENDROOT
BRANCH   7  16
HETATM   16  C10 UNL     1      23.488   4.838  50.353  1.00  0.00     0.093 C 
HETATM   17  C11 UNL     1      24.122   6.021  50.201  1.00  0.00     0.073 C 
HETATM   18  C12 UNL     1      25.567   6.213  49.973  1.00  0.00     0.079 C 
HETATM   19  O2  UNL     1      23.397   7.232  50.255  1.00  0.00    -0.351 OA
HETATM   20  C13 UNL     1      22.136   7.380  50.824  1.00  0.00     0.202 C 
HETATM   21  C14 UNL     1      21.524   6.067  51.184  1.00  0.00     0.202 C 
HETATM   22  O3  UNL     1      22.123   4.989  50.543  1.00  0.00    -0.349 OA
ENDBRANCH   7  16
BRANCH   1  23
HETATM   23  O1  UNL     1      23.023   3.334  47.854  1.00  0.00    -0.355 OA
HETATM   24  C1  UNL     1      22.082   3.956  47.005  1.00  0.00     0.210 C 
ENDBRANCH   1  23
TORSDOF 2
ENDMDL
MODEL 4
REMARK VINA RESULT:      -6.4      2.602      4.744
REMARK  2 active torsions:
REMARK  status: ('A' for Active; 'I' for Inactive)
REMARK    1  A    between atoms: O1_2  and  C2_3 
REMARK    2  A    between atoms: C8_9  and  C10_11 
ROOT
HETATM    1  C2  UNL     1      21.387   1.305  50.071  1.00  0.00     0.078 A 
HETATM    2  C3  UNL     1      21.449   1.101  48.713  1.00  0.00     0.037 A 
HETATM    3  C4  UNL     1      22.201   1.782  47.813  1.00  0.00     0.005 A 
HETATM    4  C5  UNL     1      22.954   2.775  48.448  1.00  0.00     0.030 A 
HETATM    5  C6  UNL     1      22.953   3.051  49.810  1.00  0.00     0.040 A 
HETATM    6  C7  UNL     1      22.156   2.297  50.614  1.00  0.00     0.022 A 
HETATM    7  C8  UNL     1      22.043   2.440  52.115  1.00  0.00     0.073 C 
HETATM    8  C9  UNL     1      20.606   2.565  52.469  1.00  0.00     0.034 C 
HETATM    9  C15 UNL     1      22.749   3.741  52.342  1.00  0.00     0.112 C 
HETATM   10  N1  UNL     1      22.041   4.589  51.695  1.00  0.00    -0.257 NA
HETATM   11  C16 UNL     1      22.306   5.968  51.603  1.00  0.00     0.227 C 
HETATM   12  N2  UNL     1      23.267   6.378  50.894  1.00  0.00    -0.264 NA
HETATM   13  C17 UNL     1      24.136   5.530  50.152  1.00  0.00     0.272 C 
HETATM   14  N3  UNL     1      23.805   4.138  50.099  1.00  0.00    -0.371 N 
HETATM   15  H21 UNL     1      24.517   3.441  50.392  1.00  0.00     0.161 HD
ENDROOT
BRANCH   7  16
HETATM   16  C10 UNL     1      22.748   1.281  52.700  1.00  0.00     0.093 C 
HETATM   17  C11 UNL     1      22.207   0.479  53.643  1.00  0.00     0.073 C 
HETATM   18  C12 UNL     1      20.861   0.612  54.234  1.00  0.00     0.079 C 
HETATM   19  O2  UNL     1      22.941  -0.611  54.159  1.00  0.00    -0.351 OA
HETATM   20  C13 UNL     1      24.324  -0.748  54.083  1.00  0.00     0.202 C 
HETATM   21  C14 UNL     1      24.942   0.281  53.196  1.00  0.00     0.202 C 
HETATM   22  O3  UNL     1      24.029   0.889  52.342  1.00  0.00    -0.349 OA
ENDBRANCH   7  16
BRANCH   1  23
HETATM   23  O1  UNL     1      20.573   0.529  50.849  1.00  0.00    -0.355 OA
HETATM   24  C1  UNL     1      19.222   0.360  50.477  1.00  0.00     0.210 C 
ENDBRANCH   1  23
TORSDOF 2
ENDMDL
MODEL 5
REMARK VINA RESULT:      -6.3      2.552      3.770
REMARK  2 active torsions:
REMARK  status: ('A' for Active; 'I' for Inactive)
REMARK    1  A    between atoms: O1_2  and  C2_3 
REMARK    2  A    between atoms: C8_9  and  C10_11 
ROOT
HETATM    1  C2  UNL     1      23.372   3.268  52.467  1.00  0.00     0.078 A 
HETATM    2  C3  UNL     1      24.652   3.171  52.957  1.00  0.00     0.037 A 
HETATM    3  C4  UNL     1      25.299   2.045  53.348  1.00  0.00     0.005 A 
HETATM    4  C5  UNL     1      24.479   0.924  53.193  1.00  0.00     0.030 A 
HETATM    5  C6  UNL     1      23.177   0.928  52.709  1.00  0.00     0.040 A 
HETATM    6  C7  UNL     1      22.635   2.122  52.346  1.00  0.00     0.022 A 
HETATM    7  C8  UNL     1      21.246   2.316  51.780  1.00  0.00     0.073 C 
HETATM    8  C9  UNL     1      20.556   3.363  52.576  1.00  0.00     0.034 C 
HETATM    9  C15 UNL     1      20.630   0.975  52.042  1.00  0.00     0.112 C 
HETATM   10  N1  UNL     1      20.652   0.874  53.318  1.00  0.00    -0.257 NA
HETATM   11  C16 UNL     1      20.177  -0.227  54.054  1.00  0.00     0.227 C 
HETATM   12  N2  UNL     1      20.829  -1.309  54.057  1.00  0.00    -0.264 NA
HETATM   13  C17 UNL     1      22.046  -1.515  53.351  1.00  0.00     0.272 C 
HETATM   14  N3  UNL     1      22.637  -0.375  52.717  1.00  0.00    -0.371 N 
HETATM   15  H21 UNL     1      22.856  -0.422  51.702  1.00  0.00     0.161 HD
ENDROOT
BRANCH   7  16
HETATM   16  C10 UNL     1      21.416   2.612  50.343  1.00  0.00     0.093 C 
HETATM   17  C11 UNL     1      20.578   3.406  49.642  1.00  0.00     0.073 C 
HETATM   18  C12 UNL     1      19.386   4.097  50.170  1.00  0.00     0.079 C 
HETATM   19  O2  UNL     1      20.801   3.643  48.268  1.00  0.00    -0.351 OA
HETATM   20  C13 UNL     1      21.587   2.847  47.440  1.00  0.00     0.202 C 
HETATM   21  C14 UNL     1      22.358   1.826  48.209  1.00  0.00     0.202 C 
HETATM   22  O3  UNL     1      22.452   2.116  49.565  1.00  0.00    -0.349 OA
ENDBRANCH   7  16
BRANCH   1  23
HETATM   23  O1  UNL     1      22.858   4.485  52.113  1.00  0.00    -0.355 OA
HETATM   24  C1  UNL     1      23.688   5.420  51.458  1.00  0.00     0.210 C 
ENDBRANCH   1  23
TORSDOF 2
ENDMDL
MODEL 6
REMARK VINA RESULT:      -6.3      2.540      3.485
REMARK  2 active torsions:
REMARK  status: ('A' for Active; 'I' for Inactive)
REMARK    1  A    between atoms: O1_2  and  C2_3 
REMARK    2  A    between atoms: C8_9  and  C10_11 
ROOT
HETATM    1  C2  UNL     1      25.792   6.428  48.983  1.00  0.00     0.078 A 
HETATM    2  C3  UNL     1      27.029   5.984  48.583  1.00  0.00     0.037 A 
HETATM    3  C4  UNL     1      27.535   4.732  48.711  1.00  0.00     0.005 A 
HETATM    4  C5  UNL     1      26.610   3.887  49.333  1.00  0.00     0.030 A 
HETATM    5  C6  UNL     1      25.342   4.249  49.770  1.00  0.00     0.040 A 
HETATM    6  C7  UNL     1      24.946   5.537  49.584  1.00  0.00     0.022 A 
HETATM    7  C8  UNL     1      23.599   6.102  49.974  1.00  0.00     0.073 C 
HETATM    8  C9  UNL     1      23.821   7.325  50.788  1.00  0.00     0.034 C 
HETATM    9  C15 UNL     1      23.053   5.001  50.830  1.00  0.00     0.112 C 
HETATM   10  N1  UNL     1      23.880   4.933  51.805  1.00  0.00    -0.257 NA
HETATM   11  C16 UNL     1      23.793   4.035  52.884  1.00  0.00     0.227 C 
HETATM   12  N2  UNL     1      24.056   2.812  52.706  1.00  0.00    -0.264 NA
HETATM   13  C17 UNL     1      24.448   2.248  51.460  1.00  0.00     0.272 C 
HETATM   14  N3  UNL     1      24.693   3.154  50.379  1.00  0.00    -0.371 N 
HETATM   15  H21 UNL     1      24.183   3.019  49.484  1.00  0.00     0.161 HD
ENDROOT
BRANCH   7  16
HETATM   16  C10 UNL     1      22.847   6.297  48.718  1.00  0.00     0.093 C 
HETATM   17  C11 UNL     1      21.842   7.190  48.583  1.00  0.00     0.073 C 
HETATM   18  C12 UNL     1      21.338   8.101  49.629  1.00  0.00     0.079 C 
HETATM   19  O2  UNL     1      21.164   7.321  47.351  1.00  0.00    -0.351 OA
HETATM   20  C13 UNL     1      21.155   6.363  46.342  1.00  0.00     0.202 C 
HETATM   21  C14 UNL     1      22.128   5.261  46.604  1.00  0.00     0.202 C 
HETATM   22  O3  UNL     1      23.092   5.594  47.549  1.00  0.00    -0.349 OA
ENDBRANCH   7  16
BRANCH   1  23
HETATM   23  O1  UNL     1      25.427   7.731  48.783  1.00  0.00    -0.355 OA
HETATM   24  C1  UNL     1      25.700   8.339  47.538  1.00  0.00     0.210 C 
ENDBRANCH   1  23
TORSDOF 2
ENDMDL
MODEL 7
REMARK VINA RESULT:      -6.3      1.487      4.085
REMARK  2 active torsions:
REMARK  status: ('A' for Active; 'I' for Inactive)
REMARK    1  A    between atoms: O1_2  and  C2_3 
REMARK    2  A    between atoms: C8_9  and  C10_11 
ROOT
HETATM    1  C2  UNL     1      22.354   1.700  50.293  1.00  0.00     0.078 A 
HETATM    2  C3  UNL     1      21.637   0.689  50.887  1.00  0.00     0.037 A 
HETATM    3  C4  UNL     1      21.806   0.185  52.135  1.00  0.00     0.005 A 
HETATM    4  C5  UNL     1      22.850   0.840  52.796  1.00  0.00     0.030 A 
HETATM    5  C6  UNL     1      23.627   1.867  52.274  1.00  0.00     0.040 A 
HETATM    6  C7  UNL     1      23.360   2.289  51.008  1.00  0.00     0.022 A 
HETATM    7  C8  UNL     1      24.084   3.403  50.287  1.00  0.00     0.073 C 
HETATM    8  C9  UNL     1      24.536   2.895  48.968  1.00  0.00     0.034 C 
HETATM    9  C15 UNL     1      25.259   3.625  51.190  1.00  0.00     0.112 C 
HETATM   10  N1  UNL     1      25.883   2.507  51.157  1.00  0.00    -0.257 NA
HETATM   11  C16 UNL     1      27.068   2.216  51.857  1.00  0.00     0.227 C 
HETATM   12  N2  UNL     1      27.034   2.047  53.108  1.00  0.00    -0.264 NA
HETATM   13  C17 UNL     1      25.853   2.128  53.897  1.00  0.00     0.272 C 
HETATM   14  N3  UNL     1      24.609   2.271  53.202  1.00  0.00    -0.371 N 
HETATM   15  H21 UNL     1      23.986   3.066  53.445  1.00  0.00     0.161 HD
ENDROOT
BRANCH   7  16
HETATM   16  C10 UNL     1      23.153   4.550  50.247  1.00  0.00     0.093 C 
HETATM   17  C11 UNL     1      23.343   5.636  49.467  1.00  0.00     0.073 C 
HETATM   18  C12 UNL     1      24.474   5.861  48.546  1.00  0.00     0.079 C 
HETATM   19  O2  UNL     1      22.412   6.697  49.481  1.00  0.00    -0.351 OA
HETATM   20  C13 UNL     1      21.490   6.934  50.496  1.00  0.00     0.202 C 
HETATM   21  C14 UNL     1      21.436   5.811  51.479  1.00  0.00     0.202 C 
HETATM   22  O3  UNL     1      21.988   4.631  50.995  1.00  0.00    -0.349 OA
ENDBRANCH   7  16
BRANCH   1  23
HETATM   23  O1  UNL     1      22.061   2.097  49.018  1.00  0.00    -0.355 OA
HETATM   24  C1  UNL     1      20.739   1.962  48.541  1.00  0.00     0.210 C 
ENDBRANCH   1  23
TORSDOF 2
ENDMDL
MODEL 8
REMARK VINA RESULT:      -6.3      2.653      5.373
REMARK  2 active torsions:
REMARK  status: ('A' for Active; 'I' for Inactive)
REMARK    1  A    between atoms: O1_2  and  C2_3 
REMARK    2  A    between atoms: C8_9  and  C10_11 
ROOT
HETATM    1  C2  UNL     1      22.381   1.776  50.812  1.00  0.00     0.078 A 
HETATM    2  C3  UNL     1      21.743   0.965  49.904  1.00  0.00     0.037 A 
HETATM    3  C4  UNL     1      21.587   1.182  48.575  1.00  0.00     0.005 A 
HETATM    4  C5  UNL     1      22.178   2.392  48.198  1.00  0.00     0.030 A 
HETATM    5  C6  UNL     1      22.840   3.272  49.045  1.00  0.00     0.040 A 
HETATM    6  C7  UNL     1      22.934   2.944  50.362  1.00  0.00     0.022 A 
HETATM    7  C8  UNL     1      23.633   3.765  51.421  1.00  0.00     0.073 C 
HETATM    8  C9  UNL     1      22.695   3.971  52.553  1.00  0.00     0.034 C 
HETATM    9  C15 UNL     1      23.860   5.055  50.693  1.00  0.00     0.112 C 
HETATM   10  N1  UNL     1      22.676   5.466  50.427  1.00  0.00    -0.257 NA
HETATM   11  C16 UNL     1      22.364   6.654  49.740  1.00  0.00     0.227 C 
HETATM   12  N2  UNL     1      22.563   6.730  48.495  1.00  0.00    -0.264 NA
HETATM   13  C17 UNL     1      23.097   5.678  47.701  1.00  0.00     0.272 C 
HETATM   14  N3  UNL     1      23.284   4.408  48.336  1.00  0.00    -0.371 N 
HETATM   15  H21 UNL     1      24.223   3.965  48.305  1.00  0.00     0.161 HD
ENDROOT
BRANCH   7  16
HETATM   16  C10 UNL     1      24.884   3.051  51.747  1.00  0.00     0.093 C 
HETATM   17  C11 UNL     1      25.991   3.094  50.974  1.00  0.00     0.073 C 
HETATM   18  C12 UNL     1      26.142   3.840  49.710  1.00  0.00     0.079 C 
HETATM   19  O2  UNL     1      27.152   2.383  51.348  1.00  0.00    -0.351 OA
HETATM   20  C13 UNL     1      27.180   1.321  52.246  1.00  0.00     0.202 C 
HETATM   21  C14 UNL     1      25.876   1.146  52.951  1.00  0.00     0.202 C 
HETATM   22  O3  UNL     1      25.059   2.269  52.879  1.00  0.00    -0.349 OA
ENDBRANCH   7  16
BRANCH   1  23
HETATM   23  O1  UNL     1      22.454   1.416  52.129  1.00  0.00    -0.355 OA
HETATM   24  C1  UNL     1      22.161   0.084  52.496  1.00  0.00     0.210 C 
ENDBRANCH   1  23
TORSDOF 2
ENDMDL
MODEL 9
REMARK VINA RESULT:      -6.2      7.285      9.738
REMARK  2 active torsions:
REMARK  status: ('A' for Active; 'I' for Inactive)
REMARK    1  A    between atoms: O1_2  and  C2_3 
REMARK    2  A    between atoms: C8_9  and  C10_11 
ROOT
HETATM    1  C2  UNL     1      32.261   7.615  45.483  1.00  0.00     0.078 A 
HETATM    2  C3  UNL     1      32.415   7.341  44.145  1.00  0.00     0.037 A 
HETATM    3  C4  UNL     1      32.748   6.154  43.582  1.00  0.00     0.005 A 
HETATM    4  C5  UNL     1      32.931   5.175  44.563  1.00  0.00     0.030 A 
HETATM    5  C6  UNL     1      32.798   5.362  45.934  1.00  0.00     0.040 A 
HETATM    6  C7  UNL     1      32.459   6.601  46.379  1.00  0.00     0.022 A 
HETATM    7  C8  UNL     1      32.250   6.983  47.827  1.00  0.00     0.073 C 
HETATM    8  C9  UNL     1      33.076   8.182  48.121  1.00  0.00     0.034 C 
HETATM    9  C15 UNL     1      32.804   5.784  48.532  1.00  0.00     0.112 C 
HETATM   10  N1  UNL     1      34.036   5.767  48.182  1.00  0.00    -0.257 NA
HETATM   11  C16 UNL     1      34.985   4.812  48.591  1.00  0.00     0.227 C 
HETATM   12  N2  UNL     1      34.938   3.639  48.123  1.00  0.00    -0.264 NA
HETATM   13  C17 UNL     1      33.971   3.188  47.183  1.00  0.00     0.272 C 
HETATM   14  N3  UNL     1      33.087   4.169  46.630  1.00  0.00    -0.371 N 
HETATM   15  H21 UNL     1      32.061   4.018  46.702  1.00  0.00     0.161 HD
ENDROOT
BRANCH   7  16
HETATM   16  C10 UNL     1      30.794   7.149  48.011  1.00  0.00     0.093 C 
HETATM   17  C11 UNL     1      30.242   8.159  48.719  1.00  0.00     0.073 C 
HETATM   18  C12 UNL     1      30.972   9.240  49.408  1.00  0.00     0.079 C 
HETATM   19  O2  UNL     1      28.840   8.254  48.855  1.00  0.00    -0.351 OA
HETATM   20  C13 UNL     1      27.948   7.205  48.655  1.00  0.00     0.202 C 
HETATM   21  C14 UNL     1      28.613   6.008  48.059  1.00  0.00     0.202 C 
HETATM   22  O3  UNL     1      29.841   6.296  47.475  1.00  0.00    -0.349 OA
ENDBRANCH   7  16
BRANCH   1  23
HETATM   23  O1  UNL     1      31.921   8.874  45.896  1.00  0.00    -0.355 OA
HETATM   24  C1  UNL     1      31.051   9.649  45.098  1.00  0.00     0.210 C 
ENDBRANCH   1  23
TORSDOF 2
ENDMDL
