MODEL 1
REMARK VINA RESULT:      -8.9      0.000      0.000
REMARK  3 active torsions:
REMARK  status: ('A' for Active; 'I' for Inactive)
REMARK    1  A    between atoms: N1_1  and  C1_2 
REMARK    2  A    between atoms: C6_8  and  N3_9 
REMARK    3  A    between atoms: N3_9  and  C7_10 
ROOT
HETATM    1  C1  UNL     1      19.119  -0.216  52.560  1.00  0.00     0.021 C 
HETATM    2  C2  UNL     1      20.113  -0.289  53.449  1.00  0.00     0.004 C 
HETATM    3  C3  UNL     1      21.282  -0.321  54.366  1.00  0.00     0.049 C 
HETATM    4  C4  UNL     1      22.294   0.635  53.781  1.00  0.00     0.124 C 
HETATM    5  N2  UNL     1      22.985   0.163  52.635  1.00  0.00    -0.383 N 
HETATM    6  C5  UNL     1      23.530   1.241  51.835  1.00  0.00     0.128 A 
HETATM    7  C6  UNL     1      24.741   1.675  52.288  1.00  0.00     0.160 A 
HETATM    8  N4  UNL     1      25.491   2.692  51.769  1.00  0.00    -0.222 NA
HETATM    9  C13 UNL     1      25.020   3.349  50.707  1.00  0.00     0.238 A 
HETATM   10  N5  UNL     1      23.832   2.938  50.239  1.00  0.00    -0.216 NA
HETATM   11  C14 UNL     1      23.063   1.954  50.708  1.00  0.00     0.197 A 
HETATM   12  O1  UNL     1      22.072   2.171  49.698  1.00  0.00    -0.329 OA
HETATM   13  C15 UNL     1      21.338   1.036  49.306  1.00  0.00     0.205 C 
HETATM   14  C16 UNL     1      20.445   0.600  50.381  1.00  0.00     0.002 C 
HETATM   15  C17 UNL     1      19.496   0.228  51.222  1.00  0.00     0.026 C 
HETATM   16  H8  UNL     1      23.393  -0.470  51.954  1.00  0.00     0.159 HD
ENDROOT
BRANCH   7  17
HETATM   17  N3  UNL     1      25.256   0.892  53.345  1.00  0.00    -0.339 N 
HETATM   18  H9  UNL     1      24.828   0.423  54.150  1.00  0.00     0.167 HD
BRANCH  17  19
HETATM   19  C7  UNL     1      26.620   0.595  53.453  1.00  0.00     0.035 A 
HETATM   20  C8  UNL     1      27.651   1.480  53.757  1.00  0.00     0.032 A 
HETATM   21  C9  UNL     1      28.986   1.156  53.839  1.00  0.00     0.046 A 
HETATM   22  C10 UNL     1      29.300  -0.163  53.595  1.00  0.00     0.138 A 
HETATM   23  F1  UNL     1      30.621  -0.450  53.684  1.00  0.00    -0.204 F 
HETATM   24  C11 UNL     1      28.302  -1.093  53.284  1.00  0.00     0.074 A 
HETATM   25 CL1  UNL     1      28.942  -2.700  53.016  1.00  0.00    -0.081 Cl
HETATM   26  C12 UNL     1      26.981  -0.711  53.215  1.00  0.00     0.056 A 
ENDBRANCH  17  19
ENDBRANCH   7  17
BRANCH   1  27
HETATM   27  N1  UNL     1      17.727  -0.514  52.312  1.00  0.00    -0.399 N 
HETATM   28  H1  UNL     1      17.487  -1.431  51.877  1.00  0.00     0.156 HD
HETATM   29  H2  UNL     1      17.014   0.205  52.580  1.00  0.00     0.156 HD
ENDBRANCH   1  27
TORSDOF 3
ENDMDL
MODEL 2
REMARK VINA RESULT:      -8.5      3.303      6.474
REMARK  3 active torsions:
REMARK  status: ('A' for Active; 'I' for Inactive)
REMARK    1  A    between atoms: N1_1  and  C1_2 
REMARK    2  A    between atoms: C6_8  and  N3_9 
REMARK    3  A    between atoms: N3_9  and  C7_10 
ROOT
HETATM    1  C1  UNL     1      27.145   7.827  48.458  1.00  0.00     0.021 C 
HETATM    2  C2  UNL     1      27.639   6.586  48.449  1.00  0.00     0.004 C 
HETATM    3  C3  UNL     1      28.103   5.175  48.495  1.00  0.00     0.049 C 
HETATM    4  C4  UNL     1      26.914   4.363  48.953  1.00  0.00     0.124 C 
HETATM    5  N2  UNL     1      26.601   4.467  50.333  1.00  0.00    -0.383 N 
HETATM    6  C5  UNL     1      25.224   4.118  50.615  1.00  0.00     0.128 A 
HETATM    7  C6  UNL     1      25.038   2.774  50.756  1.00  0.00     0.160 A 
HETATM    8  N4  UNL     1      23.856   2.132  50.995  1.00  0.00    -0.222 NA
HETATM    9  C13 UNL     1      22.748   2.867  51.110  1.00  0.00     0.238 A 
HETATM   10  N5  UNL     1      22.905   4.193  50.979  1.00  0.00    -0.216 NA
HETATM   11  C14 UNL     1      24.033   4.866  50.747  1.00  0.00     0.197 A 
HETATM   12  O1  UNL     1      23.352   6.125  50.766  1.00  0.00    -0.329 OA
HETATM   13  C15 UNL     1      24.112   7.226  51.201  1.00  0.00     0.205 C 
HETATM   14  C16 UNL     1      25.144   7.564  50.219  1.00  0.00     0.002 C 
HETATM   15  C17 UNL     1      25.994   8.046  49.329  1.00  0.00     0.026 C 
HETATM   16  H8  UNL     1      26.704   4.625  51.331  1.00  0.00     0.159 HD
ENDROOT
BRANCH   7  17
HETATM   17  N3  UNL     1      26.244   2.037  50.733  1.00  0.00    -0.339 N 
HETATM   18  H9  UNL     1      26.937   1.840  50.004  1.00  0.00     0.167 HD
BRANCH  17  19
HETATM   19  C7  UNL     1      26.740   1.389  51.871  1.00  0.00     0.035 A 
HETATM   20  C8  UNL     1      26.323   0.164  52.388  1.00  0.00     0.032 A 
HETATM   21  C9  UNL     1      26.823  -0.438  53.520  1.00  0.00     0.046 A 
HETATM   22  C10 UNL     1      27.818   0.251  54.176  1.00  0.00     0.138 A 
HETATM   23  F1  UNL     1      28.290  -0.369  55.286  1.00  0.00    -0.204 F 
HETATM   24  C11 UNL     1      28.274   1.485  53.699  1.00  0.00     0.074 A 
HETATM   25 CL1  UNL     1      29.540   2.165  54.698  1.00  0.00    -0.081 Cl
HETATM   26  C12 UNL     1      27.736   2.040  52.561  1.00  0.00     0.056 A 
ENDBRANCH  17  19
ENDBRANCH   7  17
BRANCH   1  27
HETATM   27  N1  UNL     1      27.348   9.186  48.013  1.00  0.00    -0.399 N 
HETATM   28  H1  UNL     1      26.699   9.925  48.362  1.00  0.00     0.156 HD
HETATM   29  H2  UNL     1      28.141   9.376  47.355  1.00  0.00     0.156 HD
ENDBRANCH   1  27
TORSDOF 3
ENDMDL
MODEL 3
REMARK VINA RESULT:      -8.4      3.507      5.753
REMARK  3 active torsions:
REMARK  status: ('A' for Active; 'I' for Inactive)
REMARK    1  A    between atoms: N1_1  and  C1_2 
REMARK    2  A    between atoms: C6_8  and  N3_9 
REMARK    3  A    between atoms: N3_9  and  C7_10 
ROOT
HETATM    1  C1  UNL     1      24.623  -0.870  54.941  1.00  0.00     0.021 C 
HETATM    2  C2  UNL     1      25.155  -0.092  53.994  1.00  0.00     0.004 C 
HETATM    3  C3  UNL     1      25.648   0.805  52.918  1.00  0.00     0.049 C 
HETATM    4  C4  UNL     1      24.494   1.719  52.579  1.00  0.00     0.124 C 
HETATM    5  N2  UNL     1      23.451   1.127  51.820  1.00  0.00    -0.383 N 
HETATM    6  C5  UNL     1      22.195   1.835  51.959  1.00  0.00     0.128 A 
HETATM    7  C6  UNL     1      22.094   2.902  51.115  1.00  0.00     0.160 A 
HETATM    8  N4  UNL     1      21.052   3.780  51.028  1.00  0.00    -0.222 NA
HETATM    9  C13 UNL     1      20.004   3.603  51.837  1.00  0.00     0.238 A 
HETATM   10  N5  UNL     1      20.078   2.556  52.674  1.00  0.00    -0.216 NA
HETATM   11  C14 UNL     1      21.069   1.673  52.797  1.00  0.00     0.197 A 
HETATM   12  O1  UNL     1      20.376   0.953  53.822  1.00  0.00    -0.329 OA
HETATM   13  C15 UNL     1      20.650  -0.425  53.894  1.00  0.00     0.205 C 
HETATM   14  C16 UNL     1      22.015  -0.659  54.365  1.00  0.00     0.002 C 
HETATM   15  C17 UNL     1      23.167  -0.973  54.933  1.00  0.00     0.026 C 
HETATM   16  H8  UNL     1      22.960   0.499  51.190  1.00  0.00     0.159 HD
ENDROOT
BRANCH   7  17
HETATM   17  N3  UNL     1      23.170   2.998  50.204  1.00  0.00    -0.339 N 
HETATM   18  H9  UNL     1      23.535   2.376  49.475  1.00  0.00     0.167 HD
BRANCH  17  19
HETATM   19  C7  UNL     1      24.003   4.122  50.152  1.00  0.00     0.035 A 
HETATM   20  C8  UNL     1      23.751   5.379  50.698  1.00  0.00     0.032 A 
HETATM   21  C9  UNL     1      24.587   6.469  50.615  1.00  0.00     0.046 A 
HETATM   22  C10 UNL     1      25.764   6.272  49.928  1.00  0.00     0.138 A 
HETATM   23  F1  UNL     1      26.564   7.364  49.865  1.00  0.00    -0.204 F 
HETATM   24  C11 UNL     1      26.065   5.030  49.360  1.00  0.00     0.074 A 
HETATM   25 CL1  UNL     1      27.612   5.023  48.541  1.00  0.00    -0.081 Cl
HETATM   26  C12 UNL     1      25.190   3.973  49.474  1.00  0.00     0.056 A 
ENDBRANCH  17  19
ENDBRANCH   7  17
BRANCH   1  27
HETATM   27  N1  UNL     1      24.907  -1.815  55.995  1.00  0.00    -0.399 N 
HETATM   28  H1  UNL     1      24.107  -2.306  56.450  1.00  0.00     0.156 HD
HETATM   29  H2  UNL     1      25.909  -1.971  56.261  1.00  0.00     0.156 HD
ENDBRANCH   1  27
TORSDOF 3
ENDMDL
MODEL 4
REMARK VINA RESULT:      -8.3      2.078      3.829
REMARK  3 active torsions:
REMARK  status: ('A' for Active; 'I' for Inactive)
REMARK    1  A    between atoms: N1_1  and  C1_2 
REMARK    2  A    between atoms: C6_8  and  N3_9 
REMARK    3  A    between atoms: N3_9  and  C7_10 
ROOT
HETATM    1  C1  UNL     1      20.352   2.195  48.757  1.00  0.00     0.021 C 
HETATM    2  C2  UNL     1      21.619   2.296  49.168  1.00  0.00     0.004 C 
HETATM    3  C3  UNL     1      23.001   2.353  49.712  1.00  0.00     0.049 C 
HETATM    4  C4  UNL     1      23.048   1.340  50.832  1.00  0.00     0.124 C 
HETATM    5  N2  UNL     1      22.394   1.727  52.030  1.00  0.00    -0.383 N 
HETATM    6  C5  UNL     1      22.022   0.592  52.849  1.00  0.00     0.128 A 
HETATM    7  C6  UNL     1      23.044   0.155  53.641  1.00  0.00     0.160 A 
HETATM    8  N4  UNL     1      23.017  -0.908  54.498  1.00  0.00    -0.222 NA
HETATM    9  C13 UNL     1      21.888  -1.614  54.597  1.00  0.00     0.238 A 
HETATM   10  N5  UNL     1      20.867  -1.202  53.830  1.00  0.00    -0.216 NA
HETATM   11  C14 UNL     1      20.843  -0.174  52.981  1.00  0.00     0.197 A 
HETATM   12  O1  UNL     1      19.478  -0.425  52.628  1.00  0.00    -0.329 OA
HETATM   13  C15 UNL     1      18.726   0.702  52.251  1.00  0.00     0.205 C 
HETATM   14  C16 UNL     1      19.181   1.222  50.961  1.00  0.00     0.002 C 
HETATM   15  C17 UNL     1      19.409   1.665  49.736  1.00  0.00     0.026 C 
HETATM   16  H8  UNL     1      21.991   2.309  52.758  1.00  0.00     0.159 HD
ENDROOT
BRANCH   7  17
HETATM   17  N3  UNL     1      24.186   0.986  53.590  1.00  0.00    -0.339 N 
HETATM   18  H9  UNL     1      24.325   1.999  53.656  1.00  0.00     0.167 HD
BRANCH  17  19
HETATM   19  C7  UNL     1      25.476   0.466  53.429  1.00  0.00     0.035 A 
HETATM   20  C8  UNL     1      25.831  -0.716  52.785  1.00  0.00     0.032 A 
HETATM   21  C9  UNL     1      27.111  -1.206  52.659  1.00  0.00     0.046 A 
HETATM   22  C10 UNL     1      28.104  -0.442  53.229  1.00  0.00     0.138 A 
HETATM   23  F1  UNL     1      29.353  -0.950  53.087  1.00  0.00    -0.204 F 
HETATM   24  C11 UNL     1      27.802   0.755  53.888  1.00  0.00     0.074 A 
HETATM   25 CL1  UNL     1      29.226   1.547  54.527  1.00  0.00    -0.081 Cl
HETATM   26  C12 UNL     1      26.502   1.196  53.984  1.00  0.00     0.056 A 
ENDBRANCH  17  19
ENDBRANCH   7  17
BRANCH   1  27
HETATM   27  N1  UNL     1      19.421   2.512  47.699  1.00  0.00    -0.399 N 
HETATM   28  H1  UNL     1      18.406   2.338  47.864  1.00  0.00     0.156 HD
HETATM   29  H2  UNL     1      19.804   2.905  46.807  1.00  0.00     0.156 HD
ENDBRANCH   1  27
TORSDOF 3
ENDMDL
MODEL 5
REMARK VINA RESULT:      -8.3      3.718      5.378
REMARK  3 active torsions:
REMARK  status: ('A' for Active; 'I' for Inactive)
REMARK    1  A    between atoms: N1_1  and  C1_2 
REMARK    2  A    between atoms: C6_8  and  N3_9 
REMARK    3  A    between atoms: N3_9  and  C7_10 
ROOT
HETATM    1  C1  UNL     1      20.494  -0.897  53.652  1.00  0.00     0.021 C 
HETATM    2  C2  UNL     1      20.723   0.153  52.858  1.00  0.00     0.004 C 
HETATM    3  C3  UNL     1      21.080   1.313  52.001  1.00  0.00     0.049 C 
HETATM    4  C4  UNL     1      22.585   1.288  51.877  1.00  0.00     0.124 C 
HETATM    5  N2  UNL     1      23.298   1.719  53.025  1.00  0.00    -0.383 N 
HETATM    6  C5  UNL     1      24.655   1.211  53.057  1.00  0.00     0.128 A 
HETATM    7  C6  UNL     1      25.522   1.973  52.331  1.00  0.00     0.160 A 
HETATM    8  N4  UNL     1      26.854   1.741  52.142  1.00  0.00    -0.222 NA
HETATM    9  C13 UNL     1      27.398   0.665  52.716  1.00  0.00     0.238 A 
HETATM   10  N5  UNL     1      26.565  -0.100  53.440  1.00  0.00    -0.216 NA
HETATM   11  C14 UNL     1      25.262   0.083  53.654  1.00  0.00     0.197 A 
HETATM   12  O1  UNL     1      25.174  -1.089  54.471  1.00  0.00    -0.329 OA
HETATM   13  C15 UNL     1      24.196  -1.058  55.482  1.00  0.00     0.205 C 
HETATM   14  C16 UNL     1      22.852  -1.108  54.905  1.00  0.00     0.002 C 
HETATM   15  C17 UNL     1      21.613  -1.311  54.493  1.00  0.00     0.026 C 
HETATM   16  H8  UNL     1      23.516   2.187  53.900  1.00  0.00     0.159 HD
ENDROOT
BRANCH   7  17
HETATM   17  N3  UNL     1      24.938   3.157  51.826  1.00  0.00    -0.339 N 
HETATM   18  H9  UNL     1      24.085   3.676  52.055  1.00  0.00     0.167 HD
BRANCH  17  19
HETATM   19  C7  UNL     1      25.534   3.900  50.800  1.00  0.00     0.035 A 
HETATM   20  C8  UNL     1      26.595   3.509  49.987  1.00  0.00     0.032 A 
HETATM   21  C9  UNL     1      27.168   4.273  48.996  1.00  0.00     0.046 A 
HETATM   22  C10 UNL     1      26.627   5.527  48.817  1.00  0.00     0.138 A 
HETATM   23  F1  UNL     1      27.212   6.254  47.834  1.00  0.00    -0.204 F 
HETATM   24  C11 UNL     1      25.561   5.969  49.607  1.00  0.00     0.074 A 
HETATM   25 CL1  UNL     1      25.046   7.590  49.193  1.00  0.00    -0.081 Cl
HETATM   26  C12 UNL     1      25.027   5.161  50.585  1.00  0.00     0.056 A 
ENDBRANCH  17  19
ENDBRANCH   7  17
BRANCH   1  27
HETATM   27  N1  UNL     1      19.491  -1.809  54.150  1.00  0.00    -0.399 N 
HETATM   28  H1  UNL     1      18.526  -1.446  54.309  1.00  0.00     0.156 HD
HETATM   29  H2  UNL     1      19.774  -2.802  54.331  1.00  0.00     0.156 HD
ENDBRANCH   1  27
TORSDOF 3
ENDMDL
MODEL 6
REMARK VINA RESULT:      -8.0      3.631      6.831
REMARK  3 active torsions:
REMARK  status: ('A' for Active; 'I' for Inactive)
REMARK    1  A    between atoms: N1_1  and  C1_2 
REMARK    2  A    between atoms: C6_8  and  N3_9 
REMARK    3  A    between atoms: N3_9  and  C7_10 
ROOT
HETATM    1  C1  UNL     1      27.190   6.388  48.589  1.00  0.00     0.021 C 
HETATM    2  C2  UNL     1      27.092   5.081  48.847  1.00  0.00     0.004 C 
HETATM    3  C3  UNL     1      26.892   3.648  49.185  1.00  0.00     0.049 C 
HETATM    4  C4  UNL     1      25.457   3.526  49.640  1.00  0.00     0.124 C 
HETATM    5  N2  UNL     1      25.186   4.030  50.939  1.00  0.00    -0.383 N 
HETATM    6  C5  UNL     1      23.788   4.361  51.124  1.00  0.00     0.128 A 
HETATM    7  C6  UNL     1      23.031   3.281  51.471  1.00  0.00     0.160 A 
HETATM    8  N4  UNL     1      21.682   3.264  51.685  1.00  0.00    -0.222 NA
HETATM    9  C13 UNL     1      21.003   4.405  51.549  1.00  0.00     0.238 A 
HETATM   10  N5  UNL     1      21.727   5.483  51.211  1.00  0.00    -0.216 NA
HETATM   11  C14 UNL     1      23.041   5.553  50.993  1.00  0.00     0.197 A 
HETATM   12  O1  UNL     1      22.978   6.957  50.721  1.00  0.00    -0.329 OA
HETATM   13  C15 UNL     1      24.132   7.695  51.043  1.00  0.00     0.205 C 
HETATM   14  C16 UNL     1      25.232   7.358  50.138  1.00  0.00     0.002 C 
HETATM   15  C17 UNL     1      26.229   7.244  49.277  1.00  0.00     0.026 C 
HETATM   16  H8  UNL     1      25.322   4.326  51.901  1.00  0.00     0.159 HD
ENDROOT
BRANCH   7  17
HETATM   17  N3  UNL     1      23.794   2.116  51.708  1.00  0.00    -0.339 N 
HETATM   18  H9  UNL     1      24.751   1.838  51.469  1.00  0.00     0.167 HD
BRANCH  17  19
HETATM   19  C7  UNL     1      23.279   1.021  52.413  1.00  0.00     0.035 A 
HETATM   20  C8  UNL     1      22.053   0.392  52.209  1.00  0.00     0.032 A 
HETATM   21  C9  UNL     1      21.571  -0.675  52.933  1.00  0.00     0.046 A 
HETATM   22  C10 UNL     1      22.390  -1.137  53.939  1.00  0.00     0.138 A 
HETATM   23  F1  UNL     1      21.887  -2.187  54.632  1.00  0.00    -0.204 F 
HETATM   24  C11 UNL     1      23.631  -0.540  54.186  1.00  0.00     0.074 A 
HETATM   25 CL1  UNL     1      24.489  -1.300  55.509  1.00  0.00    -0.081 Cl
HETATM   26  C12 UNL     1      24.062   0.526  53.429  1.00  0.00     0.056 A 
ENDBRANCH  17  19
ENDBRANCH   7  17
BRANCH   1  27
HETATM   27  N1  UNL     1      27.978   7.412  47.943  1.00  0.00    -0.399 N 
HETATM   28  H1  UNL     1      27.564   8.364  47.841  1.00  0.00     0.156 HD
HETATM   29  H2  UNL     1      28.935   7.156  47.602  1.00  0.00     0.156 HD
ENDBRANCH   1  27
TORSDOF 3
ENDMDL
MODEL 7
REMARK VINA RESULT:      -8.0      4.609      7.943
REMARK  3 active torsions:
REMARK  status: ('A' for Active; 'I' for Inactive)
REMARK    1  A    between atoms: N1_1  and  C1_2 
REMARK    2  A    between atoms: C6_8  and  N3_9 
REMARK    3  A    between atoms: N3_9  and  C7_10 
ROOT
HETATM    1  C1  UNL     1      25.783   3.361  50.765  1.00  0.00     0.021 C 
HETATM    2  C2  UNL     1      24.452   3.433  50.858  1.00  0.00     0.004 C 
HETATM    3  C3  UNL     1      22.976   3.424  51.022  1.00  0.00     0.049 C 
HETATM    4  C4  UNL     1      22.690   2.461  52.150  1.00  0.00     0.124 C 
HETATM    5  N2  UNL     1      22.816   1.086  51.823  1.00  0.00    -0.383 N 
HETATM    6  C5  UNL     1      23.040   0.259  52.991  1.00  0.00     0.128 A 
HETATM    7  C6  UNL     1      21.883  -0.081  53.627  1.00  0.00     0.160 A 
HETATM    8  N4  UNL     1      21.764  -0.824  54.768  1.00  0.00    -0.222 NA
HETATM    9  C13 UNL     1      22.878  -1.282  55.344  1.00  0.00     0.238 A 
HETATM   10  N5  UNL     1      24.030  -0.965  54.734  1.00  0.00    -0.216 NA
HETATM   11  C14 UNL     1      24.198  -0.245  53.623  1.00  0.00     0.197 A 
HETATM   12  O1  UNL     1      25.621  -0.397  53.674  1.00  0.00    -0.329 OA
HETATM   13  C15 UNL     1      26.282  -0.387  52.432  1.00  0.00     0.205 C 
HETATM   14  C16 UNL     1      26.237   0.946  51.830  1.00  0.00     0.002 C 
HETATM   15  C17 UNL     1      26.391   2.141  51.286  1.00  0.00     0.026 C 
HETATM   16  H8  UNL     1      22.847   0.228  51.281  1.00  0.00     0.159 HD
ENDROOT
BRANCH   7  17
HETATM   17  N3  UNL     1      20.722   0.330  52.935  1.00  0.00    -0.339 N 
HETATM   18  H9  UNL     1      20.502   1.137  52.341  1.00  0.00     0.167 HD
BRANCH  17  19
HETATM   19  C7  UNL     1      19.539  -0.419  52.956  1.00  0.00     0.035 A 
HETATM   20  C8  UNL     1      19.272  -1.544  53.732  1.00  0.00     0.032 A 
HETATM   21  C9  UNL     1      18.101  -2.268  53.715  1.00  0.00     0.046 A 
HETATM   22  C10 UNL     1      17.130  -1.818  52.849  1.00  0.00     0.138 A 
HETATM   23  F1  UNL     1      15.989  -2.551  52.858  1.00  0.00    -0.204 F 
HETATM   24  C11 UNL     1      17.347  -0.693  52.047  1.00  0.00     0.074 A 
HETATM   25 CL1  UNL     1      15.972  -0.316  51.032  1.00  0.00    -0.081 Cl
HETATM   26  C12 UNL     1      18.540  -0.008  52.104  1.00  0.00     0.056 A 
ENDBRANCH  17  19
ENDBRANCH   7  17
BRANCH   1  27
HETATM   27  N1  UNL     1      26.968   3.988  50.228  1.00  0.00    -0.399 N 
HETATM   28  H1  UNL     1      27.629   3.404  49.670  1.00  0.00     0.156 HD
HETATM   29  H2  UNL     1      27.117   5.008  50.420  1.00  0.00     0.156 HD
ENDBRANCH   1  27
TORSDOF 3
ENDMDL
MODEL 8
REMARK VINA RESULT:      -7.9      5.076      8.324
REMARK  3 active torsions:
REMARK  status: ('A' for Active; 'I' for Inactive)
REMARK    1  A    between atoms: N1_1  and  C1_2 
REMARK    2  A    between atoms: C6_8  and  N3_9 
REMARK    3  A    between atoms: N3_9  and  C7_10 
ROOT
HETATM    1  C1  UNL     1      28.386   6.269  48.099  1.00  0.00     0.021 C 
HETATM    2  C2  UNL     1      27.762   5.196  48.593  1.00  0.00     0.004 C 
HETATM    3  C3  UNL     1      26.991   4.069  49.177  1.00  0.00     0.049 C 
HETATM    4  C4  UNL     1      25.617   4.618  49.481  1.00  0.00     0.124 C 
HETATM    5  N2  UNL     1      25.538   5.464  50.618  1.00  0.00    -0.383 N 
HETATM    6  C5  UNL     1      24.388   6.344  50.573  1.00  0.00     0.128 A 
HETATM    7  C6  UNL     1      23.250   5.750  51.035  1.00  0.00     0.160 A 
HETATM    8  N4  UNL     1      22.004   6.305  51.092  1.00  0.00    -0.222 NA
HETATM    9  C13 UNL     1      21.847   7.559  50.661  1.00  0.00     0.238 A 
HETATM   10  N5  UNL     1      22.954   8.167  50.205  1.00  0.00    -0.216 NA
HETATM   11  C14 UNL     1      24.189   7.671  50.129  1.00  0.00     0.197 A 
HETATM   12  O1  UNL     1      24.706   8.889  49.584  1.00  0.00    -0.329 OA
HETATM   13  C15 UNL     1      26.050   9.173  49.886  1.00  0.00     0.205 C 
HETATM   14  C16 UNL     1      26.945   8.243  49.195  1.00  0.00     0.002 C 
HETATM   15  C17 UNL     1      27.833   7.562  48.493  1.00  0.00     0.026 C 
HETATM   16  H8  UNL     1      25.757   5.892  51.512  1.00  0.00     0.159 HD
ENDROOT
BRANCH   7  17
HETATM   17  N3  UNL     1      23.471   4.465  51.579  1.00  0.00    -0.339 N 
HETATM   18  H9  UNL     1      24.233   4.052  52.125  1.00  0.00     0.167 HD
BRANCH  17  19
HETATM   19  C7  UNL     1      22.542   3.428  51.437  1.00  0.00     0.035 A 
HETATM   20  C8  UNL     1      21.620   2.991  52.384  1.00  0.00     0.032 A 
HETATM   21  C9  UNL     1      20.729   1.955  52.216  1.00  0.00     0.046 A 
HETATM   22  C10 UNL     1      20.777   1.315  50.998  1.00  0.00     0.138 A 
HETATM   23  F1  UNL     1      19.887   0.301  50.864  1.00  0.00    -0.204 F 
HETATM   24  C11 UNL     1      21.684   1.714  50.011  1.00  0.00     0.074 A 
HETATM   25 CL1  UNL     1      21.556   0.753  48.554  1.00  0.00    -0.081 Cl
HETATM   26  C12 UNL     1      22.553   2.757  50.235  1.00  0.00     0.056 A 
ENDBRANCH  17  19
ENDBRANCH   7  17
BRANCH   1  27
HETATM   27  N1  UNL     1      29.536   6.735  47.361  1.00  0.00    -0.399 N 
HETATM   28  H1  UNL     1      29.386   7.132  46.407  1.00  0.00     0.156 HD
HETATM   29  H2  UNL     1      30.478   6.655  47.813  1.00  0.00     0.156 HD
ENDBRANCH   1  27
TORSDOF 3
ENDMDL
MODEL 9
REMARK VINA RESULT:      -7.9      3.538      6.194
REMARK  3 active torsions:
REMARK  status: ('A' for Active; 'I' for Inactive)
REMARK    1  A    between atoms: N1_1  and  C1_2 
REMARK    2  A    between atoms: C6_8  and  N3_9 
REMARK    3  A    between atoms: N3_9  and  C7_10 
ROOT
HETATM    1  C1  UNL     1      25.257   7.685  47.690  1.00  0.00     0.021 C 
HETATM    2  C2  UNL     1      25.972   6.721  48.277  1.00  0.00     0.004 C 
HETATM    3  C3  UNL     1      26.682   5.627  48.989  1.00  0.00     0.049 C 
HETATM    4  C4  UNL     1      25.614   4.843  49.715  1.00  0.00     0.124 C 
HETATM    5  N2  UNL     1      25.085   5.465  50.875  1.00  0.00    -0.383 N 
HETATM    6  C5  UNL     1      23.772   4.962  51.224  1.00  0.00     0.128 A 
HETATM    7  C6  UNL     1      23.825   3.814  51.960  1.00  0.00     0.160 A 
HETATM    8  N4  UNL     1      22.764   3.084  52.413  1.00  0.00    -0.222 NA
HETATM    9  C13 UNL     1      21.532   3.511  52.126  1.00  0.00     0.238 A 
HETATM   10  N5  UNL     1      21.453   4.640  51.406  1.00  0.00    -0.216 NA
HETATM   11  C14 UNL     1      22.455   5.388  50.941  1.00  0.00     0.197 A 
HETATM   12  O1  UNL     1      21.554   6.327  50.347  1.00  0.00    -0.329 OA
HETATM   13  C15 UNL     1      22.020   7.652  50.260  1.00  0.00     0.205 C 
HETATM   14  C16 UNL     1      23.103   7.758  49.281  1.00  0.00     0.002 C 
HETATM   15  C17 UNL     1      23.969   7.984  48.309  1.00  0.00     0.026 C 
HETATM   16  H8  UNL     1      25.007   6.064  51.692  1.00  0.00     0.159 HD
ENDROOT
BRANCH   7  17
HETATM   17  N3  UNL     1      25.138   3.450  52.334  1.00  0.00    -0.339 N 
HETATM   18  H9  UNL     1      25.976   3.986  52.581  1.00  0.00     0.167 HD
BRANCH  17  19
HETATM   19  C7  UNL     1      25.534   2.112  52.447  1.00  0.00     0.035 A 
HETATM   20  C8  UNL     1      26.380   1.411  51.590  1.00  0.00     0.032 A 
HETATM   21  C9  UNL     1      26.736   0.088  51.723  1.00  0.00     0.046 A 
HETATM   22  C10 UNL     1      26.195  -0.573  52.803  1.00  0.00     0.138 A 
HETATM   23  F1  UNL     1      26.566  -1.873  52.906  1.00  0.00    -0.204 F 
HETATM   24  C11 UNL     1      25.340   0.084  53.694  1.00  0.00     0.074 A 
HETATM   25 CL1  UNL     1      24.783  -0.961  54.984  1.00  0.00    -0.081 Cl
HETATM   26  C12 UNL     1      25.018   1.409  53.511  1.00  0.00     0.056 A 
ENDBRANCH  17  19
ENDBRANCH   7  17
BRANCH   1  27
HETATM   27  N1  UNL     1      25.263   8.715  46.678  1.00  0.00    -0.399 N 
HETATM   28  H1  UNL     1      26.060   8.745  46.006  1.00  0.00     0.156 HD
HETATM   29  H2  UNL     1      24.465   9.394  46.661  1.00  0.00     0.156 HD
ENDBRANCH   1  27
TORSDOF 3
ENDMDL
