MODEL 1
REMARK VINA RESULT:      -7.8      0.000      0.000
REMARK  4 active torsions:
REMARK  status: ('A' for Active; 'I' for Inactive)
REMARK    1  A    between atoms: C11_15  and  O2_16 
REMARK    2  A    between atoms: C13_18  and  N4_19 
REMARK       I    between atoms: N4_19  and  C14_20 
REMARK    3  A    between atoms: C14_20  and  C15_22 
REMARK    4  A    between atoms: C19_26  and  N5_27 
ROOT
HETATM    1  C1  UNL     1      22.629   2.266  47.711  1.00  0.00     0.053 C 
HETATM    2  C2  UNL     1      22.992   2.793  48.866  1.00  0.00     0.093 C 
HETATM    3  O1  UNL     1      23.667   3.777  49.616  1.00  0.00    -0.305 OA
HETATM    4  C3  UNL     1      23.033   4.947  50.029  1.00  0.00     0.122 A 
HETATM    5  C4  UNL     1      23.754   6.132  50.050  1.00  0.00     0.155 A 
HETATM    6  N1  UNL     1      23.258   7.322  50.424  1.00  0.00    -0.270 NA
HETATM    7  C5  UNL     1      21.984   7.445  50.816  1.00  0.00     0.118 A 
HETATM    8  C6  UNL     1      21.265   6.281  50.800  1.00  0.00     0.054 A 
HETATM    9  C7  UNL     1      21.694   5.006  50.428  1.00  0.00     0.094 A 
HETATM   10  N2  UNL     1      20.719   3.987  50.527  1.00  0.00    -0.239 NA
HETATM   11  C8  UNL     1      20.488   3.413  51.639  1.00  0.00     0.234 C 
HETATM   12  N3  UNL     1      20.106   2.685  52.750  1.00  0.00    -0.241 NA
HETATM   13  C9  UNL     1      20.754   1.670  53.266  1.00  0.00     0.073 A 
HETATM   14  C10 UNL     1      20.844   0.652  54.278  1.00  0.00     0.071 A 
HETATM   15  C11 UNL     1      21.914  -0.095  54.126  1.00  0.00     0.098 A 
HETATM   16  C13 UNL     1      22.685   0.338  52.969  1.00  0.00     0.081 A 
HETATM   17  C17 UNL     1      21.986   1.331  52.523  1.00  0.00     0.025 A 
HETATM   18  C18 UNL     1      22.441   1.979  51.292  1.00  0.00     0.048 C 
HETATM   19  C19 UNL     1      22.466   2.037  49.979  1.00  0.00     0.062 C 
ENDROOT
BRANCH  16  20
HETATM   20  N4  UNL     1      23.900  -0.166  52.473  1.00  0.00    -0.324 N 
HETATM   21  C14 UNL     1      25.161   0.275  52.903  1.00  0.00     0.221 C 
HETATM   22  O3  UNL     1      25.400   1.144  53.757  1.00  0.00    -0.273 OA
HETATM   23  H11 UNL     1      24.030  -0.888  51.764  1.00  0.00     0.169 HD
BRANCH  21  24
HETATM   24  C15 UNL     1      26.451  -0.221  52.411  1.00  0.00     0.098 C 
HETATM   25  C16 UNL     1      26.676  -1.672  52.654  1.00  0.00     0.014 C 
ENDBRANCH  21  24
ENDBRANCH  16  20
BRANCH  15  26
HETATM   26  O2  UNL     1      22.094  -1.096  55.041  1.00  0.00    -0.354 OA
HETATM   27  C12 UNL     1      23.272  -1.494  55.663  1.00  0.00     0.210 C 
ENDBRANCH  15  26
BRANCH  19  28
HETATM   28  N5  UNL     1      21.665   0.880  49.864  1.00  0.00    -0.392 N 
HETATM   29  C20 UNL     1      20.352   1.101  49.336  1.00  0.00     0.146 C 
HETATM   30  H18 UNL     1      21.682  -0.176  50.030  1.00  0.00     0.159 HD
ENDBRANCH  19  28
TORSDOF 4
ENDMDL
MODEL 2
REMARK VINA RESULT:      -7.4      2.207      2.961
REMARK  4 active torsions:
REMARK  status: ('A' for Active; 'I' for Inactive)
REMARK    1  A    between atoms: C11_15  and  O2_16 
REMARK    2  A    between atoms: C13_18  and  N4_19 
REMARK       I    between atoms: N4_19  and  C14_20 
REMARK    3  A    between atoms: C14_20  and  C15_22 
REMARK    4  A    between atoms: C19_26  and  N5_27 
ROOT
HETATM    1  C1  UNL     1      25.980   5.492  48.793  1.00  0.00     0.053 C 
HETATM    2  C2  UNL     1      25.103   5.550  49.779  1.00  0.00     0.093 C 
HETATM    3  O1  UNL     1      24.259   6.282  50.638  1.00  0.00    -0.305 OA
HETATM    4  C3  UNL     1      22.927   6.536  50.316  1.00  0.00     0.122 A 
HETATM    5  C4  UNL     1      22.370   7.755  50.672  1.00  0.00     0.155 A 
HETATM    6  N1  UNL     1      21.104   8.121  50.416  1.00  0.00    -0.270 NA
HETATM    7  C5  UNL     1      20.265   7.298  49.776  1.00  0.00     0.118 A 
HETATM    8  C6  UNL     1      20.806   6.091  49.422  1.00  0.00     0.054 A 
HETATM    9  C7  UNL     1      22.104   5.628  49.644  1.00  0.00     0.094 A 
HETATM   10  N2  UNL     1      22.369   4.323  49.170  1.00  0.00    -0.239 NA
HETATM   11  C8  UNL     1      22.056   3.302  49.862  1.00  0.00     0.234 C 
HETATM   12  N3  UNL     1      21.790   2.090  50.470  1.00  0.00    -0.241 NA
HETATM   13  C9  UNL     1      22.493   1.538  51.428  1.00  0.00     0.073 A 
HETATM   14  C10 UNL     1      22.687   0.442  52.338  1.00  0.00     0.071 A 
HETATM   15  C11 UNL     1      23.751   0.613  53.091  1.00  0.00     0.098 A 
HETATM   16  C13 UNL     1      24.414   1.868  52.766  1.00  0.00     0.081 A 
HETATM   17  C17 UNL     1      23.667   2.344  51.824  1.00  0.00     0.025 A 
HETATM   18  C18 UNL     1      24.087   3.598  51.196  1.00  0.00     0.048 C 
HETATM   19  C19 UNL     1      24.796   4.235  50.291  1.00  0.00     0.062 C 
ENDROOT
BRANCH  16  20
HETATM   20  N4  UNL     1      25.560   2.442  53.346  1.00  0.00    -0.324 N 
HETATM   21  C14 UNL     1      26.842   1.880  53.259  1.00  0.00     0.221 C 
HETATM   22  O3  UNL     1      27.162   0.829  52.680  1.00  0.00    -0.273 OA
HETATM   23  H11 UNL     1      25.616   3.306  53.885  1.00  0.00     0.169 HD
BRANCH  21  24
HETATM   24  C15 UNL     1      28.062   2.443  53.850  1.00  0.00     0.098 C 
HETATM   25  C16 UNL     1      29.077   1.424  54.230  1.00  0.00     0.014 C 
ENDBRANCH  21  24
ENDBRANCH  16  20
BRANCH  15  26
HETATM   26  O2  UNL     1      24.024  -0.376  53.995  1.00  0.00    -0.354 OA
HETATM   27  C12 UNL     1      23.135  -1.083  54.795  1.00  0.00     0.210 C 
ENDBRANCH  15  26
BRANCH  19  28
HETATM   28  N5  UNL     1      25.353   3.030  49.809  1.00  0.00    -0.392 N 
HETATM   29  C20 UNL     1      26.777   2.927  49.934  1.00  0.00     0.146 C 
HETATM   30  H18 UNL     1      25.084   2.096  49.363  1.00  0.00     0.159 HD
ENDBRANCH  19  28
TORSDOF 4
ENDMDL
MODEL 3
REMARK VINA RESULT:      -7.4      3.188      7.948
REMARK  4 active torsions:
REMARK  status: ('A' for Active; 'I' for Inactive)
REMARK    1  A    between atoms: C11_15  and  O2_16 
REMARK    2  A    between atoms: C13_18  and  N4_19 
REMARK       I    between atoms: N4_19  and  C14_20 
REMARK    3  A    between atoms: C14_20  and  C15_22 
REMARK    4  A    between atoms: C19_26  and  N5_27 
ROOT
HETATM    1  C1  UNL     1      22.326   2.503  50.213  1.00  0.00     0.053 C 
HETATM    2  C2  UNL     1      23.246   3.169  50.887  1.00  0.00     0.093 C 
HETATM    3  O1  UNL     1      23.931   3.457  52.085  1.00  0.00    -0.305 OA
HETATM    4  C3  UNL     1      25.097   2.782  52.442  1.00  0.00     0.122 A 
HETATM    5  C4  UNL     1      25.321   2.486  53.779  1.00  0.00     0.155 A 
HETATM    6  N1  UNL     1      26.399   1.840  54.249  1.00  0.00    -0.270 NA
HETATM    7  C5  UNL     1      27.367   1.424  53.423  1.00  0.00     0.118 A 
HETATM    8  C6  UNL     1      27.156   1.712  52.102  1.00  0.00     0.054 A 
HETATM    9  C7  UNL     1      26.071   2.374  51.526  1.00  0.00     0.094 A 
HETATM   10  N2  UNL     1      26.138   2.537  50.122  1.00  0.00    -0.239 NA
HETATM   11  C8  UNL     1      26.796   3.498  49.609  1.00  0.00     0.234 C 
HETATM   12  N3  UNL     1      27.454   4.471  48.881  1.00  0.00    -0.241 NA
HETATM   13  C9  UNL     1      27.037   5.696  48.680  1.00  0.00     0.073 A 
HETATM   14  C10 UNL     1      27.254   6.990  48.092  1.00  0.00     0.071 A 
HETATM   15  C11 UNL     1      26.267   7.819  48.352  1.00  0.00     0.098 A 
HETATM   16  C13 UNL     1      25.247   7.165  49.160  1.00  0.00     0.081 A 
HETATM   17  C17 UNL     1      25.729   5.975  49.312  1.00  0.00     0.025 A 
HETATM   18  C18 UNL     1      24.911   5.000  50.034  1.00  0.00     0.048 C 
HETATM   19  C19 UNL     1      23.962   4.089  50.035  1.00  0.00     0.062 C 
ENDROOT
BRANCH  16  20
HETATM   20  N4  UNL     1      24.051   7.694  49.678  1.00  0.00    -0.324 N 
HETATM   21  C14 UNL     1      23.035   8.247  48.883  1.00  0.00     0.221 C 
HETATM   22  O3  UNL     1      23.026   8.353  47.646  1.00  0.00    -0.273 OA
HETATM   23  H11 UNL     1      23.768   7.748  50.656  1.00  0.00     0.169 HD
BRANCH  21  24
HETATM   24  C15 UNL     1      21.775   8.812  49.381  1.00  0.00     0.098 C 
HETATM   25  C16 UNL     1      20.952   7.855  50.169  1.00  0.00     0.014 C 
ENDBRANCH  21  24
ENDBRANCH  16  20
BRANCH  15  26
HETATM   26  O2  UNL     1      26.377   9.081  47.837  1.00  0.00    -0.354 OA
HETATM   27  C12 UNL     1      26.272  10.296  48.504  1.00  0.00     0.210 C 
ENDBRANCH  15  26
BRANCH  19  28
HETATM   28  N5  UNL     1      23.722   4.268  48.655  1.00  0.00    -0.392 N 
HETATM   29  C20 UNL     1      22.443   4.824  48.329  1.00  0.00     0.146 C 
HETATM   30  H18 UNL     1      24.179   4.139  47.697  1.00  0.00     0.159 HD
ENDBRANCH  19  28
TORSDOF 4
ENDMDL
MODEL 4
REMARK VINA RESULT:      -7.3      2.425      5.766
REMARK  4 active torsions:
REMARK  status: ('A' for Active; 'I' for Inactive)
REMARK    1  A    between atoms: C11_15  and  O2_16 
REMARK    2  A    between atoms: C13_18  and  N4_19 
REMARK       I    between atoms: N4_19  and  C14_20 
REMARK    3  A    between atoms: C14_20  and  C15_22 
REMARK    4  A    between atoms: C19_26  and  N5_27 
ROOT
HETATM    1  C1  UNL     1      23.796   4.525  52.669  1.00  0.00     0.053 C 
HETATM    2  C2  UNL     1      23.809   3.375  52.020  1.00  0.00     0.093 C 
HETATM    3  O1  UNL     1      24.498   2.343  51.352  1.00  0.00    -0.305 OA
HETATM    4  C3  UNL     1      24.964   1.216  52.027  1.00  0.00     0.122 A 
HETATM    5  C4  UNL     1      26.172   0.654  51.644  1.00  0.00     0.155 A 
HETATM    6  N1  UNL     1      26.729  -0.426  52.216  1.00  0.00    -0.270 NA
HETATM    7  C5  UNL     1      26.126  -1.054  53.232  1.00  0.00     0.118 A 
HETATM    8  C6  UNL     1      24.932  -0.508  53.616  1.00  0.00     0.054 A 
HETATM    9  C7  UNL     1      24.281   0.607  53.085  1.00  0.00     0.094 A 
HETATM   10  N2  UNL     1      23.043   0.928  53.687  1.00  0.00    -0.239 NA
HETATM   11  C8  UNL     1      21.974   0.334  53.335  1.00  0.00     0.234 C 
HETATM   12  N3  UNL     1      20.725  -0.201  53.082  1.00  0.00    -0.241 NA
HETATM   13  C9  UNL     1      19.947   0.102  52.073  1.00  0.00     0.073 A 
HETATM   14  C10 UNL     1      18.707  -0.094  51.371  1.00  0.00     0.071 A 
HETATM   15  C11 UNL     1      18.624   0.665  50.302  1.00  0.00     0.098 A 
HETATM   16  C13 UNL     1      19.822   1.481  50.156  1.00  0.00     0.081 A 
HETATM   17  C17 UNL     1      20.529   1.126  51.179  1.00  0.00     0.025 A 
HETATM   18  C18 UNL     1      21.802   1.815  51.394  1.00  0.00     0.048 C 
HETATM   19  C19 UNL     1      22.479   2.828  51.890  1.00  0.00     0.062 C 
ENDROOT
BRANCH  16  20
HETATM   20  N4  UNL     1      20.151   2.402  49.145  1.00  0.00    -0.324 N 
HETATM   21  C14 UNL     1      21.095   2.149  48.138  1.00  0.00     0.221 C 
HETATM   22  O3  UNL     1      21.763   1.114  47.980  1.00  0.00    -0.273 OA
HETATM   23  H11 UNL     1      19.769   3.338  49.009  1.00  0.00     0.169 HD
BRANCH  21  24
HETATM   24  C15 UNL     1      21.470   3.080  47.068  1.00  0.00     0.098 C 
HETATM   25  C16 UNL     1      22.306   4.223  47.524  1.00  0.00     0.014 C 
ENDBRANCH  21  24
ENDBRANCH  16  20
BRANCH  15  26
HETATM   26  O2  UNL     1      17.480   0.554  49.561  1.00  0.00    -0.354 OA
HETATM   27  C12 UNL     1      16.501  -0.429  49.630  1.00  0.00     0.210 C 
ENDBRANCH  15  26
BRANCH  19  28
HETATM   28  N5  UNL     1      21.303   3.432  52.387  1.00  0.00    -0.392 N 
HETATM   29  C20 UNL     1      20.858   4.583  51.659  1.00  0.00     0.146 C 
HETATM   30  H18 UNL     1      20.566   3.335  53.156  1.00  0.00     0.159 HD
ENDBRANCH  19  28
TORSDOF 4
ENDMDL
MODEL 5
REMARK VINA RESULT:      -7.2      6.047      9.488
REMARK  4 active torsions:
REMARK  status: ('A' for Active; 'I' for Inactive)
REMARK    1  A    between atoms: C11_15  and  O2_16 
REMARK    2  A    between atoms: C13_18  and  N4_19 
REMARK       I    between atoms: N4_19  and  C14_20 
REMARK    3  A    between atoms: C14_20  and  C15_22 
REMARK    4  A    between atoms: C19_26  and  N5_27 
ROOT
HETATM    1  C1  UNL     1      29.189  10.811  48.804  1.00  0.00     0.053 C 
HETATM    2  C2  UNL     1      28.873   9.959  47.845  1.00  0.00     0.093 C 
HETATM    3  O1  UNL     1      28.783   9.616  46.481  1.00  0.00    -0.305 OA
HETATM    4  C3  UNL     1      29.821   8.962  45.819  1.00  0.00     0.122 A 
HETATM    5  C4  UNL     1      30.084   9.285  44.497  1.00  0.00     0.155 A 
HETATM    6  N1  UNL     1      31.055   8.731  43.753  1.00  0.00    -0.270 NA
HETATM    7  C5  UNL     1      31.862   7.793  44.262  1.00  0.00     0.118 A 
HETATM    8  C6  UNL     1      31.609   7.466  45.567  1.00  0.00     0.054 A 
HETATM    9  C7  UNL     1      30.628   7.987  46.413  1.00  0.00     0.094 A 
HETATM   10  N2  UNL     1      30.602   7.440  47.717  1.00  0.00    -0.239 NA
HETATM   11  C8  UNL     1      29.998   6.345  47.951  1.00  0.00     0.234 C 
HETATM   12  N3  UNL     1      29.398   5.179  48.388  1.00  0.00    -0.241 NA
HETATM   13  C9  UNL     1      28.123   5.017  48.642  1.00  0.00     0.073 A 
HETATM   14  C10 UNL     1      27.051   4.157  49.065  1.00  0.00     0.071 A 
HETATM   15  C11 UNL     1      25.896   4.784  49.076  1.00  0.00     0.098 A 
HETATM   16  C13 UNL     1      26.058   6.169  48.657  1.00  0.00     0.081 A 
HETATM   17  C17 UNL     1      27.329   6.245  48.428  1.00  0.00     0.025 A 
HETATM   18  C18 UNL     1      27.870   7.550  48.046  1.00  0.00     0.048 C 
HETATM   19  C19 UNL     1      28.353   8.725  48.385  1.00  0.00     0.062 C 
ENDROOT
BRANCH  16  20
HETATM   20  N4  UNL     1      25.082   7.170  48.505  1.00  0.00    -0.324 N 
HETATM   21  C14 UNL     1      24.203   7.563  49.525  1.00  0.00     0.221 C 
HETATM   22  O3  UNL     1      24.145   7.111  50.680  1.00  0.00    -0.273 OA
HETATM   23  H11 UNL     1      24.886   7.724  47.671  1.00  0.00     0.169 HD
BRANCH  21  24
HETATM   24  C15 UNL     1      23.170   8.599  49.408  1.00  0.00     0.098 C 
HETATM   25  C16 UNL     1      21.836   8.186  49.923  1.00  0.00     0.014 C 
ENDBRANCH  21  24
ENDBRANCH  16  20
BRANCH  15  26
HETATM   26  O2  UNL     1      24.808   4.051  49.464  1.00  0.00    -0.354 OA
HETATM   27  C12 UNL     1      24.525   3.527  50.719  1.00  0.00     0.210 C 
ENDBRANCH  15  26
BRANCH  19  28
HETATM   28  N5  UNL     1      28.195   8.448  49.760  1.00  0.00    -0.392 N 
HETATM   29  C20 UNL     1      27.203   9.238  50.428  1.00  0.00     0.146 C 
HETATM   30  H18 UNL     1      28.562   7.815  50.540  1.00  0.00     0.159 HD
ENDBRANCH  19  28
TORSDOF 4
ENDMDL
MODEL 6
REMARK VINA RESULT:      -7.0      7.962     11.468
REMARK  4 active torsions:
REMARK  status: ('A' for Active; 'I' for Inactive)
REMARK    1  A    between atoms: C11_15  and  O2_16 
REMARK    2  A    between atoms: C13_18  and  N4_19 
REMARK       I    between atoms: N4_19  and  C14_20 
REMARK    3  A    between atoms: C14_20  and  C15_22 
REMARK    4  A    between atoms: C19_26  and  N5_27 
ROOT
HETATM    1  C1  UNL     1      33.251   9.111  48.173  1.00  0.00     0.053 C 
HETATM    2  C2  UNL     1      32.466   8.603  47.241  1.00  0.00     0.093 C 
HETATM    3  O1  UNL     1      32.217   8.235  45.903  1.00  0.00    -0.305 OA
HETATM    4  C3  UNL     1      32.509   6.957  45.428  1.00  0.00     0.122 A 
HETATM    5  C4  UNL     1      32.981   6.813  44.132  1.00  0.00     0.155 A 
HETATM    6  N1  UNL     1      33.300   5.641  43.561  1.00  0.00    -0.270 NA
HETATM    7  C5  UNL     1      33.176   4.491  44.233  1.00  0.00     0.118 A 
HETATM    8  C6  UNL     1      32.708   4.622  45.512  1.00  0.00     0.054 A 
HETATM    9  C7  UNL     1      32.355   5.793  46.186  1.00  0.00     0.094 A 
HETATM   10  N2  UNL     1      31.890   5.611  47.509  1.00  0.00    -0.239 NA
HETATM   11  C8  UNL     1      30.677   5.302  47.736  1.00  0.00     0.234 C 
HETATM   12  N3  UNL     1      29.407   4.969  48.170  1.00  0.00    -0.241 NA
HETATM   13  C9  UNL     1      28.387   5.785  48.265  1.00  0.00     0.073 A 
HETATM   14  C10 UNL     1      27.005   5.994  48.602  1.00  0.00     0.071 A 
HETATM   15  C11 UNL     1      26.641   7.244  48.420  1.00  0.00     0.098 A 
HETATM   16  C13 UNL     1      27.759   8.040  47.933  1.00  0.00     0.081 A 
HETATM   17  C17 UNL     1      28.714   7.171  47.867  1.00  0.00     0.025 A 
HETATM   18  C18 UNL     1      30.039   7.650  47.472  1.00  0.00     0.048 C 
HETATM   19  C19 UNL     1      31.199   8.180  47.791  1.00  0.00     0.062 C 
ENDROOT
BRANCH  16  20
HETATM   20  N4  UNL     1      27.794   9.403  47.588  1.00  0.00    -0.324 N 
HETATM   21  C14 UNL     1      27.488  10.442  48.480  1.00  0.00     0.221 C 
HETATM   22  O3  UNL     1      27.153  10.332  49.671  1.00  0.00    -0.273 OA
HETATM   23  H11 UNL     1      28.035   9.808  46.683  1.00  0.00     0.169 HD
BRANCH  21  24
HETATM   24  C15 UNL     1      27.510  11.874  48.162  1.00  0.00     0.098 C 
HETATM   25  C16 UNL     1      28.512  12.652  48.939  1.00  0.00     0.014 C 
ENDBRANCH  21  24
ENDBRANCH  16  20
BRANCH  15  26
HETATM   26  O2  UNL     1      25.340   7.550  48.712  1.00  0.00    -0.354 OA
HETATM   27  C12 UNL     1      24.782   7.857  49.947  1.00  0.00     0.210 C 
ENDBRANCH  15  26
BRANCH  19  28
HETATM   28  N5  UNL     1      30.830   8.290  49.149  1.00  0.00    -0.392 N 
HETATM   29  C20 UNL     1      30.687   9.631  49.633  1.00  0.00     0.146 C 
HETATM   30  H18 UNL     1      30.594   7.699  50.008  1.00  0.00     0.159 HD
ENDBRANCH  19  28
TORSDOF 4
ENDMDL
MODEL 7
REMARK VINA RESULT:      -7.0      6.629     10.306
REMARK  4 active torsions:
REMARK  status: ('A' for Active; 'I' for Inactive)
REMARK    1  A    between atoms: C11_15  and  O2_16 
REMARK    2  A    between atoms: C13_18  and  N4_19 
REMARK       I    between atoms: N4_19  and  C14_20 
REMARK    3  A    between atoms: C14_20  and  C15_22 
REMARK    4  A    between atoms: C19_26  and  N5_27 
ROOT
HETATM    1  C1  UNL     1      25.535   9.043  46.845  1.00  0.00     0.053 C 
HETATM    2  C2  UNL     1      25.994   8.657  48.022  1.00  0.00     0.093 C 
HETATM    3  O1  UNL     1      25.809   8.404  49.397  1.00  0.00    -0.305 OA
HETATM    4  C3  UNL     1      25.430   7.148  49.867  1.00  0.00     0.122 A 
HETATM    5  C4  UNL     1      24.568   7.068  50.950  1.00  0.00     0.155 A 
HETATM    6  N1  UNL     1      24.127   5.922  51.493  1.00  0.00    -0.270 NA
HETATM    7  C5  UNL     1      24.508   4.737  51.003  1.00  0.00     0.118 A 
HETATM    8  C6  UNL     1      25.359   4.805  49.935  1.00  0.00     0.054 A 
HETATM    9  C7  UNL     1      25.867   5.944  49.306  1.00  0.00     0.094 A 
HETATM   10  N2  UNL     1      26.743   5.698  48.224  1.00  0.00    -0.239 NA
HETATM   11  C8  UNL     1      27.975   5.454  48.426  1.00  0.00     0.234 C 
HETATM   12  N3  UNL     1      29.329   5.175  48.454  1.00  0.00    -0.241 NA
HETATM   13  C9  UNL     1      30.292   6.047  48.617  1.00  0.00     0.073 A 
HETATM   14  C10 UNL     1      31.699   6.323  48.723  1.00  0.00     0.071 A 
HETATM   15  C11 UNL     1      31.935   7.604  48.898  1.00  0.00     0.098 A 
HETATM   16  C13 UNL     1      30.690   8.358  48.927  1.00  0.00     0.081 A 
HETATM   17  C17 UNL     1      29.799   7.434  48.762  1.00  0.00     0.025 A 
HETATM   18  C18 UNL     1      28.400   7.852  48.668  1.00  0.00     0.048 C 
HETATM   19  C19 UNL     1      27.386   8.280  47.947  1.00  0.00     0.062 C 
ENDROOT
BRANCH  16  20
HETATM   20  N4  UNL     1      30.491   9.737  49.118  1.00  0.00    -0.324 N 
HETATM   21  C14 UNL     1      31.082  10.728  48.321  1.00  0.00     0.221 C 
HETATM   22  O3  UNL     1      31.844  10.556  47.355  1.00  0.00    -0.273 OA
HETATM   23  H11 UNL     1      29.917  10.188  49.830  1.00  0.00     0.169 HD
BRANCH  21  24
HETATM   24  C15 UNL     1      30.905  12.175  48.486  1.00  0.00     0.098 C 
HETATM   25  C16 UNL     1      29.597  12.561  49.081  1.00  0.00     0.014 C 
ENDBRANCH  21  24
ENDBRANCH  16  20
BRANCH  15  26
HETATM   26  O2  UNL     1      33.247   7.973  49.012  1.00  0.00    -0.354 OA
HETATM   27  C12 UNL     1      34.363   7.380  48.433  1.00  0.00     0.210 C 
ENDBRANCH  15  26
BRANCH  19  28
HETATM   28  N5  UNL     1      28.172   8.314  46.774  1.00  0.00    -0.392 N 
HETATM   29  C20 UNL     1      28.427   9.624  46.253  1.00  0.00     0.146 C 
HETATM   30  H18 UNL     1      28.690   7.678  46.088  1.00  0.00     0.159 HD
ENDBRANCH  19  28
TORSDOF 4
ENDMDL
MODEL 8
REMARK VINA RESULT:      -7.0      6.679     10.359
REMARK  4 active torsions:
REMARK  status: ('A' for Active; 'I' for Inactive)
REMARK    1  A    between atoms: C11_15  and  O2_16 
REMARK    2  A    between atoms: C13_18  and  N4_19 
REMARK       I    between atoms: N4_19  and  C14_20 
REMARK    3  A    between atoms: C14_20  and  C15_22 
REMARK    4  A    between atoms: C19_26  and  N5_27 
ROOT
HETATM    1  C1  UNL     1      30.706  10.324  48.762  1.00  0.00     0.053 C 
HETATM    2  C2  UNL     1      30.228   9.564  47.793  1.00  0.00     0.093 C 
HETATM    3  O1  UNL     1      30.180   9.176  46.439  1.00  0.00    -0.305 OA
HETATM    4  C3  UNL     1      30.998   8.166  45.936  1.00  0.00     0.122 A 
HETATM    5  C4  UNL     1      31.505   8.289  44.651  1.00  0.00     0.155 A 
HETATM    6  N1  UNL     1      32.304   7.389  44.056  1.00  0.00    -0.270 NA
HETATM    7  C5  UNL     1      32.677   6.272  44.691  1.00  0.00     0.118 A 
HETATM    8  C6  UNL     1      32.181   6.142  45.959  1.00  0.00     0.054 A 
HETATM    9  C7  UNL     1      31.350   7.020  46.656  1.00  0.00     0.094 A 
HETATM   10  N2  UNL     1      30.990   6.607  47.960  1.00  0.00    -0.239 NA
HETATM   11  C8  UNL     1      30.024   5.798  48.143  1.00  0.00     0.234 C 
HETATM   12  N3  UNL     1      29.016   4.936  48.530  1.00  0.00    -0.241 NA
HETATM   13  C9  UNL     1      27.743   5.231  48.620  1.00  0.00     0.073 A 
HETATM   14  C10 UNL     1      26.400   4.815  48.922  1.00  0.00     0.071 A 
HETATM   15  C11 UNL     1      25.537   5.793  48.766  1.00  0.00     0.098 A 
HETATM   16  C13 UNL     1      26.211   7.010  48.334  1.00  0.00     0.081 A 
HETATM   17  C17 UNL     1      27.447   6.638  48.271  1.00  0.00     0.025 A 
HETATM   18  C18 UNL     1      28.443   7.654  47.927  1.00  0.00     0.048 C 
HETATM   19  C19 UNL     1      29.258   8.618  48.294  1.00  0.00     0.062 C 
ENDROOT
BRANCH  16  20
HETATM   20  N4  UNL     1      25.661   8.268  48.029  1.00  0.00    -0.324 N 
HETATM   21  C14 UNL     1      25.047   8.574  46.805  1.00  0.00     0.221 C 
HETATM   22  O3  UNL     1      24.893   7.816  45.834  1.00  0.00    -0.273 OA
HETATM   23  H11 UNL     1      25.634   9.095  48.626  1.00  0.00     0.169 HD
BRANCH  21  24
HETATM   24  C15 UNL     1      24.465   9.872  46.445  1.00  0.00     0.098 C 
HETATM   25  C16 UNL     1      25.209  10.595  45.379  1.00  0.00     0.014 C 
ENDBRANCH  21  24
ENDBRANCH  16  20
BRANCH  15  26
HETATM   26  O2  UNL     1      24.227   5.499  49.028  1.00  0.00    -0.354 OA
HETATM   27  C12 UNL     1      23.131   5.618  48.183  1.00  0.00     0.210 C 
ENDBRANCH  15  26
BRANCH  19  28
HETATM   28  N5  UNL     1      28.860   8.507  49.644  1.00  0.00    -0.392 N 
HETATM   29  C20 UNL     1      27.988   9.546  50.107  1.00  0.00     0.146 C 
HETATM   30  H18 UNL     1      28.970   7.884  50.507  1.00  0.00     0.159 HD
ENDBRANCH  19  28
TORSDOF 4
ENDMDL
MODEL 9
REMARK VINA RESULT:      -6.6      5.346      9.374
REMARK  4 active torsions:
REMARK  status: ('A' for Active; 'I' for Inactive)
REMARK    1  A    between atoms: C11_15  and  O2_16 
REMARK    2  A    between atoms: C13_18  and  N4_19 
REMARK       I    between atoms: N4_19  and  C14_20 
REMARK    3  A    between atoms: C14_20  and  C15_22 
REMARK    4  A    between atoms: C19_26  and  N5_27 
ROOT
HETATM    1  C1  UNL     1      23.270   7.758  47.840  1.00  0.00     0.053 C 
HETATM    2  C2  UNL     1      24.055   7.538  48.880  1.00  0.00     0.093 C 
HETATM    3  O1  UNL     1      24.243   7.319  50.259  1.00  0.00    -0.305 OA
HETATM    4  C3  UNL     1      24.265   6.034  50.801  1.00  0.00     0.122 A 
HETATM    5  C4  UNL     1      23.707   5.824  52.053  1.00  0.00     0.155 A 
HETATM    6  N1  UNL     1      23.663   4.637  52.680  1.00  0.00    -0.270 NA
HETATM    7  C5  UNL     1      24.176   3.539  52.113  1.00  0.00     0.118 A 
HETATM    8  C6  UNL     1      24.730   3.738  50.878  1.00  0.00     0.054 A 
HETATM    9  C7  UNL     1      24.820   4.927  50.153  1.00  0.00     0.094 A 
HETATM   10  N2  UNL     1      25.463   4.823  48.898  1.00  0.00    -0.239 NA
HETATM   11  C8  UNL     1      26.732   4.860  48.812  1.00  0.00     0.234 C 
HETATM   12  N3  UNL     1      28.085   4.881  48.529  1.00  0.00    -0.241 NA
HETATM   13  C9  UNL     1      28.843   5.947  48.468  1.00  0.00     0.073 A 
HETATM   14  C10 UNL     1      30.142   6.524  48.250  1.00  0.00     0.071 A 
HETATM   15  C11 UNL     1      30.123   7.833  48.369  1.00  0.00     0.098 A 
HETATM   16  C13 UNL     1      28.781   8.301  48.684  1.00  0.00     0.081 A 
HETATM   17  C17 UNL     1      28.102   7.201  48.726  1.00  0.00     0.025 A 
HETATM   18  C18 UNL     1      26.661   7.303  48.955  1.00  0.00     0.048 C 
HETATM   19  C19 UNL     1      25.443   7.466  48.487  1.00  0.00     0.062 C 
ENDROOT
BRANCH  16  20
HETATM   20  N4  UNL     1      28.330   9.613  48.919  1.00  0.00    -0.324 N 
HETATM   21  C14 UNL     1      28.407  10.645  47.972  1.00  0.00     0.221 C 
HETATM   22  O3  UNL     1      28.865  10.571  46.819  1.00  0.00    -0.273 OA
HETATM   23  H11 UNL     1      27.905   9.980  49.770  1.00  0.00     0.169 HD
BRANCH  21  24
HETATM   24  C15 UNL     1      27.953  12.025  48.175  1.00  0.00     0.098 C 
HETATM   25  C16 UNL     1      28.820  12.820  49.087  1.00  0.00     0.014 C 
ENDBRANCH  21  24
ENDBRANCH  16  20
BRANCH  15  26
HETATM   26  O2  UNL     1      31.313   8.481  48.181  1.00  0.00    -0.354 OA
HETATM   27  C12 UNL     1      32.580   8.094  48.600  1.00  0.00     0.210 C 
ENDBRANCH  15  26
BRANCH  19  28
HETATM   28  N5  UNL     1      25.918   7.613  47.166  1.00  0.00    -0.392 N 
HETATM   29  C20 UNL     1      25.702   8.903  46.582  1.00  0.00     0.146 C 
HETATM   30  H18 UNL     1      26.423   7.079  46.388  1.00  0.00     0.159 HD
ENDBRANCH  19  28
TORSDOF 4
ENDMDL
