MODEL 1
REMARK VINA RESULT:      -9.0      0.000      0.000
REMARK  8 active torsions:
REMARK  status: ('A' for Active; 'I' for Inactive)
REMARK    1  A    between atoms: O1_2  and  C2_3 
REMARK    2  A    between atoms: C2_3  and  C3_4 
REMARK    3  A    between atoms: C3_4  and  C4_5 
REMARK    4  A    between atoms: C3_4  and  N4_30 
REMARK    5  A    between atoms: C4_5  and  C5_6 
REMARK    6  A    between atoms: N3_23  and  C19_24 
REMARK    7  A    between atoms: N4_30  and  C25_31 
REMARK    8  A    between atoms: C25_31  and  C26_32 
ROOT
HETATM    1  C5  UNL     1      23.614   1.774  51.590  1.00  0.00     0.234 C 
HETATM    2  O2  UNL     1      23.433   2.939  50.837  1.00  0.00    -0.319 OA
HETATM    3  C6  UNL     1      24.555   3.737  51.197  1.00  0.00     0.331 A 
HETATM    4  N1  UNL     1      24.303   4.491  52.378  1.00  0.00     0.134 N 
HETATM    5  C7  UNL     1      23.477   5.311  51.375  1.00  0.00     0.315 C 
HETATM    6  C8  UNL     1      24.698   5.034  50.512  1.00  0.00     0.033 A 
HETATM    7  C9  UNL     1      25.659   5.396  49.687  1.00  0.00     0.012 A 
HETATM    8  C10 UNL     1      26.645   4.427  49.471  1.00  0.00    -0.006 A 
HETATM    9  C11 UNL     1      27.522   4.998  48.603  1.00  0.00     0.104 A 
HETATM   10  N2  UNL     1      27.080   6.237  48.322  1.00  0.00    -0.352 N 
HETATM   11  C12 UNL     1      25.937   6.527  48.965  1.00  0.00     0.046 A 
HETATM   12  C13 UNL     1      25.253   7.654  48.903  1.00  0.00     0.030 A 
HETATM   13  C14 UNL     1      25.760   8.717  48.057  1.00  0.00    -0.000 A 
HETATM   14  C15 UNL     1      26.884   8.436  47.421  1.00  0.00    -0.007 A 
HETATM   15  C16 UNL     1      27.701   7.205  47.442  1.00  0.00     0.156 A 
HETATM   16  C17 UNL     1      26.597   3.102  50.128  1.00  0.00     0.044 A 
HETATM   17  C18 UNL     1      25.601   2.795  50.944  1.00  0.00     0.086 A 
HETATM   18  N3  UNL     1      25.102   1.681  51.722  1.00  0.00    -0.318 N 
HETATM   19  H10 UNL     1      25.140   5.059  52.652  1.00  0.00     0.321 HD
ENDROOT
BRANCH   1  20
HETATM   20  C4  UNL     1      22.964   1.818  52.907  1.00  0.00     0.092 C 
BRANCH  20  21
HETATM   21  C3  UNL     1      21.703   1.009  52.949  1.00  0.00     0.248 C 
BRANCH  21  22
HETATM   22  C2  UNL     1      20.537   1.651  52.306  1.00  0.00     0.202 C 
BRANCH  22  23
HETATM   23  O1  UNL     1      20.217   2.912  52.776  1.00  0.00    -0.394 OA
HETATM   24  C1  UNL     1      20.024   3.817  51.712  1.00  0.00     0.201 C 
ENDBRANCH  22  23
ENDBRANCH  21  22
BRANCH  21  25
HETATM   25  N4  UNL     1      21.947  -0.341  52.423  1.00  0.00     0.096 N 
HETATM   26  H25 UNL     1      22.710  -0.205  51.722  1.00  0.00     0.316 HD
BRANCH  25  27
HETATM   27  C25 UNL     1      22.358  -1.276  53.422  1.00  0.00     0.339 C 
BRANCH  27  28
HETATM   28  C26 UNL     1      21.313  -1.252  54.488  1.00  0.00     0.261 C 
HETATM   29  O3  UNL     1      22.109  -1.754  55.280  1.00  0.00    -0.305 OA
ENDBRANCH  27  28
ENDBRANCH  25  27
ENDBRANCH  21  25
ENDBRANCH  20  21
ENDBRANCH   1  20
BRANCH  18  30
HETATM   30  C19 UNL     1      26.058   0.826  52.355  1.00  0.00     0.037 A 
HETATM   31  C20 UNL     1      26.467  -0.467  52.096  1.00  0.00     0.029 A 
HETATM   32  C21 UNL     1      27.420  -1.042  52.887  1.00  0.00     0.002 A 
HETATM   33  C22 UNL     1      27.995  -0.377  53.946  1.00  0.00     0.000 A 
HETATM   34  C23 UNL     1      27.608   0.918  54.233  1.00  0.00     0.002 A 
HETATM   35  C24 UNL     1      26.633   1.518  53.428  1.00  0.00     0.029 A 
ENDBRANCH  18  30
TORSDOF 8
ENDMDL
MODEL 2
REMARK VINA RESULT:      -9.0      0.721      2.228
REMARK  8 active torsions:
REMARK  status: ('A' for Active; 'I' for Inactive)
REMARK    1  A    between atoms: O1_2  and  C2_3 
REMARK    2  A    between atoms: C2_3  and  C3_4 
REMARK    3  A    between atoms: C3_4  and  C4_5 
REMARK    4  A    between atoms: C3_4  and  N4_30 
REMARK    5  A    between atoms: C4_5  and  C5_6 
REMARK    6  A    between atoms: N3_23  and  C19_24 
REMARK    7  A    between atoms: N4_30  and  C25_31 
REMARK    8  A    between atoms: C25_31  and  C26_32 
ROOT
HETATM    1  C5  UNL     1      23.812   1.253  51.757  1.00  0.00     0.234 C 
HETATM    2  O2  UNL     1      23.475   2.405  51.039  1.00  0.00    -0.319 OA
HETATM    3  C6  UNL     1      24.503   3.323  51.393  1.00  0.00     0.331 A 
HETATM    4  N1  UNL     1      24.194   4.015  52.598  1.00  0.00     0.134 N 
HETATM    5  C7  UNL     1      23.251   4.753  51.636  1.00  0.00     0.315 C 
HETATM    6  C8  UNL     1      24.474   4.643  50.739  1.00  0.00     0.033 A 
HETATM    7  C9  UNL     1      25.364   5.135  49.901  1.00  0.00     0.012 A 
HETATM    8  C10 UNL     1      26.452   4.296  49.639  1.00  0.00    -0.006 A 
HETATM    9  C11 UNL     1      27.233   4.986  48.766  1.00  0.00     0.104 A 
HETATM   10  N2  UNL     1      26.640   6.170  48.527  1.00  0.00    -0.352 N 
HETATM   11  C12 UNL     1      25.488   6.307  49.202  1.00  0.00     0.046 A 
HETATM   12  C13 UNL     1      24.674   7.346  49.185  1.00  0.00     0.030 A 
HETATM   13  C14 UNL     1      25.030   8.481  48.354  1.00  0.00    -0.000 A 
HETATM   14  C15 UNL     1      26.162   8.350  47.687  1.00  0.00    -0.007 A 
HETATM   15  C16 UNL     1      27.120   7.225  47.658  1.00  0.00     0.156 A 
HETATM   16  C17 UNL     1      26.578   2.959  50.263  1.00  0.00     0.044 A 
HETATM   17  C18 UNL     1      25.647   2.518  51.093  1.00  0.00     0.086 A 
HETATM   18  N3  UNL     1      25.303   1.335  51.853  1.00  0.00    -0.318 N 
HETATM   19  H10 UNL     1      24.964   4.672  52.868  1.00  0.00     0.321 HD
ENDROOT
BRANCH   1  20
HETATM   20  C4  UNL     1      23.195   1.191  53.089  1.00  0.00     0.092 C 
BRANCH  20  21
HETATM   21  C3  UNL     1      22.076   0.194  53.154  1.00  0.00     0.248 C 
BRANCH  21  22
HETATM   22  C2  UNL     1      21.465   0.040  54.491  1.00  0.00     0.202 C 
BRANCH  22  23
HETATM   23  O1  UNL     1      21.579  -1.216  55.056  1.00  0.00    -0.394 OA
HETATM   24  C1  UNL     1      22.911  -1.484  55.437  1.00  0.00     0.201 C 
ENDBRANCH  22  23
ENDBRANCH  21  22
BRANCH  21  25
HETATM   25  N4  UNL     1      21.074   0.488  52.121  1.00  0.00     0.096 N 
HETATM   26  H25 UNL     1      20.723  -0.454  51.834  1.00  0.00     0.316 HD
BRANCH  25  27
HETATM   27  C25 UNL     1      19.992   1.294  52.588  1.00  0.00     0.339 C 
BRANCH  27  28
HETATM   28  C26 UNL     1      19.979   2.526  51.744  1.00  0.00     0.261 C 
HETATM   29  O3  UNL     1      20.109   3.219  52.752  1.00  0.00    -0.305 OA
ENDBRANCH  27  28
ENDBRANCH  25  27
ENDBRANCH  21  25
ENDBRANCH  20  21
ENDBRANCH   1  20
BRANCH  18  30
HETATM   30  C19 UNL     1      26.369   0.586  52.443  1.00  0.00     0.037 A 
HETATM   31  C20 UNL     1      26.810  -0.709  52.259  1.00  0.00     0.029 A 
HETATM   32  C21 UNL     1      27.878  -1.164  52.979  1.00  0.00     0.002 A 
HETATM   33  C22 UNL     1      28.539  -0.374  53.891  1.00  0.00     0.000 A 
HETATM   34  C23 UNL     1      28.123   0.927  54.100  1.00  0.00     0.002 A 
HETATM   35  C24 UNL     1      27.030   1.405  53.367  1.00  0.00     0.029 A 
ENDBRANCH  18  30
TORSDOF 8
ENDMDL
MODEL 3
REMARK VINA RESULT:      -8.6      2.339      7.210
REMARK  8 active torsions:
REMARK  status: ('A' for Active; 'I' for Inactive)
REMARK    1  A    between atoms: O1_2  and  C2_3 
REMARK    2  A    between atoms: C2_3  and  C3_4 
REMARK    3  A    between atoms: C3_4  and  C4_5 
REMARK    4  A    between atoms: C3_4  and  N4_30 
REMARK    5  A    between atoms: C4_5  and  C5_6 
REMARK    6  A    between atoms: N3_23  and  C19_24 
REMARK    7  A    between atoms: N4_30  and  C25_31 
REMARK    8  A    between atoms: C25_31  and  C26_32 
ROOT
HETATM    1  C5  UNL     1      24.309   2.939  52.138  1.00  0.00     0.234 C 
HETATM    2  O2  UNL     1      22.916   2.926  52.007  1.00  0.00    -0.319 OA
HETATM    3  C6  UNL     1      22.636   1.580  51.640  1.00  0.00     0.331 A 
HETATM    4  N1  UNL     1      22.744   1.388  50.234  1.00  0.00     0.134 N 
HETATM    5  C7  UNL     1      21.397   2.125  50.284  1.00  0.00     0.315 C 
HETATM    6  C8  UNL     1      21.217   1.212  51.486  1.00  0.00     0.033 A 
HETATM    7  C9  UNL     1      20.533   0.359  52.221  1.00  0.00     0.012 A 
HETATM    8  C10 UNL     1      21.265  -0.260  53.239  1.00  0.00    -0.006 A 
HETATM    9  C11 UNL     1      20.382  -1.084  53.863  1.00  0.00     0.104 A 
HETATM   10  N2  UNL     1      19.193  -0.960  53.247  1.00  0.00    -0.352 N 
HETATM   11  C12 UNL     1      19.236  -0.084  52.231  1.00  0.00     0.046 A 
HETATM   12  C13 UNL     1      18.242   0.259  51.433  1.00  0.00     0.030 A 
HETATM   13  C14 UNL     1      16.947  -0.357  51.649  1.00  0.00    -0.000 A 
HETATM   14  C15 UNL     1      16.899  -1.220  52.648  1.00  0.00    -0.007 A 
HETATM   15  C16 UNL     1      17.963  -1.651  53.578  1.00  0.00     0.156 A 
HETATM   16  C17 UNL     1      22.700   0.031  53.460  1.00  0.00     0.044 A 
HETATM   17  C18 UNL     1      23.331   0.903  52.691  1.00  0.00     0.086 A 
HETATM   18  N3  UNL     1      24.625   1.538  52.559  1.00  0.00    -0.318 N 
HETATM   19  H10 UNL     1      22.560   0.391  49.971  1.00  0.00     0.321 HD
ENDROOT
BRANCH   1  20
HETATM   20  C4  UNL     1      25.012   3.294  50.897  1.00  0.00     0.092 C 
BRANCH  20  21
HETATM   21  C3  UNL     1      24.892   4.753  50.570  1.00  0.00     0.248 C 
BRANCH  21  22
HETATM   22  C2  UNL     1      24.421   5.041  49.200  1.00  0.00     0.202 C 
BRANCH  22  23
HETATM   23  O1  UNL     1      23.605   4.078  48.635  1.00  0.00    -0.394 OA
HETATM   24  C1  UNL     1      22.572   4.668  47.876  1.00  0.00     0.201 C 
ENDBRANCH  22  23
ENDBRANCH  21  22
BRANCH  21  25
HETATM   25  N4  UNL     1      24.080   5.437  51.587  1.00  0.00     0.096 N 
HETATM   26  H25 UNL     1      24.782   5.779  52.282  1.00  0.00     0.316 HD
BRANCH  25  27
HETATM   27  C25 UNL     1      23.325   6.533  51.070  1.00  0.00     0.339 C 
BRANCH  27  28
HETATM   28  C26 UNL     1      21.885   6.200  51.286  1.00  0.00     0.261 C 
HETATM   29  O3  UNL     1      21.559   7.252  50.736  1.00  0.00    -0.305 OA
ENDBRANCH  27  28
ENDBRANCH  25  27
ENDBRANCH  21  25
ENDBRANCH  20  21
ENDBRANCH   1  20
BRANCH  18  30
HETATM   30  C19 UNL     1      25.787   0.758  52.852  1.00  0.00     0.037 A 
HETATM   31  C20 UNL     1      26.390  -0.298  52.197  1.00  0.00     0.029 A 
HETATM   32  C21 UNL     1      27.517  -0.860  52.724  1.00  0.00     0.002 A 
HETATM   33  C22 UNL     1      28.083  -0.413  53.896  1.00  0.00     0.000 A 
HETATM   34  C23 UNL     1      27.505   0.641  54.577  1.00  0.00     0.002 A 
HETATM   35  C24 UNL     1      26.349   1.227  54.046  1.00  0.00     0.029 A 
ENDBRANCH  18  30
TORSDOF 8
ENDMDL
MODEL 4
REMARK VINA RESULT:      -8.6      2.511      7.054
REMARK  8 active torsions:
REMARK  status: ('A' for Active; 'I' for Inactive)
REMARK    1  A    between atoms: O1_2  and  C2_3 
REMARK    2  A    between atoms: C2_3  and  C3_4 
REMARK    3  A    between atoms: C3_4  and  C4_5 
REMARK    4  A    between atoms: C3_4  and  N4_30 
REMARK    5  A    between atoms: C4_5  and  C5_6 
REMARK    6  A    between atoms: N3_23  and  C19_24 
REMARK    7  A    between atoms: N4_30  and  C25_31 
REMARK    8  A    between atoms: C25_31  and  C26_32 
ROOT
HETATM    1  C5  UNL     1      25.907   1.732  51.280  1.00  0.00     0.234 C 
HETATM    2  O2  UNL     1      24.841   0.885  51.597  1.00  0.00    -0.319 OA
HETATM    3  C6  UNL     1      23.744   1.780  51.740  1.00  0.00     0.331 A 
HETATM    4  N1  UNL     1      23.675   2.316  53.057  1.00  0.00     0.134 N 
HETATM    5  C7  UNL     1      23.136   0.904  53.332  1.00  0.00     0.315 C 
HETATM    6  C8  UNL     1      22.426   1.182  52.016  1.00  0.00     0.033 A 
HETATM    7  C9  UNL     1      21.364   1.203  51.236  1.00  0.00     0.012 A 
HETATM    8  C10 UNL     1      21.534   1.889  50.029  1.00  0.00    -0.006 A 
HETATM    9  C11 UNL     1      20.339   1.787  49.389  1.00  0.00     0.104 A 
HETATM   10  N2  UNL     1      19.507   1.080  50.176  1.00  0.00    -0.352 N 
HETATM   11  C12 UNL     1      20.093   0.698  51.322  1.00  0.00     0.046 A 
HETATM   12  C13 UNL     1      19.548  -0.002  52.299  1.00  0.00     0.030 A 
HETATM   13  C14 UNL     1      18.169  -0.425  52.152  1.00  0.00    -0.000 A 
HETATM   14  C15 UNL     1      17.588  -0.053  51.025  1.00  0.00    -0.007 A 
HETATM   15  C16 UNL     1      18.130   0.728  49.894  1.00  0.00     0.156 A 
HETATM   16  C17 UNL     1      22.816   2.538  49.672  1.00  0.00     0.044 A 
HETATM   17  C18 UNL     1      23.849   2.478  50.496  1.00  0.00     0.086 A 
HETATM   18  N3  UNL     1      25.242   2.866  50.565  1.00  0.00    -0.318 N 
HETATM   19  H10 UNL     1      22.881   2.992  53.152  1.00  0.00     0.321 HD
ENDROOT
BRANCH   1  20
HETATM   20  C4  UNL     1      26.649   2.207  52.457  1.00  0.00     0.092 C 
BRANCH  20  21
HETATM   21  C3  UNL     1      27.530   1.144  53.043  1.00  0.00     0.248 C 
BRANCH  21  22
HETATM   22  C2  UNL     1      27.396   0.970  54.504  1.00  0.00     0.202 C 
BRANCH  22  23
HETATM   23  O1  UNL     1      28.580   0.981  55.217  1.00  0.00    -0.394 OA
HETATM   24  C1  UNL     1      29.536   1.818  54.603  1.00  0.00     0.201 C 
ENDBRANCH  22  23
ENDBRANCH  21  22
BRANCH  21  25
HETATM   25  N4  UNL     1      27.350  -0.122  52.319  1.00  0.00     0.096 N 
HETATM   26  H25 UNL     1      28.297  -0.324  51.925  1.00  0.00     0.316 HD
BRANCH  25  27
HETATM   27  C25 UNL     1      26.924  -1.200  53.152  1.00  0.00     0.339 C 
BRANCH  27  28
HETATM   28  C26 UNL     1      27.127  -2.454  52.368  1.00  0.00     0.261 C 
HETATM   29  O3  UNL     1      28.051  -2.772  53.114  1.00  0.00    -0.305 OA
ENDBRANCH  27  28
ENDBRANCH  25  27
ENDBRANCH  21  25
ENDBRANCH  20  21
ENDBRANCH   1  20
BRANCH  18  30
HETATM   30  C19 UNL     1      25.619   4.112  49.974  1.00  0.00     0.037 A 
HETATM   31  C20 UNL     1      25.020   5.357  49.961  1.00  0.00     0.029 A 
HETATM   32  C21 UNL     1      25.624   6.387  49.299  1.00  0.00     0.002 A 
HETATM   33  C22 UNL     1      26.820   6.233  48.636  1.00  0.00     0.000 A 
HETATM   34  C23 UNL     1      27.446   5.001  48.629  1.00  0.00     0.002 A 
HETATM   35  C24 UNL     1      26.837   3.938  49.305  1.00  0.00     0.029 A 
ENDBRANCH  18  30
TORSDOF 8
ENDMDL
MODEL 5
REMARK VINA RESULT:      -8.3      2.543      7.393
REMARK  8 active torsions:
REMARK  status: ('A' for Active; 'I' for Inactive)
REMARK    1  A    between atoms: O1_2  and  C2_3 
REMARK    2  A    between atoms: C2_3  and  C3_4 
REMARK    3  A    between atoms: C3_4  and  C4_5 
REMARK    4  A    between atoms: C3_4  and  N4_30 
REMARK    5  A    between atoms: C4_5  and  C5_6 
REMARK    6  A    between atoms: N3_23  and  C19_24 
REMARK    7  A    between atoms: N4_30  and  C25_31 
REMARK    8  A    between atoms: C25_31  and  C26_32 
ROOT
HETATM    1  C5  UNL     1      25.396   1.214  51.662  1.00  0.00     0.234 C 
HETATM    2  O2  UNL     1      24.283   0.410  51.928  1.00  0.00    -0.319 OA
HETATM    3  C6  UNL     1      23.215   1.346  52.002  1.00  0.00     0.331 A 
HETATM    4  N1  UNL     1      23.094   1.901  53.307  1.00  0.00     0.134 N 
HETATM    5  C7  UNL     1      22.488   0.514  53.567  1.00  0.00     0.315 C 
HETATM    6  C8  UNL     1      21.862   0.801  52.211  1.00  0.00     0.033 A 
HETATM    7  C9  UNL     1      20.845   0.850  51.374  1.00  0.00     0.012 A 
HETATM    8  C10 UNL     1      21.107   1.514  50.171  1.00  0.00    -0.006 A 
HETATM    9  C11 UNL     1      19.945   1.447  49.468  1.00  0.00     0.104 A 
HETATM   10  N2  UNL     1      19.046   0.782  50.215  1.00  0.00    -0.352 N 
HETATM   11  C12 UNL     1      19.554   0.394  51.396  1.00  0.00     0.046 A 
HETATM   12  C13 UNL     1      18.931  -0.273  52.349  1.00  0.00     0.030 A 
HETATM   13  C14 UNL     1      17.547  -0.647  52.131  1.00  0.00    -0.000 A 
HETATM   14  C15 UNL     1      17.043  -0.269  50.970  1.00  0.00    -0.007 A 
HETATM   15  C16 UNL     1      17.674   0.476  49.862  1.00  0.00     0.156 A 
HETATM   16  C17 UNL     1      22.429   2.111  49.877  1.00  0.00     0.044 A 
HETATM   17  C18 UNL     1      23.413   2.024  50.757  1.00  0.00     0.086 A 
HETATM   18  N3  UNL     1      24.813   2.362  50.899  1.00  0.00    -0.318 N 
HETATM   19  H10 UNL     1      22.322   2.608  53.350  1.00  0.00     0.321 HD
ENDROOT
BRANCH   1  20
HETATM   20  C4  UNL     1      26.090   1.676  52.872  1.00  0.00     0.092 C 
BRANCH  20  21
HETATM   21  C3  UNL     1      26.660   0.542  53.671  1.00  0.00     0.248 C 
BRANCH  21  22
HETATM   22  C2  UNL     1      27.294  -0.522  52.865  1.00  0.00     0.202 C 
BRANCH  22  23
HETATM   23  O1  UNL     1      27.042  -1.816  53.282  1.00  0.00    -0.394 OA
HETATM   24  C1  UNL     1      28.036  -2.702  52.816  1.00  0.00     0.201 C 
ENDBRANCH  22  23
ENDBRANCH  21  22
BRANCH  21  25
HETATM   25  N4  UNL     1      27.561   1.056  54.712  1.00  0.00     0.096 N 
HETATM   26  H25 UNL     1      27.250   0.564  55.580  1.00  0.00     0.316 HD
BRANCH  25  27
HETATM   27  C25 UNL     1      28.939   0.784  54.459  1.00  0.00     0.339 C 
BRANCH  27  28
HETATM   28  C26 UNL     1      29.699   2.004  54.863  1.00  0.00     0.261 C 
HETATM   29  O3  UNL     1      29.011   2.685  54.103  1.00  0.00    -0.305 OA
ENDBRANCH  27  28
ENDBRANCH  25  27
ENDBRANCH  21  25
ENDBRANCH  20  21
ENDBRANCH   1  20
BRANCH  18  30
HETATM   30  C19 UNL     1      25.268   3.586  50.316  1.00  0.00     0.037 A 
HETATM   31  C20 UNL     1      24.755   4.868  50.323  1.00  0.00     0.029 A 
HETATM   32  C21 UNL     1      25.422   5.861  49.663  1.00  0.00     0.002 A 
HETATM   33  C22 UNL     1      26.596   5.634  48.984  1.00  0.00     0.000 A 
HETATM   34  C23 UNL     1      27.136   4.362  48.957  1.00  0.00     0.002 A 
HETATM   35  C24 UNL     1      26.463   3.335  49.630  1.00  0.00     0.029 A 
ENDBRANCH  18  30
TORSDOF 8
ENDMDL
MODEL 6
REMARK VINA RESULT:      -7.9      3.075      6.624
REMARK  8 active torsions:
REMARK  status: ('A' for Active; 'I' for Inactive)
REMARK    1  A    between atoms: O1_2  and  C2_3 
REMARK    2  A    between atoms: C2_3  and  C3_4 
REMARK    3  A    between atoms: C3_4  and  C4_5 
REMARK    4  A    between atoms: C3_4  and  N4_30 
REMARK    5  A    between atoms: C4_5  and  C5_6 
REMARK    6  A    between atoms: N3_23  and  C19_24 
REMARK    7  A    between atoms: N4_30  and  C25_31 
REMARK    8  A    between atoms: C25_31  and  C26_32 
ROOT
HETATM    1  C5  UNL     1      21.776   1.617  50.212  1.00  0.00     0.234 C 
HETATM    2  O2  UNL     1      23.135   1.922  50.338  1.00  0.00    -0.319 OA
HETATM    3  C6  UNL     1      23.330   1.971  51.747  1.00  0.00     0.331 A 
HETATM    4  N1  UNL     1      23.018   3.255  52.274  1.00  0.00     0.134 N 
HETATM    5  C7  UNL     1      24.374   3.572  51.627  1.00  0.00     0.315 C 
HETATM    6  C8  UNL     1      24.703   2.212  52.224  1.00  0.00     0.033 A 
HETATM    7  C9  UNL     1      25.466   1.383  52.907  1.00  0.00     0.012 A 
HETATM    8  C10 UNL     1      24.872   0.154  53.211  1.00  0.00    -0.006 A 
HETATM    9  C11 UNL     1      25.815  -0.536  53.905  1.00  0.00     0.104 A 
HETATM   10  N2  UNL     1      26.908   0.243  54.006  1.00  0.00    -0.352 N 
HETATM   11  C12 UNL     1      26.740   1.433  53.407  1.00  0.00     0.046 A 
HETATM   12  C13 UNL     1      27.618   2.416  53.331  1.00  0.00     0.030 A 
HETATM   13  C14 UNL     1      28.916   2.224  53.948  1.00  0.00    -0.000 A 
HETATM   14  C15 UNL     1      29.086   1.054  54.538  1.00  0.00    -0.007 A 
HETATM   15  C16 UNL     1      28.155  -0.087  54.664  1.00  0.00     0.156 A 
HETATM   16  C17 UNL     1      23.490  -0.174  52.792  1.00  0.00     0.044 A 
HETATM   17  C18 UNL     1      22.776   0.700  52.102  1.00  0.00     0.086 A 
HETATM   18  N3  UNL     1      21.491   0.817  51.445  1.00  0.00    -0.318 N 
HETATM   19  H10 UNL     1      23.140   3.280  53.314  1.00  0.00     0.321 HD
ENDROOT
BRANCH   1  20
HETATM   20  C4  UNL     1      20.912   2.803  50.135  1.00  0.00     0.092 C 
BRANCH  20  21
HETATM   21  C3  UNL     1      21.172   3.618  48.904  1.00  0.00     0.248 C 
BRANCH  21  22
HETATM   22  C2  UNL     1      19.957   4.019  48.164  1.00  0.00     0.202 C 
BRANCH  22  23
HETATM   23  O1  UNL     1      19.235   2.985  47.597  1.00  0.00    -0.394 OA
HETATM   24  C1  UNL     1      17.864   3.090  47.912  1.00  0.00     0.201 C 
ENDBRANCH  22  23
ENDBRANCH  21  22
BRANCH  21  25
HETATM   25  N4  UNL     1      22.025   4.769  49.227  1.00  0.00     0.096 N 
HETATM   26  H25 UNL     1      22.511   4.984  48.327  1.00  0.00     0.316 HD
BRANCH  25  27
HETATM   27  C25 UNL     1      21.296   5.912  49.677  1.00  0.00     0.339 C 
BRANCH  27  28
HETATM   28  C26 UNL     1      22.166   6.614  50.667  1.00  0.00     0.261 C 
HETATM   29  O3  UNL     1      21.706   5.915  51.568  1.00  0.00    -0.305 OA
ENDBRANCH  27  28
ENDBRANCH  25  27
ENDBRANCH  21  25
ENDBRANCH  20  21
ENDBRANCH   1  20
BRANCH  18  30
HETATM   30  C19 UNL     1      20.365   0.185  52.060  1.00  0.00     0.037 A 
HETATM   31  C20 UNL     1      20.193  -0.418  53.291  1.00  0.00     0.029 A 
HETATM   32  C21 UNL     1      18.977  -0.949  53.614  1.00  0.00     0.002 A 
HETATM   33  C22 UNL     1      17.905  -0.908  52.753  1.00  0.00     0.000 A 
HETATM   34  C23 UNL     1      18.043  -0.313  51.514  1.00  0.00     0.002 A 
HETATM   35  C24 UNL     1      19.285   0.236  51.171  1.00  0.00     0.029 A 
ENDBRANCH  18  30
TORSDOF 8
ENDMDL
MODEL 7
REMARK VINA RESULT:      -7.7      2.537      8.563
REMARK  8 active torsions:
REMARK  status: ('A' for Active; 'I' for Inactive)
REMARK    1  A    between atoms: O1_2  and  C2_3 
REMARK    2  A    between atoms: C2_3  and  C3_4 
REMARK    3  A    between atoms: C3_4  and  C4_5 
REMARK    4  A    between atoms: C3_4  and  N4_30 
REMARK    5  A    between atoms: C4_5  and  C5_6 
REMARK    6  A    between atoms: N3_23  and  C19_24 
REMARK    7  A    between atoms: N4_30  and  C25_31 
REMARK    8  A    between atoms: C25_31  and  C26_32 
ROOT
HETATM    1  C5  UNL     1      24.972   4.034  49.420  1.00  0.00     0.234 C 
HETATM    2  O2  UNL     1      24.948   2.828  50.127  1.00  0.00    -0.319 OA
HETATM    3  C6  UNL     1      24.062   3.099  51.207  1.00  0.00     0.331 A 
HETATM    4  N1  UNL     1      24.742   3.699  52.304  1.00  0.00     0.134 N 
HETATM    5  C7  UNL     1      25.220   2.249  52.474  1.00  0.00     0.315 C 
HETATM    6  C8  UNL     1      23.764   1.984  52.123  1.00  0.00     0.033 A 
HETATM    7  C9  UNL     1      22.600   1.395  52.307  1.00  0.00     0.012 A 
HETATM    8  C10 UNL     1      21.549   1.920  51.548  1.00  0.00    -0.006 A 
HETATM    9  C11 UNL     1      20.460   1.178  51.886  1.00  0.00     0.104 A 
HETATM   10  N2  UNL     1      20.846   0.266  52.796  1.00  0.00    -0.352 N 
HETATM   11  C12 UNL     1      22.154   0.360  53.087  1.00  0.00     0.046 A 
HETATM   12  C13 UNL     1      22.836  -0.385  53.936  1.00  0.00     0.030 A 
HETATM   13  C14 UNL     1      22.129  -1.431  54.650  1.00  0.00    -0.000 A 
HETATM   14  C15 UNL     1      20.842  -1.528  54.367  1.00  0.00    -0.007 A 
HETATM   15  C16 UNL     1      20.015  -0.734  53.434  1.00  0.00     0.156 A 
HETATM   16  C17 UNL     1      21.746   3.051  50.614  1.00  0.00     0.044 A 
HETATM   17  C18 UNL     1      22.942   3.598  50.469  1.00  0.00     0.086 A 
HETATM   18  N3  UNL     1      23.615   4.610  49.683  1.00  0.00    -0.318 N 
HETATM   19  H10 UNL     1      24.082   3.919  53.087  1.00  0.00     0.321 HD
ENDROOT
BRANCH   1  20
HETATM   20  C4  UNL     1      26.034   4.950  49.858  1.00  0.00     0.092 C 
BRANCH  20  21
HETATM   21  C3  UNL     1      26.750   5.586  48.704  1.00  0.00     0.248 C 
BRANCH  21  22
HETATM   22  C2  UNL     1      26.379   6.993  48.449  1.00  0.00     0.202 C 
BRANCH  22  23
HETATM   23  O1  UNL     1      25.920   7.698  49.546  1.00  0.00    -0.394 OA
HETATM   24  C1  UNL     1      26.881   8.630  49.991  1.00  0.00     0.201 C 
ENDBRANCH  22  23
ENDBRANCH  21  22
BRANCH  21  25
HETATM   25  N4  UNL     1      28.202   5.417  48.852  1.00  0.00     0.096 N 
HETATM   26  H25 UNL     1      28.357   4.398  48.680  1.00  0.00     0.316 HD
BRANCH  25  27
HETATM   27  C25 UNL     1      28.964   6.193  47.925  1.00  0.00     0.339 C 
BRANCH  27  28
HETATM   28  C26 UNL     1      30.251   6.528  48.604  1.00  0.00     0.261 C 
HETATM   29  O3  UNL     1      30.014   7.727  48.462  1.00  0.00    -0.305 OA
ENDBRANCH  27  28
ENDBRANCH  25  27
ENDBRANCH  21  25
ENDBRANCH  20  21
ENDBRANCH   1  20
BRANCH  18  30
HETATM   30  C19 UNL     1      22.889   5.799  49.360  1.00  0.00     0.037 A 
HETATM   31  C20 UNL     1      22.421   6.308  48.164  1.00  0.00     0.029 A 
HETATM   32  C21 UNL     1      21.743   7.494  48.159  1.00  0.00     0.002 A 
HETATM   33  C22 UNL     1      21.506   8.210  49.309  1.00  0.00     0.000 A 
HETATM   34  C23 UNL     1      21.960   7.729  50.522  1.00  0.00     0.002 A 
HETATM   35  C24 UNL     1      22.655   6.514  50.541  1.00  0.00     0.029 A 
ENDBRANCH  18  30
TORSDOF 8
ENDMDL
MODEL 8
REMARK VINA RESULT:      -7.5      2.897      6.690
REMARK  8 active torsions:
REMARK  status: ('A' for Active; 'I' for Inactive)
REMARK    1  A    between atoms: O1_2  and  C2_3 
REMARK    2  A    between atoms: C2_3  and  C3_4 
REMARK    3  A    between atoms: C3_4  and  C4_5 
REMARK    4  A    between atoms: C3_4  and  N4_30 
REMARK    5  A    between atoms: C4_5  and  C5_6 
REMARK    6  A    between atoms: N3_23  and  C19_24 
REMARK    7  A    between atoms: N4_30  and  C25_31 
REMARK    8  A    between atoms: C25_31  and  C26_32 
ROOT
HETATM    1  C5  UNL     1      24.163   1.624  51.592  1.00  0.00     0.234 C 
HETATM    2  O2  UNL     1      22.809   1.276  51.612  1.00  0.00    -0.319 OA
HETATM    3  C6  UNL     1      22.157   2.482  51.231  1.00  0.00     0.331 A 
HETATM    4  N1  UNL     1      21.929   3.330  52.351  1.00  0.00     0.134 N 
HETATM    5  C7  UNL     1      20.828   2.287  52.597  1.00  0.00     0.315 C 
HETATM    6  C8  UNL     1      20.691   2.432  51.090  1.00  0.00     0.033 A 
HETATM    7  C9  UNL     1      19.992   2.593  49.984  1.00  0.00     0.012 A 
HETATM    8  C10 UNL     1      20.753   2.854  48.840  1.00  0.00    -0.006 A 
HETATM    9  C11 UNL     1      19.850   2.982  47.832  1.00  0.00     0.104 A 
HETATM   10  N2  UNL     1      18.622   2.807  48.352  1.00  0.00    -0.352 N 
HETATM   11  C12 UNL     1      18.658   2.565  49.672  1.00  0.00     0.046 A 
HETATM   12  C13 UNL     1      17.629   2.352  50.471  1.00  0.00     0.030 A 
HETATM   13  C14 UNL     1      16.298   2.374  49.894  1.00  0.00    -0.000 A 
HETATM   14  C15 UNL     1      16.257   2.611  48.595  1.00  0.00    -0.007 A 
HETATM   15  C16 UNL     1      17.360   2.857  47.642  1.00  0.00     0.156 A 
HETATM   16  C17 UNL     1      22.230   2.941  48.886  1.00  0.00     0.044 A 
HETATM   17  C18 UNL     1      22.876   2.765  50.027  1.00  0.00     0.086 A 
HETATM   18  N3  UNL     1      24.227   2.688  50.542  1.00  0.00    -0.318 N 
HETATM   19  H10 UNL     1      21.470   4.226  52.063  1.00  0.00     0.321 HD
ENDROOT
BRANCH   1  20
HETATM   20  C4  UNL     1      24.661   2.119  52.883  1.00  0.00     0.092 C 
BRANCH  20  21
HETATM   21  C3  UNL     1      25.403   1.065  53.651  1.00  0.00     0.248 C 
BRANCH  21  22
HETATM   22  C2  UNL     1      25.642  -0.187  52.904  1.00  0.00     0.202 C 
BRANCH  22  23
HETATM   23  O1  UNL     1      26.347  -1.162  53.584  1.00  0.00    -0.394 OA
HETATM   24  C1  UNL     1      27.171  -1.899  52.707  1.00  0.00     0.201 C 
ENDBRANCH  22  23
ENDBRANCH  21  22
BRANCH  21  25
HETATM   25  N4  UNL     1      26.644   1.621  54.207  1.00  0.00     0.096 N 
HETATM   26  H25 UNL     1      27.072   0.818  54.720  1.00  0.00     0.316 HD
BRANCH  25  27
HETATM   27  C25 UNL     1      27.547   2.108  53.214  1.00  0.00     0.339 C 
BRANCH  27  28
HETATM   28  C26 UNL     1      28.906   2.108  53.833  1.00  0.00     0.261 C 
HETATM   29  O3  UNL     1      28.502   1.358  54.721  1.00  0.00    -0.305 OA
ENDBRANCH  27  28
ENDBRANCH  25  27
ENDBRANCH  21  25
ENDBRANCH  20  21
ENDBRANCH   1  20
BRANCH  18  30
HETATM   30  C19 UNL     1      25.212   3.551  49.967  1.00  0.00     0.037 A 
HETATM   31  C20 UNL     1      26.470   3.314  49.449  1.00  0.00     0.029 A 
HETATM   32  C21 UNL     1      27.201   4.357  48.957  1.00  0.00     0.002 A 
HETATM   33  C22 UNL     1      26.730   5.650  48.957  1.00  0.00     0.000 A 
HETATM   34  C23 UNL     1      25.476   5.922  49.468  1.00  0.00     0.002 A 
HETATM   35  C24 UNL     1      24.715   4.861  49.974  1.00  0.00     0.029 A 
ENDBRANCH  18  30
TORSDOF 8
ENDMDL
MODEL 9
REMARK VINA RESULT:      -7.5      3.190      6.619
REMARK  8 active torsions:
REMARK  status: ('A' for Active; 'I' for Inactive)
REMARK    1  A    between atoms: O1_2  and  C2_3 
REMARK    2  A    between atoms: C2_3  and  C3_4 
REMARK    3  A    between atoms: C3_4  and  C4_5 
REMARK    4  A    between atoms: C3_4  and  N4_30 
REMARK    5  A    between atoms: C4_5  and  C5_6 
REMARK    6  A    between atoms: N3_23  and  C19_24 
REMARK    7  A    between atoms: N4_30  and  C25_31 
REMARK    8  A    between atoms: C25_31  and  C26_32 
ROOT
HETATM    1  C5  UNL     1      21.779   2.205  50.127  1.00  0.00     0.234 C 
HETATM    2  O2  UNL     1      23.140   2.472  50.305  1.00  0.00    -0.319 OA
HETATM    3  C6  UNL     1      23.327   2.292  51.704  1.00  0.00     0.331 A 
HETATM    4  N1  UNL     1      23.025   3.479  52.430  1.00  0.00     0.134 N 
HETATM    5  C7  UNL     1      24.389   3.880  51.847  1.00  0.00     0.315 C 
HETATM    6  C8  UNL     1      24.700   2.439  52.219  1.00  0.00     0.033 A 
HETATM    7  C9  UNL     1      25.450   1.503  52.764  1.00  0.00     0.012 A 
HETATM    8  C10 UNL     1      24.842   0.247  52.866  1.00  0.00    -0.006 A 
HETATM    9  C11 UNL     1      25.774  -0.555  53.444  1.00  0.00     0.104 A 
HETATM   10  N2  UNL     1      26.874   0.186  53.673  1.00  0.00    -0.352 N 
HETATM   11  C12 UNL     1      26.722   1.458  53.272  1.00  0.00     0.046 A 
HETATM   12  C13 UNL     1      27.610   2.431  53.357  1.00  0.00     0.030 A 
HETATM   13  C14 UNL     1      28.903   2.129  53.941  1.00  0.00    -0.000 A 
HETATM   14  C15 UNL     1      29.057   0.878  54.337  1.00  0.00    -0.007 A 
HETATM   15  C16 UNL     1      28.114  -0.258  54.275  1.00  0.00     0.156 A 
HETATM   16  C17 UNL     1      23.460   0.006  52.394  1.00  0.00     0.044 A 
HETATM   17  C18 UNL     1      22.758   0.987  51.850  1.00  0.00     0.086 A 
HETATM   18  N3  UNL     1      21.478   1.221  51.215  1.00  0.00    -0.318 N 
HETATM   19  H10 UNL     1      23.141   3.335  53.461  1.00  0.00     0.321 HD
ENDROOT
BRANCH   1  20
HETATM   20  C4  UNL     1      20.928   3.397  50.237  1.00  0.00     0.092 C 
BRANCH  20  21
HETATM   21  C3  UNL     1      21.012   4.273  49.022  1.00  0.00     0.248 C 
BRANCH  21  22
HETATM   22  C2  UNL     1      21.869   5.466  49.182  1.00  0.00     0.202 C 
BRANCH  22  23
HETATM   23  O1  UNL     1      22.097   5.866  50.486  1.00  0.00    -0.394 OA
HETATM   24  C1  UNL     1      21.520   7.129  50.739  1.00  0.00     0.201 C 
ENDBRANCH  22  23
ENDBRANCH  21  22
BRANCH  21  25
HETATM   25  N4  UNL     1      21.391   3.477  47.847  1.00  0.00     0.096 N 
HETATM   26  H25 UNL     1      21.343   2.489  48.184  1.00  0.00     0.316 HD
BRANCH  25  27
HETATM   27  C25 UNL     1      20.518   3.657  46.731  1.00  0.00     0.339 C 
BRANCH  27  28
HETATM   28  C26 UNL     1      21.388   3.873  45.537  1.00  0.00     0.261 C 
HETATM   29  O3  UNL     1      22.266   3.181  46.050  1.00  0.00    -0.305 OA
ENDBRANCH  27  28
ENDBRANCH  25  27
ENDBRANCH  21  25
ENDBRANCH  20  21
ENDBRANCH   1  20
BRANCH  18  30
HETATM   30  C19 UNL     1      20.343   0.511  51.716  1.00  0.00     0.037 A 
HETATM   31  C20 UNL     1      19.094   0.257  51.184  1.00  0.00     0.029 A 
HETATM   32  C21 UNL     1      18.190  -0.466  51.909  1.00  0.00     0.002 A 
HETATM   33  C22 UNL     1      18.476  -0.956  53.162  1.00  0.00     0.000 A 
HETATM   34  C23 UNL     1      19.717  -0.720  53.723  1.00  0.00     0.002 A 
HETATM   35  C24 UNL     1      20.652   0.019  52.990  1.00  0.00     0.029 A 
ENDBRANCH  18  30
TORSDOF 8
ENDMDL
