MODEL 1
REMARK VINA RESULT:      -9.2      0.000      0.000
REMARK  4 active torsions:
REMARK  status: ('A' for Active; 'I' for Inactive)
REMARK    1  A    between atoms: C2_2  and  C3_3 
REMARK    2  A    between atoms: C3_3  and  C4_4 
REMARK    3  A    between atoms: C3_3  and  C12_14 
REMARK    4  A    between atoms: N1_7  and  C7_8 
ROOT
HETATM    1  C12 UNL     1      23.223   3.104  51.989  1.00  0.00     0.049 C 
HETATM    2  C13 UNL     1      21.828   2.562  51.838  1.00  0.00     0.090 C 
HETATM    3  C14 UNL     1      21.590   1.387  52.731  1.00  0.00     0.131 C 
HETATM    4  O2  UNL     1      20.559   1.319  53.421  1.00  0.00    -0.298 OA
HETATM    5  C15 UNL     1      22.583   0.296  52.799  1.00  0.00     0.115 C 
HETATM    6  C16 UNL     1      23.940   0.891  52.914  1.00  0.00    -0.037 A 
HETATM    7  C17 UNL     1      25.163   0.345  53.012  1.00  0.00    -0.003 A 
HETATM    8  C18 UNL     1      25.987  -0.882  53.077  1.00  0.00     0.036 A 
HETATM    9  C19 UNL     1      27.249  -0.570  53.155  1.00  0.00     0.047 A 
HETATM   10  C20 UNL     1      28.296  -1.543  53.230  1.00  0.00     0.099 C 
HETATM   11  N2  UNL     1      29.137  -2.334  53.295  1.00  0.00    -0.191 NA
HETATM   12  C21 UNL     1      27.392   0.865  53.150  1.00  0.00     0.052 A 
HETATM   13  C22 UNL     1      26.200   1.391  53.067  1.00  0.00     0.040 A 
HETATM   14  N3  UNL     1      25.445   2.619  52.984  1.00  0.00    -0.380 N 
HETATM   15  C23 UNL     1      24.045   2.367  52.977  1.00  0.00     0.121 A 
HETATM   16  H24 UNL     1      25.855   3.575  52.935  1.00  0.00     0.160 HD
ENDROOT
BRANCH   1  17
HETATM   17  C3  UNL     1      23.818   3.328  50.693  1.00  0.00    -0.059 C 
BRANCH  17  18
HETATM   18  C2  UNL     1      23.239   2.689  49.697  1.00  0.00    -0.033 C 
HETATM   19  C1  UNL     1      22.710   2.527  48.494  1.00  0.00     0.024 C 
ENDBRANCH  17  18
BRANCH  17  20
HETATM   20  C4  UNL     1      24.963   4.181  50.341  1.00  0.00     0.019 C 
HETATM   21  C5  UNL     1      24.591   5.508  49.757  1.00  0.00     0.028 C 
HETATM   22  C6  UNL     1      25.827   6.334  49.463  1.00  0.00     0.118 C 
HETATM   23  N1  UNL     1      26.769   5.584  48.701  1.00  0.00    -0.404 N 
HETATM   24  C10 UNL     1      27.183   4.384  49.340  1.00  0.00     0.118 C 
HETATM   25  C11 UNL     1      25.935   3.492  49.418  1.00  0.00     0.028 C 
BRANCH  23  26
HETATM   26  C7  UNL     1      27.750   6.355  48.031  1.00  0.00     0.126 C 
HETATM   27  C8  UNL     1      28.143   7.686  48.638  1.00  0.00     0.194 C 
HETATM   28  O1  UNL     1      29.423   7.457  48.082  1.00  0.00    -0.387 OA
HETATM   29  C9  UNL     1      29.198   6.064  48.241  1.00  0.00     0.194 C 
ENDBRANCH  23  26
ENDBRANCH  17  20
ENDBRANCH   1  17
TORSDOF 4
ENDMDL
MODEL 2
REMARK VINA RESULT:      -9.1      1.163      1.633
REMARK  4 active torsions:
REMARK  status: ('A' for Active; 'I' for Inactive)
REMARK    1  A    between atoms: C2_2  and  C3_3 
REMARK    2  A    between atoms: C3_3  and  C4_4 
REMARK    3  A    between atoms: C3_3  and  C12_14 
REMARK    4  A    between atoms: N1_7  and  C7_8 
ROOT
HETATM    1  C12 UNL     1      23.191   4.094  51.065  1.00  0.00     0.049 C 
HETATM    2  C13 UNL     1      21.696   3.930  51.039  1.00  0.00     0.090 C 
HETATM    3  C14 UNL     1      21.223   2.988  52.099  1.00  0.00     0.131 C 
HETATM    4  O2  UNL     1      20.260   3.289  52.824  1.00  0.00    -0.298 OA
HETATM    5  C15 UNL     1      21.900   1.690  52.292  1.00  0.00     0.115 C 
HETATM    6  C16 UNL     1      23.370   1.911  52.277  1.00  0.00    -0.037 A 
HETATM    7  C17 UNL     1      24.412   1.075  52.415  1.00  0.00    -0.003 A 
HETATM    8  C18 UNL     1      24.891  -0.308  52.629  1.00  0.00     0.036 A 
HETATM    9  C19 UNL     1      26.193  -0.338  52.621  1.00  0.00     0.047 A 
HETATM   10  C20 UNL     1      26.953  -1.536  52.803  1.00  0.00     0.099 C 
HETATM   11  N2  UNL     1      27.562  -2.508  52.954  1.00  0.00    -0.191 NA
HETATM   12  C21 UNL     1      26.703   0.993  52.405  1.00  0.00     0.052 A 
HETATM   13  C22 UNL     1      25.687   1.804  52.285  1.00  0.00     0.040 A 
HETATM   14  N3  UNL     1      25.274   3.167  52.049  1.00  0.00    -0.380 N 
HETATM   15  C23 UNL     1      23.859   3.300  52.123  1.00  0.00     0.121 A 
HETATM   16  H24 UNL     1      25.914   3.964  51.850  1.00  0.00     0.160 HD
ENDROOT
BRANCH   1  17
HETATM   17  C3  UNL     1      23.733   3.979  49.733  1.00  0.00    -0.059 C 
BRANCH  17  18
HETATM   18  C2  UNL     1      23.298   2.945  49.042  1.00  0.00    -0.033 C 
HETATM   19  C1  UNL     1      22.670   2.305  48.068  1.00  0.00     0.024 C 
ENDBRANCH  17  18
BRANCH  17  20
HETATM   20  C4  UNL     1      24.684   4.867  49.047  1.00  0.00     0.019 C 
HETATM   21  C5  UNL     1      26.122   4.595  49.361  1.00  0.00     0.028 C 
HETATM   22  C6  UNL     1      27.030   5.527  48.582  1.00  0.00     0.118 C 
HETATM   23  N1  UNL     1      26.624   6.883  48.745  1.00  0.00    -0.404 N 
HETATM   24  C10 UNL     1      25.287   7.125  48.333  1.00  0.00     0.118 C 
HETATM   25  C11 UNL     1      24.394   6.326  49.294  1.00  0.00     0.028 C 
BRANCH  23  26
HETATM   26  C7  UNL     1      27.608   7.848  48.418  1.00  0.00     0.126 C 
HETATM   27  C8  UNL     1      27.958   8.888  49.463  1.00  0.00     0.194 C 
HETATM   28  O1  UNL     1      29.257   8.878  48.903  1.00  0.00    -0.387 OA
HETATM   29  C9  UNL     1      29.054   7.515  48.560  1.00  0.00     0.194 C 
ENDBRANCH  23  26
ENDBRANCH  17  20
ENDBRANCH   1  17
TORSDOF 4
ENDMDL
MODEL 3
REMARK VINA RESULT:      -8.6      2.126      3.379
REMARK  4 active torsions:
REMARK  status: ('A' for Active; 'I' for Inactive)
REMARK    1  A    between atoms: C2_2  and  C3_3 
REMARK    2  A    between atoms: C3_3  and  C4_4 
REMARK    3  A    between atoms: C3_3  and  C12_14 
REMARK    4  A    between atoms: N1_7  and  C7_8 
ROOT
HETATM    1  C12 UNL     1      23.548   4.889  49.593  1.00  0.00     0.049 C 
HETATM    2  C13 UNL     1      22.839   4.379  48.368  1.00  0.00     0.090 C 
HETATM    3  C14 UNL     1      21.999   3.181  48.672  1.00  0.00     0.131 C 
HETATM    4  O2  UNL     1      20.830   3.111  48.258  1.00  0.00    -0.298 OA
HETATM    5  C15 UNL     1      22.555   2.070  49.470  1.00  0.00     0.115 C 
HETATM    6  C16 UNL     1      23.268   2.635  50.645  1.00  0.00    -0.037 A 
HETATM    7  C17 UNL     1      23.930   2.062  51.664  1.00  0.00    -0.003 A 
HETATM    8  C18 UNL     1      24.389   0.819  52.320  1.00  0.00     0.036 A 
HETATM    9  C19 UNL     1      25.079   1.104  53.387  1.00  0.00     0.047 A 
HETATM   10  C20 UNL     1      25.660   0.109  54.237  1.00  0.00     0.099 C 
HETATM   11  N2  UNL     1      26.123  -0.699  54.921  1.00  0.00    -0.191 NA
HETATM   12  C21 UNL     1      25.149   2.535  53.547  1.00  0.00     0.052 A 
HETATM   13  C22 UNL     1      24.493   3.087  52.563  1.00  0.00     0.040 A 
HETATM   14  N3  UNL     1      24.090   4.331  51.951  1.00  0.00    -0.380 N 
HETATM   15  C23 UNL     1      23.260   4.106  50.817  1.00  0.00     0.121 A 
HETATM   16  H24 UNL     1      24.362   5.279  52.282  1.00  0.00     0.160 HD
ENDROOT
BRANCH   1  17
HETATM   17  C3  UNL     1      24.939   5.142  49.301  1.00  0.00    -0.059 C 
BRANCH  17  18
HETATM   18  C2  UNL     1      25.685   4.065  49.167  1.00  0.00    -0.033 C 
HETATM   19  C1  UNL     1      26.593   3.161  49.497  1.00  0.00     0.024 C 
ENDBRANCH  17  18
BRANCH  17  20
HETATM   20  C4  UNL     1      25.620   6.433  49.117  1.00  0.00     0.019 C 
HETATM   21  C5  UNL     1      27.006   6.328  48.562  1.00  0.00     0.028 C 
HETATM   22  C6  UNL     1      27.615   7.703  48.370  1.00  0.00     0.118 C 
HETATM   23  N1  UNL     1      27.500   8.480  49.558  1.00  0.00    -0.404 N 
HETATM   24  C10 UNL     1      26.158   8.650  49.993  1.00  0.00     0.118 C 
HETATM   25  C11 UNL     1      25.657   7.251  50.383  1.00  0.00     0.028 C 
BRANCH  23  26
HETATM   26  C7  UNL     1      28.371   9.593  49.635  1.00  0.00     0.126 C 
HETATM   27  C8  UNL     1      29.829   9.380  49.279  1.00  0.00     0.194 C 
HETATM   28  O1  UNL     1      29.820  10.722  48.832  1.00  0.00    -0.387 OA
HETATM   29  C9  UNL     1      28.448  10.559  48.502  1.00  0.00     0.194 C 
ENDBRANCH  23  26
ENDBRANCH  17  20
ENDBRANCH   1  17
TORSDOF 4
ENDMDL
MODEL 4
REMARK VINA RESULT:      -8.6      2.607      6.515
REMARK  4 active torsions:
REMARK  status: ('A' for Active; 'I' for Inactive)
REMARK    1  A    between atoms: C2_2  and  C3_3 
REMARK    2  A    between atoms: C3_3  and  C4_4 
REMARK    3  A    between atoms: C3_3  and  C12_14 
REMARK    4  A    between atoms: N1_7  and  C7_8 
ROOT
HETATM    1  C12 UNL     1      23.444   2.235  50.753  1.00  0.00     0.049 C 
HETATM    2  C13 UNL     1      21.962   2.501  50.753  1.00  0.00     0.090 C 
HETATM    3  C14 UNL     1      21.549   3.337  49.586  1.00  0.00     0.131 C 
HETATM    4  O2  UNL     1      20.565   3.017  48.899  1.00  0.00    -0.298 OA
HETATM    5  C15 UNL     1      22.310   4.555  49.242  1.00  0.00     0.115 C 
HETATM    6  C16 UNL     1      23.762   4.240  49.289  1.00  0.00    -0.037 A 
HETATM    7  C17 UNL     1      24.858   4.982  49.056  1.00  0.00    -0.003 A 
HETATM    8  C18 UNL     1      25.427   6.293  48.679  1.00  0.00     0.036 A 
HETATM    9  C19 UNL     1      26.728   6.237  48.688  1.00  0.00     0.047 A 
HETATM   10  C20 UNL     1      27.566   7.352  48.367  1.00  0.00     0.099 C 
HETATM   11  N2  UNL     1      28.238   8.255  48.102  1.00  0.00    -0.191 NA
HETATM   12  C21 UNL     1      27.149   4.911  49.065  1.00  0.00     0.052 A 
HETATM   13  C22 UNL     1      26.081   4.190  49.277  1.00  0.00     0.040 A 
HETATM   14  N3  UNL     1      25.579   2.896  49.673  1.00  0.00    -0.380 N 
HETATM   15  C23 UNL     1      24.158   2.850  49.611  1.00  0.00     0.121 A 
HETATM   16  H24 UNL     1      26.165   2.088  49.969  1.00  0.00     0.160 HD
ENDROOT
BRANCH   1  17
HETATM   17  C3  UNL     1      23.997   2.473  52.065  1.00  0.00    -0.059 C 
BRANCH  17  18
HETATM   18  C2  UNL     1      23.614   3.597  52.635  1.00  0.00    -0.033 C 
HETATM   19  C1  UNL     1      23.488   4.905  52.791  1.00  0.00     0.024 C 
ENDBRANCH  17  18
BRANCH  17  20
HETATM   20  C4  UNL     1      24.910   1.624  52.845  1.00  0.00     0.019 C 
HETATM   21  C5  UNL     1      26.013   2.367  53.532  1.00  0.00     0.028 C 
HETATM   22  C6  UNL     1      26.878   1.422  54.342  1.00  0.00     0.118 C 
HETATM   23  N1  UNL     1      27.300   0.316  53.550  1.00  0.00    -0.404 N 
HETATM   24  C10 UNL     1      26.222  -0.432  53.006  1.00  0.00     0.118 C 
HETATM   25  C11 UNL     1      25.505   0.508  52.025  1.00  0.00     0.028 C 
BRANCH  23  26
HETATM   26  C7  UNL     1      28.415  -0.395  54.057  1.00  0.00     0.126 C 
HETATM   27  C8  UNL     1      28.894  -1.607  53.284  1.00  0.00     0.194 C 
HETATM   28  O1  UNL     1      30.187  -1.283  53.759  1.00  0.00    -0.387 OA
HETATM   29  C9  UNL     1      29.797   0.083  53.767  1.00  0.00     0.194 C 
ENDBRANCH  23  26
ENDBRANCH  17  20
ENDBRANCH   1  17
TORSDOF 4
ENDMDL
MODEL 5
REMARK VINA RESULT:      -8.4      3.246      5.951
REMARK  4 active torsions:
REMARK  status: ('A' for Active; 'I' for Inactive)
REMARK    1  A    between atoms: C2_2  and  C3_3 
REMARK    2  A    between atoms: C3_3  and  C4_4 
REMARK    3  A    between atoms: C3_3  and  C12_14 
REMARK    4  A    between atoms: N1_7  and  C7_8 
ROOT
HETATM    1  C12 UNL     1      22.704   4.439  49.675  1.00  0.00     0.049 C 
HETATM    2  C13 UNL     1      23.193   4.105  48.291  1.00  0.00     0.090 C 
HETATM    3  C14 UNL     1      22.330   3.080  47.630  1.00  0.00     0.131 C 
HETATM    4  O2  UNL     1      21.942   3.242  46.462  1.00  0.00    -0.298 OA
HETATM    5  C15 UNL     1      21.932   1.862  48.365  1.00  0.00     0.115 C 
HETATM    6  C16 UNL     1      21.490   2.251  49.730  1.00  0.00    -0.037 A 
HETATM    7  C17 UNL     1      21.033   1.536  50.772  1.00  0.00    -0.003 A 
HETATM    8  C18 UNL     1      20.676   0.211  51.323  1.00  0.00     0.036 A 
HETATM    9  C19 UNL     1      20.279   0.331  52.557  1.00  0.00     0.047 A 
HETATM   10  C20 UNL     1      19.866  -0.777  53.362  1.00  0.00     0.099 C 
HETATM   11  N2  UNL     1      19.530  -1.677  54.006  1.00  0.00    -0.191 NA
HETATM   12  C21 UNL     1      20.330   1.719  52.946  1.00  0.00     0.052 A 
HETATM   13  C22 UNL     1      20.762   2.411  51.927  1.00  0.00     0.040 A 
HETATM   14  N3  UNL     1      21.119   3.725  51.446  1.00  0.00    -0.380 N 
HETATM   15  C23 UNL     1      21.489   3.692  50.073  1.00  0.00     0.121 A 
HETATM   16  H24 UNL     1      21.112   4.596  52.016  1.00  0.00     0.160 HD
ENDROOT
BRANCH   1  17
HETATM   17  C3  UNL     1      23.803   4.433  50.611  1.00  0.00    -0.059 C 
BRANCH  17  18
HETATM   18  C2  UNL     1      24.171   5.621  51.046  1.00  0.00    -0.033 C 
HETATM   19  C1  UNL     1      24.205   6.943  51.102  1.00  0.00     0.024 C 
ENDBRANCH  17  18
BRANCH  17  20
HETATM   20  C4  UNL     1      24.545   3.284  51.150  1.00  0.00     0.019 C 
HETATM   21  C5  UNL     1      24.387   3.081  52.625  1.00  0.00     0.028 C 
HETATM   22  C6  UNL     1      25.151   1.855  53.086  1.00  0.00     0.118 C 
HETATM   23  N1  UNL     1      26.498   1.894  52.624  1.00  0.00    -0.404 N 
HETATM   24  C10 UNL     1      26.607   1.975  51.210  1.00  0.00     0.118 C 
HETATM   25  C11 UNL     1      26.013   3.335  50.815  1.00  0.00     0.028 C 
BRANCH  23  26
HETATM   26  C7  UNL     1      27.394   1.042  53.314  1.00  0.00     0.126 C 
HETATM   27  C8  UNL     1      26.933   0.438  54.624  1.00  0.00     0.194 C 
HETATM   28  O1  UNL     1      27.754  -0.667  54.298  1.00  0.00    -0.387 OA
HETATM   29  C9  UNL     1      27.506  -0.393  52.926  1.00  0.00     0.194 C 
ENDBRANCH  23  26
ENDBRANCH  17  20
ENDBRANCH   1  17
TORSDOF 4
ENDMDL
MODEL 6
REMARK VINA RESULT:      -8.2      3.133      6.657
REMARK  4 active torsions:
REMARK  status: ('A' for Active; 'I' for Inactive)
REMARK    1  A    between atoms: C2_2  and  C3_3 
REMARK    2  A    between atoms: C3_3  and  C4_4 
REMARK    3  A    between atoms: C3_3  and  C12_14 
REMARK    4  A    between atoms: N1_7  and  C7_8 
ROOT
HETATM    1  C12 UNL     1      24.335   0.377  53.754  1.00  0.00     0.049 C 
HETATM    2  C13 UNL     1      25.133  -0.876  53.512  1.00  0.00     0.090 C 
HETATM    3  C14 UNL     1      26.452  -0.579  52.875  1.00  0.00     0.131 C 
HETATM    4  O2  UNL     1      27.493  -1.096  53.312  1.00  0.00    -0.298 OA
HETATM    5  C15 UNL     1      26.525   0.333  51.716  1.00  0.00     0.115 C 
HETATM    6  C16 UNL     1      25.696   1.534  51.999  1.00  0.00    -0.037 A 
HETATM    7  C17 UNL     1      25.436   2.643  51.288  1.00  0.00    -0.003 A 
HETATM    8  C18 UNL     1      25.649   3.414  50.044  1.00  0.00     0.036 A 
HETATM    9  C19 UNL     1      24.965   4.522  50.080  1.00  0.00     0.047 A 
HETATM   10  C20 UNL     1      24.965   5.481  49.018  1.00  0.00     0.099 C 
HETATM   11  N2  UNL     1      24.972   6.254  48.158  1.00  0.00    -0.191 NA
HETATM   12  C21 UNL     1      24.242   4.600  51.325  1.00  0.00     0.052 A 
HETATM   13  C22 UNL     1      24.508   3.527  52.018  1.00  0.00     0.040 A 
HETATM   14  N3  UNL     1      24.247   2.805  53.241  1.00  0.00    -0.380 N 
HETATM   15  C23 UNL     1      25.023   1.614  53.316  1.00  0.00     0.121 A 
HETATM   16  H24 UNL     1      23.582   3.102  53.984  1.00  0.00     0.160 HD
ENDROOT
BRANCH   1  17
HETATM   17  C3  UNL     1      22.975   0.202  53.306  1.00  0.00    -0.059 C 
BRANCH  17  18
HETATM   18  C2  UNL     1      22.420  -0.944  53.645  1.00  0.00    -0.033 C 
HETATM   19  C1  UNL     1      21.701  -1.784  54.374  1.00  0.00     0.024 C 
ENDBRANCH  17  18
BRANCH  17  20
HETATM   20  C4  UNL     1      22.131   1.133  52.543  1.00  0.00     0.019 C 
HETATM   21  C5  UNL     1      20.740   1.286  53.075  1.00  0.00     0.028 C 
HETATM   22  C6  UNL     1      19.956   2.291  52.254  1.00  0.00     0.118 C 
HETATM   23  N1  UNL     1      20.039   1.987  50.865  1.00  0.00    -0.404 N 
HETATM   24  C10 UNL     1      21.371   1.960  50.372  1.00  0.00     0.118 C 
HETATM   25  C11 UNL     1      22.061   0.783  51.078  1.00  0.00     0.028 C 
BRANCH  23  26
HETATM   26  C7  UNL     1      19.042   2.586  50.057  1.00  0.00     0.126 C 
HETATM   27  C8  UNL     1      18.813   4.077  50.203  1.00  0.00     0.194 C 
HETATM   28  O1  UNL     1      18.456   4.063  48.834  1.00  0.00    -0.387 OA
HETATM   29  C9  UNL     1      19.357   2.979  48.654  1.00  0.00     0.194 C 
ENDBRANCH  23  26
ENDBRANCH  17  20
ENDBRANCH   1  17
TORSDOF 4
ENDMDL
MODEL 7
REMARK VINA RESULT:      -8.2      3.741      6.832
REMARK  4 active torsions:
REMARK  status: ('A' for Active; 'I' for Inactive)
REMARK    1  A    between atoms: C2_2  and  C3_3 
REMARK    2  A    between atoms: C3_3  and  C4_4 
REMARK    3  A    between atoms: C3_3  and  C12_14 
REMARK    4  A    between atoms: N1_7  and  C7_8 
ROOT
HETATM    1  C12 UNL     1      22.534   3.475  51.821  1.00  0.00     0.049 C 
HETATM    2  C13 UNL     1      22.716   4.832  51.196  1.00  0.00     0.090 C 
HETATM    3  C14 UNL     1      21.408   5.512  50.956  1.00  0.00     0.131 C 
HETATM    4  O2  UNL     1      21.244   6.698  51.287  1.00  0.00    -0.298 OA
HETATM    5  C15 UNL     1      20.296   4.776  50.320  1.00  0.00     0.115 C 
HETATM    6  C16 UNL     1      20.186   3.437  50.955  1.00  0.00    -0.037 A 
HETATM    7  C17 UNL     1      19.351   2.404  50.752  1.00  0.00    -0.003 A 
HETATM    8  C18 UNL     1      18.204   1.848  50.001  1.00  0.00     0.036 A 
HETATM    9  C19 UNL     1      17.955   0.633  50.399  1.00  0.00     0.047 A 
HETATM   10  C20 UNL     1      16.902  -0.171  49.858  1.00  0.00     0.099 C 
HETATM   11  N2  UNL     1      16.047  -0.814  49.420  1.00  0.00    -0.191 NA
HETATM   12  C21 UNL     1      18.891   0.264  51.431  1.00  0.00     0.052 A 
HETATM   13  C22 UNL     1      19.691   1.274  51.635  1.00  0.00     0.040 A 
HETATM   14  N3  UNL     1      20.829   1.760  52.380  1.00  0.00    -0.380 N 
HETATM   15  C23 UNL     1      21.117   3.116  52.061  1.00  0.00     0.121 A 
HETATM   16  H24 UNL     1      21.380   1.204  53.067  1.00  0.00     0.160 HD
ENDROOT
BRANCH   1  17
HETATM   17  C3  UNL     1      23.342   2.494  51.137  1.00  0.00    -0.059 C 
BRANCH  17  18
HETATM   18  C2  UNL     1      23.135   2.409  49.839  1.00  0.00    -0.033 C 
HETATM   19  C1  UNL     1      22.531   2.035  48.722  1.00  0.00     0.024 C 
ENDBRANCH  17  18
BRANCH  17  20
HETATM   20  C4  UNL     1      24.369   1.599  51.693  1.00  0.00     0.019 C 
HETATM   21  C5  UNL     1      24.184   1.269  53.141  1.00  0.00     0.028 C 
HETATM   22  C6  UNL     1      25.260   0.313  53.618  1.00  0.00     0.118 C 
HETATM   23  N1  UNL     1      26.555   0.794  53.271  1.00  0.00    -0.404 N 
HETATM   24  C10 UNL     1      26.728   0.991  51.874  1.00  0.00     0.118 C 
HETATM   25  C11 UNL     1      25.767   2.122  51.482  1.00  0.00     0.028 C 
BRANCH  23  26
HETATM   26  C7  UNL     1      27.624   0.220  54.000  1.00  0.00     0.126 C 
HETATM   27  C8  UNL     1      28.397  -0.913  53.355  1.00  0.00     0.194 C 
HETATM   28  O1  UNL     1      29.516  -0.438  54.078  1.00  0.00    -0.387 OA
HETATM   29  C9  UNL     1      28.967   0.869  53.989  1.00  0.00     0.194 C 
ENDBRANCH  23  26
ENDBRANCH  17  20
ENDBRANCH   1  17
TORSDOF 4
ENDMDL
MODEL 8
REMARK VINA RESULT:      -8.0      3.778      7.695
REMARK  4 active torsions:
REMARK  status: ('A' for Active; 'I' for Inactive)
REMARK    1  A    between atoms: C2_2  and  C3_3 
REMARK    2  A    between atoms: C3_3  and  C4_4 
REMARK    3  A    between atoms: C3_3  and  C12_14 
REMARK    4  A    between atoms: N1_7  and  C7_8 
ROOT
HETATM    1  C12 UNL     1      21.357   1.416  52.725  1.00  0.00     0.049 C 
HETATM    2  C13 UNL     1      21.489  -0.012  53.179  1.00  0.00     0.090 C 
HETATM    3  C14 UNL     1      22.885  -0.334  53.602  1.00  0.00     0.131 C 
HETATM    4  O2  UNL     1      23.098  -0.936  54.667  1.00  0.00    -0.298 OA
HETATM    5  C15 UNL     1      24.026   0.064  52.752  1.00  0.00     0.115 C 
HETATM    6  C16 UNL     1      23.826   1.468  52.309  1.00  0.00    -0.037 A 
HETATM    7  C17 UNL     1      24.561   2.290  51.543  1.00  0.00    -0.003 A 
HETATM    8  C18 UNL     1      25.784   2.492  50.736  1.00  0.00     0.036 A 
HETATM    9  C19 UNL     1      25.789   3.688  50.221  1.00  0.00     0.047 A 
HETATM   10  C20 UNL     1      26.843   4.181  49.387  1.00  0.00     0.099 C 
HETATM   11  N2  UNL     1      27.699   4.575  48.718  1.00  0.00    -0.191 NA
HETATM   12  C21 UNL     1      24.595   4.389  50.622  1.00  0.00     0.052 A 
HETATM   13  C22 UNL     1      23.889   3.592  51.377  1.00  0.00     0.040 A 
HETATM   14  N3  UNL     1      22.668   3.440  52.132  1.00  0.00    -0.380 N 
HETATM   15  C23 UNL     1      22.623   2.182  52.797  1.00  0.00     0.121 A 
HETATM   16  H24 UNL     1      21.907   4.148  52.195  1.00  0.00     0.160 HD
ENDROOT
BRANCH   1  17
HETATM   17  C3  UNL     1      20.633   1.483  51.478  1.00  0.00    -0.059 C 
BRANCH  17  18
HETATM   18  C2  UNL     1      21.246   0.938  50.448  1.00  0.00    -0.033 C 
HETATM   19  C1  UNL     1      21.740   0.862  49.222  1.00  0.00     0.024 C 
ENDBRANCH  17  18
BRANCH  17  20
HETATM   20  C4  UNL     1      19.305   2.058  51.216  1.00  0.00     0.019 C 
HETATM   21  C5  UNL     1      19.131   3.462  51.706  1.00  0.00     0.028 C 
HETATM   22  C6  UNL     1      17.751   3.987  51.359  1.00  0.00     0.118 C 
HETATM   23  N1  UNL     1      16.741   3.074  51.777  1.00  0.00    -0.404 N 
HETATM   24  C10 UNL     1      16.877   1.781  51.204  1.00  0.00     0.118 C 
HETATM   25  C11 UNL     1      18.187   1.205  51.760  1.00  0.00     0.028 C 
BRANCH  23  26
HETATM   26  C7  UNL     1      15.440   3.623  51.881  1.00  0.00     0.126 C 
HETATM   27  C8  UNL     1      14.277   2.667  52.052  1.00  0.00     0.194 C 
HETATM   28  O1  UNL     1      13.657   3.700  52.792  1.00  0.00    -0.387 OA
HETATM   29  C9  UNL     1      14.949   4.133  53.193  1.00  0.00     0.194 C 
ENDBRANCH  23  26
ENDBRANCH  17  20
ENDBRANCH   1  17
TORSDOF 4
ENDMDL
MODEL 9
REMARK VINA RESULT:      -8.0      3.047      5.358
REMARK  4 active torsions:
REMARK  status: ('A' for Active; 'I' for Inactive)
REMARK    1  A    between atoms: C2_2  and  C3_3 
REMARK    2  A    between atoms: C3_3  and  C4_4 
REMARK    3  A    between atoms: C3_3  and  C12_14 
REMARK    4  A    between atoms: N1_7  and  C7_8 
ROOT
HETATM    1  C12 UNL     1      22.205   1.297  52.654  1.00  0.00     0.049 C 
HETATM    2  C13 UNL     1      22.502  -0.105  53.113  1.00  0.00     0.090 C 
HETATM    3  C14 UNL     1      23.941  -0.277  53.477  1.00  0.00     0.131 C 
HETATM    4  O2  UNL     1      24.259  -0.841  54.536  1.00  0.00    -0.298 OA
HETATM    5  C15 UNL     1      24.997   0.225  52.575  1.00  0.00     0.115 C 
HETATM    6  C16 UNL     1      24.635   1.596  52.131  1.00  0.00    -0.037 A 
HETATM    7  C17 UNL     1      25.249   2.479  51.327  1.00  0.00    -0.003 A 
HETATM    8  C18 UNL     1      26.409   2.795  50.466  1.00  0.00     0.036 A 
HETATM    9  C19 UNL     1      26.270   3.979  49.942  1.00  0.00     0.047 A 
HETATM   10  C20 UNL     1      27.231   4.567  49.059  1.00  0.00     0.099 C 
HETATM   11  N2  UNL     1      28.013   5.039  48.350  1.00  0.00    -0.191 NA
HETATM   12  C21 UNL     1      25.028   4.560  50.389  1.00  0.00     0.052 A 
HETATM   13  C22 UNL     1      24.441   3.704  51.181  1.00  0.00     0.040 A 
HETATM   14  N3  UNL     1      23.275   3.437  51.990  1.00  0.00    -0.380 N 
HETATM   15  C23 UNL     1      23.388   2.189  52.665  1.00  0.00     0.121 A 
HETATM   16  H24 UNL     1      22.449   4.064  52.080  1.00  0.00     0.160 HD
ENDROOT
BRANCH   1  17
HETATM   17  C3  UNL     1      21.425   1.275  51.440  1.00  0.00    -0.059 C 
BRANCH  17  18
HETATM   18  C2  UNL     1      20.386   0.465  51.461  1.00  0.00    -0.033 C 
HETATM   19  C1  UNL     1      19.117   0.111  51.591  1.00  0.00     0.024 C 
ENDBRANCH  17  18
BRANCH  17  20
HETATM   20  C4  UNL     1      21.628   2.043  50.202  1.00  0.00     0.019 C 
HETATM   21  C5  UNL     1      20.559   3.052  49.918  1.00  0.00     0.028 C 
HETATM   22  C6  UNL     1      20.869   3.822  48.649  1.00  0.00     0.118 C 
HETATM   23  N1  UNL     1      21.159   2.933  47.574  1.00  0.00    -0.404 N 
HETATM   24  C10 UNL     1      22.251   2.065  47.840  1.00  0.00     0.118 C 
HETATM   25  C11 UNL     1      21.802   1.157  48.995  1.00  0.00     0.028 C 
BRANCH  23  26
HETATM   26  C7  UNL     1      21.058   3.501  46.281  1.00  0.00     0.126 C 
HETATM   27  C8  UNL     1      19.879   4.408  45.994  1.00  0.00     0.194 C 
HETATM   28  O1  UNL     1      20.741   5.092  45.105  1.00  0.00    -0.387 OA
HETATM   29  C9  UNL     1      21.827   4.734  45.947  1.00  0.00     0.194 C 
ENDBRANCH  23  26
ENDBRANCH  17  20
ENDBRANCH   1  17
TORSDOF 4
ENDMDL
