MODEL 1
REMARK VINA RESULT:      -8.6      0.000      0.000
REMARK  6 active torsions:
REMARK  status: ('A' for Active; 'I' for Inactive)
REMARK    1  A    between atoms: O1_2  and  C2_3 
REMARK    2  A    between atoms: C4_5  and  N1_6 
REMARK    3  A    between atoms: C12_15  and  N3_16 
REMARK    4  A    between atoms: C16_22  and  C17_23 
REMARK    5  A    between atoms: C20_26  and  N5_27 
REMARK    6  A    between atoms: N5_27  and  C21_28 
ROOT
HETATM    1  N3  UNL     1      26.569   4.249  49.712  1.00  0.00    -0.185 N 
HETATM    2  C13 UNL     1      25.912   3.309  50.407  1.00  0.00     0.727 A 
HETATM    3  N4  UNL     1      26.918   2.589  51.026  1.00  0.00    -0.073 NA
HETATM    4  C14 UNL     1      26.898   1.558  51.835  1.00  0.00     0.162 A 
HETATM    5  C15 UNL     1      25.639   1.134  52.078  1.00  0.00     0.082 A 
HETATM    6 CL1  UNL     1      25.629  -0.276  53.133  1.00  0.00    -0.080 Cl
HETATM    7  C16 UNL     1      24.528   1.771  51.498  1.00  0.00     0.109 A 
HETATM    8  N6  UNL     1      24.679   2.826  50.688  1.00  0.00    -0.060 NA
HETATM    9  H18 UNL     1      26.830   3.530  48.962  1.00  0.00     0.184 HD
ENDROOT
BRANCH   1  10
HETATM   10  C12 UNL     1      27.218   5.202  49.020  1.00  0.00     0.082 A 
HETATM   11  C2  UNL     1      26.430   6.433  49.181  1.00  0.00     0.097 A 
HETATM   12  C3  UNL     1      26.846   7.723  48.677  1.00  0.00     0.068 A 
HETATM   13  C4  UNL     1      28.074   7.625  48.019  1.00  0.00     0.033 A 
HETATM   14  C10 UNL     1      28.838   6.526  47.833  1.00  0.00     0.032 A 
HETATM   15  C11 UNL     1      28.357   5.338  48.356  1.00  0.00     0.035 A 
BRANCH  11  16
HETATM   16  O1  UNL     1      25.210   6.246  49.866  1.00  0.00    -0.354 OA
HETATM   17  C1  UNL     1      24.698   7.214  50.706  1.00  0.00     0.210 C 
ENDBRANCH  11  16
BRANCH  13  18
HETATM   18  N1  UNL     1      28.208   9.013  47.683  1.00  0.00    -0.377 N 
HETATM   19  C5  UNL     1      28.203   9.930  48.805  1.00  0.00     0.153 C 
HETATM   20  C6  UNL     1      29.409  10.824  48.528  1.00  0.00     0.291 C 
HETATM   21  N2  UNL     1      29.164  11.680  47.399  1.00  0.00     0.087 N 
HETATM   22  C7  UNL     1      30.446  12.070  46.821  1.00  0.00     0.310 C 
HETATM   23  C8  UNL     1      28.248  11.123  46.433  1.00  0.00     0.291 C 
HETATM   24  C9  UNL     1      28.397   9.619  46.349  1.00  0.00     0.153 C 
ENDBRANCH  13  18
ENDBRANCH   1  10
BRANCH   7  25
HETATM   25  C17 UNL     1      23.274   1.209  51.721  1.00  0.00    -0.006 A 
HETATM   26  C18 UNL     1      22.332   1.112  50.777  1.00  0.00    -0.007 A 
HETATM   27  C19 UNL     1      21.046   0.435  51.263  1.00  0.00     0.087 A 
HETATM   28  C20 UNL     1      21.481   0.154  52.709  1.00  0.00     0.043 A 
HETATM   29  C22 UNL     1      22.712   0.609  52.869  1.00  0.00     0.041 A 
BRANCH  28  30
HETATM   30  N5  UNL     1      20.564  -0.516  53.550  1.00  0.00    -0.210 NA
BRANCH  30  31
HETATM   31  C21 UNL     1      20.960  -1.449  54.360  1.00  0.00     0.337 C 
HETATM   32  O2  UNL     1      21.800  -1.981  55.156  1.00  0.00    -0.260 OA
ENDBRANCH  30  31
ENDBRANCH  28  30
ENDBRANCH   7  25
TORSDOF 6
ENDMDL
MODEL 2
REMARK VINA RESULT:      -8.5      1.926      2.495
REMARK  6 active torsions:
REMARK  status: ('A' for Active; 'I' for Inactive)
REMARK    1  A    between atoms: O1_2  and  C2_3 
REMARK    2  A    between atoms: C4_5  and  N1_6 
REMARK    3  A    between atoms: C12_15  and  N3_16 
REMARK    4  A    between atoms: C16_22  and  C17_23 
REMARK    5  A    between atoms: C20_26  and  N5_27 
REMARK    6  A    between atoms: N5_27  and  C21_28 
ROOT
HETATM    1  N3  UNL     1      25.413   3.991  49.628  1.00  0.00    -0.185 N 
HETATM    2  C13 UNL     1      24.485   3.152  50.109  1.00  0.00     0.727 A 
HETATM    3  N4  UNL     1      23.608   2.985  49.052  1.00  0.00    -0.073 NA
HETATM    4  C14 UNL     1      22.511   2.280  48.916  1.00  0.00     0.162 A 
HETATM    5  C15 UNL     1      22.200   1.611  50.047  1.00  0.00     0.082 A 
HETATM    6 CL1  UNL     1      20.704   0.700  49.863  1.00  0.00    -0.080 Cl
HETATM    7  C16 UNL     1      23.002   1.707  51.198  1.00  0.00     0.109 A 
HETATM    8  N6  UNL     1      24.108   2.460  51.211  1.00  0.00    -0.060 NA
HETATM    9  H18 UNL     1      24.746   4.820  49.752  1.00  0.00     0.184 HD
ENDROOT
BRANCH   1  10
HETATM   10  C12 UNL     1      26.355   4.824  49.152  1.00  0.00     0.082 A 
HETATM   11  C2  UNL     1      25.865   6.187  49.408  1.00  0.00     0.097 A 
HETATM   12  C3  UNL     1      26.638   7.380  49.142  1.00  0.00     0.068 A 
HETATM   13  C4  UNL     1      27.885   7.053  48.606  1.00  0.00     0.033 A 
HETATM   14  C10 UNL     1      28.386   5.826  48.343  1.00  0.00     0.032 A 
HETATM   15  C11 UNL     1      27.573   4.746  48.635  1.00  0.00     0.035 A 
BRANCH  11  16
HETATM   16  O1  UNL     1      24.555   6.235  49.929  1.00  0.00    -0.354 OA
HETATM   17  C1  UNL     1      24.204   7.129  50.921  1.00  0.00     0.210 C 
ENDBRANCH  11  16
BRANCH  13  18
HETATM   18  N1  UNL     1      28.387   8.392  48.491  1.00  0.00    -0.377 N 
HETATM   19  C5  UNL     1      28.634   8.852  47.139  1.00  0.00     0.153 C 
HETATM   20  C6  UNL     1      27.958  10.220  47.109  1.00  0.00     0.291 C 
HETATM   21  N2  UNL     1      28.679  11.166  47.918  1.00  0.00     0.087 N 
HETATM   22  C7  UNL     1      27.763  12.224  48.331  1.00  0.00     0.310 C 
HETATM   23  C8  UNL     1      29.392  10.566  49.020  1.00  0.00     0.291 C 
HETATM   24  C9  UNL     1      28.639   9.371  49.567  1.00  0.00     0.153 C 
ENDBRANCH  13  18
ENDBRANCH   1  10
BRANCH   7  25
HETATM   25  C17 UNL     1      22.555   1.066  52.350  1.00  0.00    -0.006 A 
HETATM   26  C18 UNL     1      21.356   1.289  52.899  1.00  0.00    -0.007 A 
HETATM   27  C19 UNL     1      21.090   0.446  54.150  1.00  0.00     0.087 A 
HETATM   28  C20 UNL     1      22.418  -0.326  54.180  1.00  0.00     0.043 A 
HETATM   29  C22 UNL     1      23.155   0.076  53.159  1.00  0.00     0.041 A 
BRANCH  28  30
HETATM   30  N5  UNL     1      22.598  -1.281  55.206  1.00  0.00    -0.210 NA
BRANCH  30  31
HETATM   31  C21 UNL     1      23.779  -1.540  55.677  1.00  0.00     0.337 C 
HETATM   32  O2  UNL     1      24.992  -1.244  55.927  1.00  0.00    -0.260 OA
ENDBRANCH  30  31
ENDBRANCH  28  30
ENDBRANCH   7  25
TORSDOF 6
ENDMDL
MODEL 3
REMARK VINA RESULT:      -8.5      1.926      2.557
REMARK  6 active torsions:
REMARK  status: ('A' for Active; 'I' for Inactive)
REMARK    1  A    between atoms: O1_2  and  C2_3 
REMARK    2  A    between atoms: C4_5  and  N1_6 
REMARK    3  A    between atoms: C12_15  and  N3_16 
REMARK    4  A    between atoms: C16_22  and  C17_23 
REMARK    5  A    between atoms: C20_26  and  N5_27 
REMARK    6  A    between atoms: N5_27  and  C21_28 
ROOT
HETATM    1  N3  UNL     1      26.382   5.042  49.570  1.00  0.00    -0.185 N 
HETATM    2  C13 UNL     1      25.861   3.956  50.160  1.00  0.00     0.727 A 
HETATM    3  N4  UNL     1      24.523   4.001  49.814  1.00  0.00    -0.073 NA
HETATM    4  C14 UNL     1      23.512   3.213  50.088  1.00  0.00     0.162 A 
HETATM    5  C15 UNL     1      23.881   2.175  50.870  1.00  0.00     0.082 A 
HETATM    6 CL1  UNL     1      22.507   1.146  51.262  1.00  0.00    -0.080 Cl
HETATM    7  C16 UNL     1      25.210   2.021  51.302  1.00  0.00     0.109 A 
HETATM    8  N6  UNL     1      26.159   2.896  50.948  1.00  0.00    -0.060 NA
HETATM    9  H18 UNL     1      25.971   5.669  50.334  1.00  0.00     0.184 HD
ENDROOT
BRANCH   1  10
HETATM   10  C12 UNL     1      26.917   6.122  48.974  1.00  0.00     0.082 A 
HETATM   11  C2  UNL     1      26.361   7.292  49.671  1.00  0.00     0.097 A 
HETATM   12  C3  UNL     1      26.769   8.654  49.403  1.00  0.00     0.068 A 
HETATM   13  C4  UNL     1      27.738   8.692  48.398  1.00  0.00     0.033 A 
HETATM   14  C10 UNL     1      28.280   7.656  47.720  1.00  0.00     0.032 A 
HETATM   15  C11 UNL     1      27.829   6.391  48.050  1.00  0.00     0.035 A 
BRANCH  11  16
HETATM   16  O1  UNL     1      25.372   6.973  50.626  1.00  0.00    -0.354 OA
HETATM   17  C1  UNL     1      24.182   7.668  50.693  1.00  0.00     0.210 C 
ENDBRANCH  11  16
BRANCH  13  18
HETATM   18  N1  UNL     1      27.937  10.112  48.396  1.00  0.00    -0.377 N 
HETATM   19  C5  UNL     1      29.211  10.565  48.917  1.00  0.00     0.153 C 
HETATM   20  C6  UNL     1      29.691  11.548  47.852  1.00  0.00     0.291 C 
HETATM   21  N2  UNL     1      28.888  12.741  47.858  1.00  0.00     0.087 N 
HETATM   22  C7  UNL     1      28.970  13.367  46.542  1.00  0.00     0.310 C 
HETATM   23  C8  UNL     1      27.533  12.529  48.306  1.00  0.00     0.291 C 
HETATM   24  C9  UNL     1      27.031  11.163  47.890  1.00  0.00     0.153 C 
ENDBRANCH  13  18
ENDBRANCH   1  10
BRANCH   7  25
HETATM   25  C17 UNL     1      25.484   0.982  52.186  1.00  0.00    -0.006 A 
HETATM   26  C18 UNL     1      26.492   0.120  52.019  1.00  0.00    -0.007 A 
HETATM   27  C19 UNL     1      26.599  -0.921  53.139  1.00  0.00     0.087 A 
HETATM   28  C20 UNL     1      25.418  -0.441  53.996  1.00  0.00     0.043 A 
HETATM   29  C22 UNL     1      24.869   0.604  53.400  1.00  0.00     0.041 A 
BRANCH  28  30
HETATM   30  N5  UNL     1      25.158  -1.134  55.200  1.00  0.00    -0.210 NA
BRANCH  30  31
HETATM   31  C21 UNL     1      23.948  -1.258  55.650  1.00  0.00     0.337 C 
HETATM   32  O2  UNL     1      22.761  -1.722  55.607  1.00  0.00    -0.260 OA
ENDBRANCH  30  31
ENDBRANCH  28  30
ENDBRANCH   7  25
TORSDOF 6
ENDMDL
MODEL 4
REMARK VINA RESULT:      -8.1      4.062     10.535
REMARK  6 active torsions:
REMARK  status: ('A' for Active; 'I' for Inactive)
REMARK    1  A    between atoms: O1_2  and  C2_3 
REMARK    2  A    between atoms: C4_5  and  N1_6 
REMARK    3  A    between atoms: C12_15  and  N3_16 
REMARK    4  A    between atoms: C16_22  and  C17_23 
REMARK    5  A    between atoms: C20_26  and  N5_27 
REMARK    6  A    between atoms: N5_27  and  C21_28 
ROOT
HETATM    1  N3  UNL     1      26.460   4.750  48.978  1.00  0.00    -0.185 N 
HETATM    2  C13 UNL     1      27.674   5.181  48.605  1.00  0.00     0.727 A 
HETATM    3  N4  UNL     1      27.433   6.434  48.072  1.00  0.00    -0.073 NA
HETATM    4  C14 UNL     1      28.223   7.340  47.549  1.00  0.00     0.162 A 
HETATM    5  C15 UNL     1      29.511   6.934  47.533  1.00  0.00     0.082 A 
HETATM    6 CL1  UNL     1      30.555   8.144  46.793  1.00  0.00    -0.080 Cl
HETATM    7  C16 UNL     1      29.888   5.676  48.033  1.00  0.00     0.109 A 
HETATM    8  N6  UNL     1      28.982   4.836  48.550  1.00  0.00    -0.060 NA
HETATM    9  H18 UNL     1      26.215   4.522  47.961  1.00  0.00     0.184 HD
ENDROOT
BRANCH   1  10
HETATM   10  C12 UNL     1      25.249   4.313  49.366  1.00  0.00     0.082 A 
HETATM   11  C2  UNL     1      25.485   3.404  50.497  1.00  0.00     0.097 A 
HETATM   12  C3  UNL     1      24.425   2.801  51.276  1.00  0.00     0.068 A 
HETATM   13  C4  UNL     1      23.174   3.192  50.795  1.00  0.00     0.033 A 
HETATM   14  C10 UNL     1      22.895   4.015  49.760  1.00  0.00     0.032 A 
HETATM   15  C11 UNL     1      23.976   4.546  49.079  1.00  0.00     0.035 A 
BRANCH  11  16
HETATM   16  O1  UNL     1      26.849   3.154  50.756  1.00  0.00    -0.354 OA
HETATM   17  C1  UNL     1      27.252   2.397  51.838  1.00  0.00     0.210 C 
ENDBRANCH  11  16
BRANCH  13  18
HETATM   18  N1  UNL     1      22.382   2.479  51.755  1.00  0.00    -0.377 N 
HETATM   19  C5  UNL     1      21.281   3.224  52.333  1.00  0.00     0.153 C 
HETATM   20  C6  UNL     1      20.105   2.259  52.205  1.00  0.00     0.291 C 
HETATM   21  N2  UNL     1      20.257   1.144  53.100  1.00  0.00     0.087 N 
HETATM   22  C7  UNL     1      19.491   0.017  52.579  1.00  0.00     0.310 C 
HETATM   23  C8  UNL     1      21.631   0.814  53.392  1.00  0.00     0.291 C 
HETATM   24  C9  UNL     1      22.518   1.075  52.194  1.00  0.00     0.153 C 
ENDBRANCH  13  18
ENDBRANCH   1  10
BRANCH   7  25
HETATM   25  C17 UNL     1      31.219   5.296  47.886  1.00  0.00    -0.006 A 
HETATM   26  C18 UNL     1      31.605   4.217  47.197  1.00  0.00    -0.007 A 
HETATM   27  C19 UNL     1      33.125   4.024  47.163  1.00  0.00     0.087 A 
HETATM   28  C20 UNL     1      33.520   5.260  47.986  1.00  0.00     0.043 A 
HETATM   29  C22 UNL     1      32.415   5.896  48.337  1.00  0.00     0.041 A 
BRANCH  28  30
HETATM   30  N5  UNL     1      34.898   5.499  48.189  1.00  0.00    -0.210 NA
BRANCH  30  31
HETATM   31  C21 UNL     1      35.324   6.665  48.565  1.00  0.00     0.337 C 
HETATM   32  O2  UNL     1      35.348   7.938  48.512  1.00  0.00    -0.260 OA
ENDBRANCH  30  31
ENDBRANCH  28  30
ENDBRANCH   7  25
TORSDOF 6
ENDMDL
MODEL 5
REMARK VINA RESULT:      -8.0      1.795      2.785
REMARK  6 active torsions:
REMARK  status: ('A' for Active; 'I' for Inactive)
REMARK    1  A    between atoms: O1_2  and  C2_3 
REMARK    2  A    between atoms: C4_5  and  N1_6 
REMARK    3  A    between atoms: C12_15  and  N3_16 
REMARK    4  A    between atoms: C16_22  and  C17_23 
REMARK    5  A    between atoms: C20_26  and  N5_27 
REMARK    6  A    between atoms: N5_27  and  C21_28 
ROOT
HETATM    1  N3  UNL     1      25.460   5.895  50.242  1.00  0.00    -0.185 N 
HETATM    2  C13 UNL     1      25.014   4.661  50.518  1.00  0.00     0.727 A 
HETATM    3  N4  UNL     1      23.905   4.518  49.704  1.00  0.00    -0.073 NA
HETATM    4  C14 UNL     1      23.059   3.533  49.526  1.00  0.00     0.162 A 
HETATM    5  C15 UNL     1      23.347   2.475  50.314  1.00  0.00     0.082 A 
HETATM    6 CL1  UNL     1      22.181   1.174  50.095  1.00  0.00    -0.080 Cl
HETATM    7  C16 UNL     1      24.441   2.497  51.198  1.00  0.00     0.109 A 
HETATM    8  N6  UNL     1      25.240   3.567  51.284  1.00  0.00    -0.060 NA
HETATM    9  H18 UNL     1      24.682   6.323  50.840  1.00  0.00     0.184 HD
ENDROOT
BRANCH   1  10
HETATM   10  C12 UNL     1      25.922   7.127  49.965  1.00  0.00     0.082 A 
HETATM   11  C2  UNL     1      26.974   6.952  48.953  1.00  0.00     0.097 A 
HETATM   12  C3  UNL     1      27.654   8.052  48.305  1.00  0.00     0.068 A 
HETATM   13  C4  UNL     1      27.181   9.276  48.782  1.00  0.00     0.033 A 
HETATM   14  C10 UNL     1      26.225   9.499  49.711  1.00  0.00     0.032 A 
HETATM   15  C11 UNL     1      25.630   8.383  50.272  1.00  0.00     0.035 A 
BRANCH  11  16
HETATM   16  O1  UNL     1      27.280   5.604  48.673  1.00  0.00    -0.354 OA
HETATM   17  C1  UNL     1      28.558   5.209  48.330  1.00  0.00     0.210 C 
ENDBRANCH  11  16
BRANCH  13  18
HETATM   18  N1  UNL     1      27.998  10.118  47.956  1.00  0.00    -0.377 N 
HETATM   19  C5  UNL     1      29.030  10.862  48.651  1.00  0.00     0.153 C 
HETATM   20  C6  UNL     1      30.274  10.602  47.805  1.00  0.00     0.291 C 
HETATM   21  N2  UNL     1      30.179  11.271  46.536  1.00  0.00     0.087 N 
HETATM   22  C7  UNL     1      31.035  10.580  45.577  1.00  0.00     0.310 C 
HETATM   23  C8  UNL     1      28.825  11.448  46.069  1.00  0.00     0.291 C 
HETATM   24  C9  UNL     1      27.951  10.287  46.490  1.00  0.00     0.153 C 
ENDBRANCH  13  18
ENDBRANCH   1  10
BRANCH   7  25
HETATM   25  C17 UNL     1      24.607   1.405  52.045  1.00  0.00    -0.006 A 
HETATM   26  C18 UNL     1      25.695   0.629  52.041  1.00  0.00    -0.007 A 
HETATM   27  C19 UNL     1      25.649  -0.495  53.081  1.00  0.00     0.087 A 
HETATM   28  C20 UNL     1      24.279  -0.169  53.694  1.00  0.00     0.043 A 
HETATM   29  C22 UNL     1      23.783   0.885  53.068  1.00  0.00     0.041 A 
BRANCH  28  30
HETATM   30  N5  UNL     1      23.828  -0.979  54.761  1.00  0.00    -0.210 NA
BRANCH  30  31
HETATM   31  C21 UNL     1      22.562  -1.171  54.964  1.00  0.00     0.337 C 
HETATM   32  O2  UNL     1      21.512  -1.893  54.990  1.00  0.00    -0.260 OA
ENDBRANCH  30  31
ENDBRANCH  28  30
ENDBRANCH   7  25
TORSDOF 6
ENDMDL
MODEL 6
REMARK VINA RESULT:      -8.0      2.729      3.432
REMARK  6 active torsions:
REMARK  status: ('A' for Active; 'I' for Inactive)
REMARK    1  A    between atoms: O1_2  and  C2_3 
REMARK    2  A    between atoms: C4_5  and  N1_6 
REMARK    3  A    between atoms: C12_15  and  N3_16 
REMARK    4  A    between atoms: C16_22  and  C17_23 
REMARK    5  A    between atoms: C20_26  and  N5_27 
REMARK    6  A    between atoms: N5_27  and  C21_28 
ROOT
HETATM    1  N3  UNL     1      27.162   5.211  49.077  1.00  0.00    -0.185 N 
HETATM    2  C13 UNL     1      26.570   4.196  49.723  1.00  0.00     0.727 A 
HETATM    3  N4  UNL     1      25.248   4.273  49.324  1.00  0.00    -0.073 NA
HETATM    4  C14 UNL     1      24.193   3.553  49.615  1.00  0.00     0.162 A 
HETATM    5  C15 UNL     1      24.485   2.561  50.484  1.00  0.00     0.082 A 
HETATM    6 CL1  UNL     1      23.052   1.625  50.897  1.00  0.00    -0.080 Cl
HETATM    7  C16 UNL     1      25.790   2.382  50.977  1.00  0.00     0.109 A 
HETATM    8  N6  UNL     1      26.791   3.186  50.597  1.00  0.00    -0.060 NA
HETATM    9  H18 UNL     1      26.753   5.911  49.777  1.00  0.00     0.184 HD
ENDROOT
BRANCH   1  10
HETATM   10  C12 UNL     1      27.767   6.220  48.425  1.00  0.00     0.082 A 
HETATM   11  C2  UNL     1      27.015   7.436  48.764  1.00  0.00     0.097 A 
HETATM   12  C3  UNL     1      27.409   8.765  48.349  1.00  0.00     0.068 A 
HETATM   13  C4  UNL     1      28.577   8.718  47.585  1.00  0.00     0.033 A 
HETATM   14  C10 UNL     1      29.306   7.635  47.236  1.00  0.00     0.032 A 
HETATM   15  C11 UNL     1      28.850   6.408  47.684  1.00  0.00     0.035 A 
BRANCH  11  16
HETATM   16  O1  UNL     1      25.852   7.197  49.527  1.00  0.00    -0.354 OA
HETATM   17  C1  UNL     1      25.138   8.230  50.099  1.00  0.00     0.210 C 
ENDBRANCH  11  16
BRANCH  13  18
HETATM   18  N1  UNL     1      28.707  10.131  47.369  1.00  0.00    -0.377 N 
HETATM   19  C5  UNL     1      27.851  10.686  46.340  1.00  0.00     0.153 C 
HETATM   20  C6  UNL     1      27.236  11.906  47.021  1.00  0.00     0.291 C 
HETATM   21  N2  UNL     1      28.222  12.932  47.222  1.00  0.00     0.087 N 
HETATM   22  C7  UNL     1      27.794  13.784  48.327  1.00  0.00     0.310 C 
HETATM   23  C8  UNL     1      29.566  12.428  47.378  1.00  0.00     0.291 C 
HETATM   24  C9  UNL     1      29.564  11.093  48.091  1.00  0.00     0.153 C 
ENDBRANCH  13  18
ENDBRANCH   1  10
BRANCH   7  25
HETATM   25  C17 UNL     1      25.984   1.400  51.945  1.00  0.00    -0.006 A 
HETATM   26  C18 UNL     1      25.608   1.539  53.221  1.00  0.00    -0.007 A 
HETATM   27  C19 UNL     1      25.912   0.311  54.085  1.00  0.00     0.087 A 
HETATM   28  C20 UNL     1      26.539  -0.573  52.996  1.00  0.00     0.043 A 
HETATM   29  C22 UNL     1      26.535   0.103  51.859  1.00  0.00     0.041 A 
BRANCH  28  30
HETATM   30  N5  UNL     1      26.958  -1.870  53.366  1.00  0.00    -0.210 NA
BRANCH  30  31
HETATM   31  C21 UNL     1      28.184  -2.253  53.183  1.00  0.00     0.337 C 
HETATM   32  O2  UNL     1      29.226  -2.917  53.495  1.00  0.00    -0.260 OA
ENDBRANCH  30  31
ENDBRANCH  28  30
ENDBRANCH   7  25
TORSDOF 6
ENDMDL
MODEL 7
REMARK VINA RESULT:      -7.9      1.665      1.899
REMARK  6 active torsions:
REMARK  status: ('A' for Active; 'I' for Inactive)
REMARK    1  A    between atoms: O1_2  and  C2_3 
REMARK    2  A    between atoms: C4_5  and  N1_6 
REMARK    3  A    between atoms: C12_15  and  N3_16 
REMARK    4  A    between atoms: C16_22  and  C17_23 
REMARK    5  A    between atoms: C20_26  and  N5_27 
REMARK    6  A    between atoms: N5_27  and  C21_28 
ROOT
HETATM    1  N3  UNL     1      25.574   3.985  49.962  1.00  0.00    -0.185 N 
HETATM    2  C13 UNL     1      24.700   3.202  50.612  1.00  0.00     0.727 A 
HETATM    3  N4  UNL     1      25.503   2.330  51.325  1.00  0.00    -0.073 NA
HETATM    4  C14 UNL     1      25.228   1.344  52.144  1.00  0.00     0.162 A 
HETATM    5  C15 UNL     1      23.897   1.164  52.285  1.00  0.00     0.082 A 
HETATM    6 CL1  UNL     1      23.541  -0.188  53.357  1.00  0.00    -0.080 Cl
HETATM    7  C16 UNL     1      22.973   1.976  51.605  1.00  0.00     0.109 A 
HETATM    8  N6  UNL     1      23.380   2.962  50.795  1.00  0.00    -0.060 NA
HETATM    9  H18 UNL     1      25.757   3.208  49.248  1.00  0.00     0.184 HD
ENDROOT
BRANCH   1  10
HETATM   10  C12 UNL     1      26.441   4.783  49.314  1.00  0.00     0.082 A 
HETATM   11  C2  UNL     1      25.907   6.148  49.431  1.00  0.00     0.097 A 
HETATM   12  C3  UNL     1      26.603   7.324  48.957  1.00  0.00     0.068 A 
HETATM   13  C4  UNL     1      27.824   6.976  48.375  1.00  0.00     0.033 A 
HETATM   14  C10 UNL     1      28.362   5.744  48.233  1.00  0.00     0.032 A 
HETATM   15  C11 UNL     1      27.622   4.682  48.721  1.00  0.00     0.035 A 
BRANCH  11  16
HETATM   16  O1  UNL     1      24.636   6.216  50.039  1.00  0.00    -0.354 OA
HETATM   17  C1  UNL     1      24.212   7.350  50.703  1.00  0.00     0.210 C 
ENDBRANCH  11  16
BRANCH  13  18
HETATM   18  N1  UNL     1      28.254   8.306  48.052  1.00  0.00    -0.377 N 
HETATM   19  C5  UNL     1      27.466   9.375  48.632  1.00  0.00     0.153 C 
HETATM   20  C6  UNL     1      28.524  10.302  49.226  1.00  0.00     0.291 C 
HETATM   21  N2  UNL     1      29.267  10.963  48.188  1.00  0.00     0.087 N 
HETATM   22  C7  UNL     1      30.569  11.354  48.719  1.00  0.00     0.310 C 
HETATM   23  C8  UNL     1      29.356  10.207  46.962  1.00  0.00     0.291 C 
HETATM   24  C9  UNL     1      29.419   8.721  47.245  1.00  0.00     0.153 C 
ENDBRANCH  13  18
ENDBRANCH   1  10
BRANCH   7  25
HETATM   25  C17 UNL     1      21.623   1.660  51.728  1.00  0.00    -0.006 A 
HETATM   26  C18 UNL     1      20.724   2.474  52.290  1.00  0.00    -0.007 A 
HETATM   27  C19 UNL     1      19.300   1.909  52.288  1.00  0.00     0.087 A 
HETATM   28  C20 UNL     1      19.594   0.579  51.576  1.00  0.00     0.043 A 
HETATM   29  C22 UNL     1      20.888   0.530  51.307  1.00  0.00     0.041 A 
BRANCH  28  30
HETATM   30  N5  UNL     1      18.505  -0.287  51.330  1.00  0.00    -0.210 NA
BRANCH  30  31
HETATM   31  C21 UNL     1      17.871  -0.857  52.307  1.00  0.00     0.337 C 
HETATM   32  O2  UNL     1      17.337  -0.864  53.464  1.00  0.00    -0.260 OA
ENDBRANCH  30  31
ENDBRANCH  28  30
ENDBRANCH   7  25
TORSDOF 6
ENDMDL
MODEL 8
REMARK VINA RESULT:      -7.8      6.882      9.247
REMARK  6 active torsions:
REMARK  status: ('A' for Active; 'I' for Inactive)
REMARK    1  A    between atoms: O1_2  and  C2_3 
REMARK    2  A    between atoms: C4_5  and  N1_6 
REMARK    3  A    between atoms: C12_15  and  N3_16 
REMARK    4  A    between atoms: C16_22  and  C17_23 
REMARK    5  A    between atoms: C20_26  and  N5_27 
REMARK    6  A    between atoms: N5_27  and  C21_28 
ROOT
HETATM    1  N3  UNL     1      21.139   1.446  52.131  1.00  0.00    -0.185 N 
HETATM    2  C13 UNL     1      19.858   1.291  51.765  1.00  0.00     0.727 A 
HETATM    3  N4  UNL     1      19.340   2.573  51.819  1.00  0.00    -0.073 NA
HETATM    4  C14 UNL     1      18.148   3.057  51.568  1.00  0.00     0.162 A 
HETATM    5  C15 UNL     1      17.280   2.089  51.202  1.00  0.00     0.082 A 
HETATM    6 CL1  UNL     1      15.673   2.746  50.906  1.00  0.00    -0.080 Cl
HETATM    7  C16 UNL     1      17.677   0.743  51.120  1.00  0.00     0.109 A 
HETATM    8  N6  UNL     1      18.934   0.373  51.398  1.00  0.00    -0.060 NA
HETATM    9  H18 UNL     1      20.847   1.531  53.158  1.00  0.00     0.184 HD
ENDROOT
BRANCH   1  10
HETATM   10  C12 UNL     1      22.428   1.591  52.487  1.00  0.00     0.082 A 
HETATM   11  C2  UNL     1      22.829   0.316  53.099  1.00  0.00     0.097 A 
HETATM   12  C3  UNL     1      24.181   0.019  53.521  1.00  0.00     0.068 A 
HETATM   13  C4  UNL     1      25.024   1.105  53.278  1.00  0.00     0.033 A 
HETATM   14  C10 UNL     1      24.713   2.300  52.727  1.00  0.00     0.032 A 
HETATM   15  C11 UNL     1      23.394   2.487  52.352  1.00  0.00     0.035 A 
BRANCH  11  16
HETATM   16  O1  UNL     1      21.770  -0.603  53.256  1.00  0.00    -0.354 OA
HETATM   17  C1  UNL     1      21.621  -1.344  54.411  1.00  0.00     0.210 C 
ENDBRANCH  11  16
BRANCH  13  18
HETATM   18  N1  UNL     1      26.234   0.503  53.759  1.00  0.00    -0.377 N 
HETATM   19  C5  UNL     1      26.358  -0.922  53.525  1.00  0.00     0.153 C 
HETATM   20  C6  UNL     1      27.761  -1.056  52.938  1.00  0.00     0.291 C 
HETATM   21  N2  UNL     1      28.762  -0.795  53.937  1.00  0.00     0.087 N 
HETATM   22  C7  UNL     1      29.989  -0.370  53.272  1.00  0.00     0.310 C 
HETATM   23  C8  UNL     1      28.330   0.113  54.972  1.00  0.00     0.291 C 
HETATM   24  C9  UNL     1      27.383   1.156  54.418  1.00  0.00     0.153 C 
ENDBRANCH  13  18
ENDBRANCH   1  10
BRANCH   7  25
HETATM   25  C17 UNL     1      16.696  -0.202  50.833  1.00  0.00    -0.006 A 
HETATM   26  C18 UNL     1      16.306  -0.504  49.590  1.00  0.00    -0.007 A 
HETATM   27  C19 UNL     1      15.228  -1.591  49.535  1.00  0.00     0.087 A 
HETATM   28  C20 UNL     1      15.102  -1.851  51.044  1.00  0.00     0.043 A 
HETATM   29  C22 UNL     1      15.943  -1.049  51.675  1.00  0.00     0.041 A 
BRANCH  28  30
HETATM   30  N5  UNL     1      14.193  -2.848  51.464  1.00  0.00    -0.210 NA
BRANCH  30  31
HETATM   31  C21 UNL     1      13.886  -3.841  50.687  1.00  0.00     0.337 C 
HETATM   32  O2  UNL     1      13.114  -4.771  50.283  1.00  0.00    -0.260 OA
ENDBRANCH  30  31
ENDBRANCH  28  30
ENDBRANCH   7  25
TORSDOF 6
ENDMDL
MODEL 9
REMARK VINA RESULT:      -7.7      5.856     11.469
REMARK  6 active torsions:
REMARK  status: ('A' for Active; 'I' for Inactive)
REMARK    1  A    between atoms: O1_2  and  C2_3 
REMARK    2  A    between atoms: C4_5  and  N1_6 
REMARK    3  A    between atoms: C12_15  and  N3_16 
REMARK    4  A    between atoms: C16_22  and  C17_23 
REMARK    5  A    between atoms: C20_26  and  N5_27 
REMARK    6  A    between atoms: N5_27  and  C21_28 
ROOT
HETATM    1  N3  UNL     1      20.986   1.107  50.862  1.00  0.00    -0.185 N 
HETATM    2  C13 UNL     1      22.279   1.431  51.008  1.00  0.00     0.727 A 
HETATM    3  N4  UNL     1      22.530   2.285  49.950  1.00  0.00    -0.073 NA
HETATM    4  C14 UNL     1      23.606   2.928  49.567  1.00  0.00     0.162 A 
HETATM    5  C15 UNL     1      24.657   2.674  50.376  1.00  0.00     0.082 A 
HETATM    6 CL1  UNL     1      26.106   3.512  49.829  1.00  0.00    -0.080 Cl
HETATM    7  C16 UNL     1      24.539   1.811  51.480  1.00  0.00     0.109 A 
HETATM    8  N6  UNL     1      23.376   1.215  51.772  1.00  0.00    -0.060 NA
HETATM    9  H18 UNL     1      21.234   0.426  50.073  1.00  0.00     0.184 HD
ENDROOT
BRANCH   1  10
HETATM   10  C12 UNL     1      19.687   0.784  50.730  1.00  0.00     0.082 A 
HETATM   11  C2  UNL     1      19.354  -0.054  51.892  1.00  0.00     0.097 A 
HETATM   12  C3  UNL     1      18.018  -0.523  52.185  1.00  0.00     0.068 A 
HETATM   13  C4  UNL     1      17.115  -0.083  51.215  1.00  0.00     0.033 A 
HETATM   14  C10 UNL     1      17.362   0.679  50.127  1.00  0.00     0.032 A 
HETATM   15  C11 UNL     1      18.671   1.083  49.934  1.00  0.00     0.035 A 
BRANCH  11  16
HETATM   16  O1  UNL     1      20.464  -0.378  52.701  1.00  0.00    -0.354 OA
HETATM   17  C1  UNL     1      20.308  -0.983  53.932  1.00  0.00     0.210 C 
ENDBRANCH  11  16
BRANCH  13  18
HETATM   18  N1  UNL     1      15.937  -0.667  51.789  1.00  0.00    -0.377 N 
HETATM   19  C5  UNL     1      15.271   0.134  52.796  1.00  0.00     0.153 C 
HETATM   20  C6  UNL     1      13.808   0.092  52.360  1.00  0.00     0.291 C 
HETATM   21  N2  UNL     1      13.252  -1.219  52.557  1.00  0.00     0.087 N 
HETATM   22  C7  UNL     1      12.122  -1.391  51.649  1.00  0.00     0.310 C 
HETATM   23  C8  UNL     1      14.222  -2.284  52.467  1.00  0.00     0.291 C 
HETATM   24  C9  UNL     1      15.296  -1.955  51.453  1.00  0.00     0.153 C 
ENDBRANCH  13  18
ENDBRANCH   1  10
BRANCH   7  25
HETATM   25  C17 UNL     1      25.694   1.525  52.202  1.00  0.00    -0.006 A 
HETATM   26  C18 UNL     1      26.069   2.204  53.291  1.00  0.00    -0.007 A 
HETATM   27  C19 UNL     1      27.366   1.684  53.920  1.00  0.00     0.087 A 
HETATM   28  C20 UNL     1      27.640   0.536  52.937  1.00  0.00     0.043 A 
HETATM   29  C22 UNL     1      26.675   0.523  52.033  1.00  0.00     0.041 A 
BRANCH  28  30
HETATM   30  N5  UNL     1      28.781  -0.266  53.167  1.00  0.00    -0.210 NA
BRANCH  30  31
HETATM   31  C21 UNL     1      28.665  -1.528  53.442  1.00  0.00     0.337 C 
HETATM   32  O2  UNL     1      29.051  -2.742  53.392  1.00  0.00    -0.260 OA
ENDBRANCH  30  31
ENDBRANCH  28  30
ENDBRANCH   7  25
TORSDOF 6
ENDMDL
