MODEL 1
REMARK VINA RESULT:      -8.6      0.000      0.000
REMARK  3 active torsions:
REMARK  status: ('A' for Active; 'I' for Inactive)
REMARK       I    between atoms: C3_3  and  N1_5 
REMARK    1  A    between atoms: N1_5  and  C4_6 
REMARK    2  A    between atoms: C9_13  and  N4_14 
REMARK    3  A    between atoms: N4_14  and  C10_15 
ROOT
HETATM    1  C1  UNL     1      30.128  -0.416  53.761  1.00  0.00     0.022 C 
HETATM    2  C2  UNL     1      28.964  -0.244  54.012  1.00  0.00    -0.016 C 
HETATM    3  C3  UNL     1      27.577  -0.059  54.306  1.00  0.00     0.300 C 
HETATM    4  O1  UNL     1      27.290   0.947  54.990  1.00  0.00    -0.258 OA
HETATM    5  N1  UNL     1      26.524  -0.900  53.897  1.00  0.00    -0.316 N 
HETATM    6  H2  UNL     1      26.912  -1.700  53.335  1.00  0.00     0.170 HD
ENDROOT
BRANCH   5   7
HETATM    7  C4  UNL     1      25.141  -0.797  54.137  1.00  0.00     0.036 A 
HETATM    8  C5  UNL     1      24.459  -1.313  55.202  1.00  0.00     0.032 A 
HETATM    9  C6  UNL     1      23.102  -1.192  55.396  1.00  0.00     0.035 A 
HETATM   10  C7  UNL     1      22.388  -0.500  54.449  1.00  0.00     0.072 A 
HETATM   11  N2  UNL     1      21.044  -0.400  54.671  1.00  0.00    -0.241 NA
HETATM   12  C16 UNL     1      23.029   0.050  53.340  1.00  0.00     0.041 A 
HETATM   13  C8  UNL     1      20.333   0.271  53.751  1.00  0.00     0.236 A 
HETATM   14  N3  UNL     1      20.909   0.814  52.673  1.00  0.00    -0.224 NA
HETATM   15  C9  UNL     1      22.226   0.721  52.446  1.00  0.00     0.142 A 
HETATM   16  C17 UNL     1      24.373  -0.116  53.222  1.00  0.00     0.047 A 
BRANCH  15  17
HETATM   17  N4  UNL     1      22.795   1.300  51.307  1.00  0.00    -0.340 N 
HETATM   18  H6  UNL     1      22.890   0.805  50.395  1.00  0.00     0.167 HD
BRANCH  17  19
HETATM   19  C10 UNL     1      23.337   2.601  51.135  1.00  0.00     0.035 A 
HETATM   20  C11 UNL     1      22.794   3.786  51.647  1.00  0.00     0.029 A 
HETATM   21  C12 UNL     1      23.321   5.027  51.492  1.00  0.00     0.004 A 
HETATM   22  C13 UNL     1      24.484   5.179  50.779  1.00  0.00     0.019 A 
HETATM   23  C14 UNL     1      25.078   4.082  50.247  1.00  0.00     0.013 A 
HETATM   24 BR1  UNL     1      26.702   4.349  49.261  1.00  0.00    -0.051 Br
HETATM   25  C15 UNL     1      24.500   2.835  50.435  1.00  0.00     0.048 A 
ENDBRANCH  17  19
ENDBRANCH  15  17
ENDBRANCH   5   7
TORSDOF 3
ENDMDL
MODEL 2
REMARK VINA RESULT:      -8.0      2.271      5.123
REMARK  3 active torsions:
REMARK  status: ('A' for Active; 'I' for Inactive)
REMARK       I    between atoms: C3_3  and  N1_5 
REMARK    1  A    between atoms: N1_5  and  C4_6 
REMARK    2  A    between atoms: C9_13  and  N4_14 
REMARK    3  A    between atoms: N4_14  and  C10_15 
ROOT
HETATM    1  C1  UNL     1      18.529  -0.152  51.535  1.00  0.00     0.022 C 
HETATM    2  C2  UNL     1      19.568   0.017  52.118  1.00  0.00    -0.016 C 
HETATM    3  C3  UNL     1      20.812   0.203  52.799  1.00  0.00     0.300 C 
HETATM    4  O1  UNL     1      20.911   1.242  53.487  1.00  0.00    -0.258 OA
HETATM    5  N1  UNL     1      21.915  -0.671  52.762  1.00  0.00    -0.316 N 
HETATM    6  H2  UNL     1      21.690  -1.495  52.148  1.00  0.00     0.170 HD
ENDROOT
BRANCH   5   7
HETATM    7  C4  UNL     1      23.168  -0.570  53.395  1.00  0.00     0.036 A 
HETATM    8  C5  UNL     1      23.483  -1.003  54.651  1.00  0.00     0.032 A 
HETATM    9  C6  UNL     1      24.725  -0.881  55.234  1.00  0.00     0.035 A 
HETATM   10  C7  UNL     1      25.713  -0.281  54.493  1.00  0.00     0.072 A 
HETATM   11  N2  UNL     1      26.932  -0.174  55.102  1.00  0.00    -0.241 NA
HETATM   12  C16 UNL     1      25.452   0.181  53.203  1.00  0.00     0.041 A 
HETATM   13  C8  UNL     1      27.906   0.414  54.390  1.00  0.00     0.236 A 
HETATM   14  N3  UNL     1      27.698   0.871  53.151  1.00  0.00    -0.224 NA
HETATM   15  C9  UNL     1      26.506   0.770  52.545  1.00  0.00     0.142 A 
HETATM   16  C17 UNL     1      24.198   0.022  52.702  1.00  0.00     0.047 A 
BRANCH  15  17
HETATM   17  N4  UNL     1      26.323   1.261  51.248  1.00  0.00    -0.340 N 
HETATM   18  H6  UNL     1      26.434   0.678  50.391  1.00  0.00     0.167 HD
BRANCH  17  19
HETATM   19  C10 UNL     1      25.969   2.568  50.824  1.00  0.00     0.035 A 
HETATM   20  C11 UNL     1      26.653   3.330  49.868  1.00  0.00     0.029 A 
HETATM   21  C12 UNL     1      26.305   4.575  49.454  1.00  0.00     0.004 A 
HETATM   22  C13 UNL     1      25.194   5.176  49.993  1.00  0.00     0.019 A 
HETATM   23  C14 UNL     1      24.473   4.508  50.927  1.00  0.00     0.013 A 
HETATM   24 BR1  UNL     1      22.930   5.391  51.648  1.00  0.00    -0.051 Br
HETATM   25  C15 UNL     1      24.870   3.236  51.316  1.00  0.00     0.048 A 
ENDBRANCH  17  19
ENDBRANCH  15  17
ENDBRANCH   5   7
TORSDOF 3
ENDMDL
MODEL 3
REMARK VINA RESULT:      -7.9      2.670      5.458
REMARK  3 active torsions:
REMARK  status: ('A' for Active; 'I' for Inactive)
REMARK       I    between atoms: C3_3  and  N1_5 
REMARK    1  A    between atoms: N1_5  and  C4_6 
REMARK    2  A    between atoms: C9_13  and  N4_14 
REMARK    3  A    between atoms: N4_14  and  C10_15 
ROOT
HETATM    1  C1  UNL     1      18.005  -0.046  51.453  1.00  0.00     0.022 C 
HETATM    2  C2  UNL     1      19.082   0.185  51.936  1.00  0.00    -0.016 C 
HETATM    3  C3  UNL     1      20.372   0.452  52.494  1.00  0.00     0.300 C 
HETATM    4  O1  UNL     1      20.405   1.277  53.432  1.00  0.00    -0.258 OA
HETATM    5  N1  UNL     1      21.588  -0.128  52.083  1.00  0.00    -0.316 N 
HETATM    6  H2  UNL     1      21.408  -0.797  51.291  1.00  0.00     0.170 HD
ENDROOT
BRANCH   5   7
HETATM    7  C4  UNL     1      22.894   0.073  52.570  1.00  0.00     0.036 A 
HETATM    8  C5  UNL     1      23.479  -0.575  53.619  1.00  0.00     0.032 A 
HETATM    9  C6  UNL     1      24.762  -0.345  54.065  1.00  0.00     0.035 A 
HETATM   10  C7  UNL     1      25.499   0.605  53.402  1.00  0.00     0.072 A 
HETATM   11  N2  UNL     1      26.766   0.809  53.871  1.00  0.00    -0.241 NA
HETATM   12  C16 UNL     1      24.955   1.299  52.322  1.00  0.00     0.041 A 
HETATM   13  C8  UNL     1      27.497   1.737  53.234  1.00  0.00     0.236 A 
HETATM   14  N3  UNL     1      27.013   2.426  52.195  1.00  0.00    -0.224 NA
HETATM   15  C9  UNL     1      25.773   2.231  51.727  1.00  0.00     0.142 A 
HETATM   16  C17 UNL     1      23.680   1.012  51.946  1.00  0.00     0.047 A 
BRANCH  15  17
HETATM   17  N4  UNL     1      25.298   2.971  50.638  1.00  0.00    -0.340 N 
HETATM   18  H6  UNL     1      24.412   2.751  50.135  1.00  0.00     0.167 HD
BRANCH  17  19
HETATM   19  C10 UNL     1      25.866   4.109  50.009  1.00  0.00     0.035 A 
HETATM   20  C11 UNL     1      26.979   4.103  49.159  1.00  0.00     0.029 A 
HETATM   21  C12 UNL     1      27.513   5.191  48.549  1.00  0.00     0.004 A 
HETATM   22  C13 UNL     1      26.944   6.423  48.755  1.00  0.00     0.019 A 
HETATM   23  C14 UNL     1      25.862   6.521  49.566  1.00  0.00     0.013 A 
HETATM   24 BR1  UNL     1      25.104   8.265  49.820  1.00  0.00    -0.051 Br
HETATM   25  C15 UNL     1      25.353   5.378  50.166  1.00  0.00     0.048 A 
ENDBRANCH  17  19
ENDBRANCH  15  17
ENDBRANCH   5   7
TORSDOF 3
ENDMDL
MODEL 4
REMARK VINA RESULT:      -7.6      1.704      1.985
REMARK  3 active torsions:
REMARK  status: ('A' for Active; 'I' for Inactive)
REMARK       I    between atoms: C3_3  and  N1_5 
REMARK    1  A    between atoms: N1_5  and  C4_6 
REMARK    2  A    between atoms: C9_13  and  N4_14 
REMARK    3  A    between atoms: N4_14  and  C10_15 
ROOT
HETATM    1  C1  UNL     1      28.844  -0.028  54.293  1.00  0.00     0.022 C 
HETATM    2  C2  UNL     1      27.654   0.134  54.222  1.00  0.00    -0.016 C 
HETATM    3  C3  UNL     1      26.236   0.305  54.145  1.00  0.00     0.300 C 
HETATM    4  O1  UNL     1      25.826   1.486  54.133  1.00  0.00    -0.258 OA
HETATM    5  N1  UNL     1      25.280  -0.725  54.079  1.00  0.00    -0.316 N 
HETATM    6  H2  UNL     1      25.766  -1.658  54.098  1.00  0.00     0.170 HD
ENDROOT
BRANCH   5   7
HETATM    7  C4  UNL     1      23.876  -0.651  54.000  1.00  0.00     0.036 A 
HETATM    8  C5  UNL     1      22.987  -0.982  54.982  1.00  0.00     0.032 A 
HETATM    9  C6  UNL     1      21.618  -0.896  54.862  1.00  0.00     0.035 A 
HETATM   10  C7  UNL     1      21.117  -0.443  53.666  1.00  0.00     0.072 A 
HETATM   11  N2  UNL     1      19.756  -0.373  53.579  1.00  0.00    -0.241 NA
HETATM   12  C16 UNL     1      21.976  -0.089  52.626  1.00  0.00     0.041 A 
HETATM   13  C8  UNL     1      19.252   0.065  52.414  1.00  0.00     0.236 A 
HETATM   14  N3  UNL     1      20.040   0.415  51.392  1.00  0.00    -0.224 NA
HETATM   15  C9  UNL     1      21.376   0.349  51.468  1.00  0.00     0.142 A 
HETATM   16  C17 UNL     1      23.315  -0.204  52.826  1.00  0.00     0.047 A 
BRANCH  15  17
HETATM   17  N4  UNL     1      22.171   0.721  50.378  1.00  0.00    -0.340 N 
HETATM   18  H6  UNL     1      22.648   0.037  49.753  1.00  0.00     0.167 HD
BRANCH  17  19
HETATM   19  C10 UNL     1      22.490   2.019  49.900  1.00  0.00     0.035 A 
HETATM   20  C11 UNL     1      22.481   2.421  48.558  1.00  0.00     0.029 A 
HETATM   21  C12 UNL     1      22.774   3.666  48.105  1.00  0.00     0.004 A 
HETATM   22  C13 UNL     1      23.113   4.646  49.005  1.00  0.00     0.019 A 
HETATM   23  C14 UNL     1      23.147   4.343  50.326  1.00  0.00     0.013 A 
HETATM   24 BR1  UNL     1      23.625   5.748  51.541  1.00  0.00    -0.051 Br
HETATM   25  C15 UNL     1      22.838   3.054  50.739  1.00  0.00     0.048 A 
ENDBRANCH  17  19
ENDBRANCH  15  17
ENDBRANCH   5   7
TORSDOF 3
ENDMDL
MODEL 5
REMARK VINA RESULT:      -7.6      2.094      2.372
REMARK  3 active torsions:
REMARK  status: ('A' for Active; 'I' for Inactive)
REMARK       I    between atoms: C3_3  and  N1_5 
REMARK    1  A    between atoms: N1_5  and  C4_6 
REMARK    2  A    between atoms: C9_13  and  N4_14 
REMARK    3  A    between atoms: N4_14  and  C10_15 
ROOT
HETATM    1  C1  UNL     1      29.780  -1.124  53.451  1.00  0.00     0.022 C 
HETATM    2  C2  UNL     1      28.644  -0.779  53.650  1.00  0.00    -0.016 C 
HETATM    3  C3  UNL     1      27.288  -0.381  53.869  1.00  0.00     0.300 C 
HETATM    4  O1  UNL     1      27.026   0.072  55.004  1.00  0.00    -0.258 OA
HETATM    5  N1  UNL     1      26.241  -0.455  52.931  1.00  0.00    -0.316 N 
HETATM    6  H2  UNL     1      26.605  -0.854  52.028  1.00  0.00     0.170 HD
ENDROOT
BRANCH   5   7
HETATM    7  C4  UNL     1      24.887  -0.089  53.058  1.00  0.00     0.036 A 
HETATM    8  C5  UNL     1      23.911  -0.794  53.701  1.00  0.00     0.032 A 
HETATM    9  C6  UNL     1      22.595  -0.399  53.799  1.00  0.00     0.035 A 
HETATM   10  C7  UNL     1      22.247   0.789  53.206  1.00  0.00     0.072 A 
HETATM   11  N2  UNL     1      20.934   1.149  53.320  1.00  0.00    -0.241 NA
HETATM   12  C16 UNL     1      23.201   1.553  52.535  1.00  0.00     0.041 A 
HETATM   13  C8  UNL     1      20.579   2.307  52.742  1.00  0.00     0.236 A 
HETATM   14  N3  UNL     1      21.462   3.070  52.089  1.00  0.00    -0.224 NA
HETATM   15  C9  UNL     1      22.752   2.725  51.972  1.00  0.00     0.142 A 
HETATM   16  C17 UNL     1      24.479   1.092  52.484  1.00  0.00     0.047 A 
BRANCH  15  17
HETATM   17  N4  UNL     1      23.649   3.547  51.280  1.00  0.00    -0.340 N 
HETATM   18  H6  UNL     1      24.633   3.707  51.582  1.00  0.00     0.167 HD
BRANCH  17  19
HETATM   19  C10 UNL     1      23.447   4.298  50.093  1.00  0.00     0.035 A 
HETATM   20  C11 UNL     1      23.818   5.635  49.899  1.00  0.00     0.029 A 
HETATM   21  C12 UNL     1      23.635   6.347  48.758  1.00  0.00     0.004 A 
HETATM   22  C13 UNL     1      23.038   5.745  47.678  1.00  0.00     0.019 A 
HETATM   23  C14 UNL     1      22.647   4.451  47.780  1.00  0.00     0.013 A 
HETATM   24 BR1  UNL     1      21.820   3.655  46.242  1.00  0.00    -0.051 Br
HETATM   25  C15 UNL     1      22.857   3.765  48.968  1.00  0.00     0.048 A 
ENDBRANCH  17  19
ENDBRANCH  15  17
ENDBRANCH   5   7
TORSDOF 3
ENDMDL
MODEL 6
REMARK VINA RESULT:      -7.5      2.778      4.277
REMARK  3 active torsions:
REMARK  status: ('A' for Active; 'I' for Inactive)
REMARK       I    between atoms: C3_3  and  N1_5 
REMARK    1  A    between atoms: N1_5  and  C4_6 
REMARK    2  A    between atoms: C9_13  and  N4_14 
REMARK    3  A    between atoms: N4_14  and  C10_15 
ROOT
HETATM    1  C1  UNL     1      27.731   5.370  48.445  1.00  0.00     0.022 C 
HETATM    2  C2  UNL     1      27.188   4.511  49.089  1.00  0.00    -0.016 C 
HETATM    3  C3  UNL     1      26.552   3.497  49.872  1.00  0.00     0.300 C 
HETATM    4  O1  UNL     1      25.536   2.971  49.368  1.00  0.00    -0.258 OA
HETATM    5  N1  UNL     1      26.966   3.048  51.140  1.00  0.00    -0.316 N 
HETATM    6  H2  UNL     1      27.827   3.576  51.436  1.00  0.00     0.170 HD
ENDROOT
BRANCH   5   7
HETATM    7  C4  UNL     1      26.407   2.063  51.977  1.00  0.00     0.036 A 
HETATM    8  C5  UNL     1      27.089   1.137  52.712  1.00  0.00     0.032 A 
HETATM    9  C6  UNL     1      26.500   0.188  53.518  1.00  0.00     0.035 A 
HETATM   10  C7  UNL     1      25.128   0.178  53.582  1.00  0.00     0.072 A 
HETATM   11  N2  UNL     1      24.576  -0.778  54.387  1.00  0.00    -0.241 NA
HETATM   12  C16 UNL     1      24.377   1.100  52.853  1.00  0.00     0.041 A 
HETATM   13  C8  UNL     1      23.236  -0.801  54.457  1.00  0.00     0.236 A 
HETATM   14  N3  UNL     1      22.479   0.065  53.774  1.00  0.00    -0.224 NA
HETATM   15  C9  UNL     1      23.011   1.006  52.982  1.00  0.00     0.142 A 
HETATM   16  C17 UNL     1      25.037   2.004  52.082  1.00  0.00     0.047 A 
BRANCH  15  17
HETATM   17  N4  UNL     1      22.189   1.895  52.281  1.00  0.00    -0.340 N 
HETATM   18  H6  UNL     1      21.614   2.633  52.741  1.00  0.00     0.167 HD
BRANCH  17  19
HETATM   19  C10 UNL     1      21.960   1.996  50.884  1.00  0.00     0.035 A 
HETATM   20  C11 UNL     1      21.573   0.946  50.041  1.00  0.00     0.029 A 
HETATM   21  C12 UNL     1      21.343   1.048  48.708  1.00  0.00     0.004 A 
HETATM   22  C13 UNL     1      21.491   2.266  48.092  1.00  0.00     0.019 A 
HETATM   23  C14 UNL     1      21.864   3.338  48.834  1.00  0.00     0.013 A 
HETATM   24 BR1  UNL     1      22.055   5.016  47.925  1.00  0.00    -0.051 Br
HETATM   25  C15 UNL     1      22.087   3.181  50.195  1.00  0.00     0.048 A 
ENDBRANCH  17  19
ENDBRANCH  15  17
ENDBRANCH   5   7
TORSDOF 3
ENDMDL
MODEL 7
REMARK VINA RESULT:      -7.5      1.624      2.072
REMARK  3 active torsions:
REMARK  status: ('A' for Active; 'I' for Inactive)
REMARK       I    between atoms: C3_3  and  N1_5 
REMARK    1  A    between atoms: N1_5  and  C4_6 
REMARK    2  A    between atoms: C9_13  and  N4_14 
REMARK    3  A    between atoms: N4_14  and  C10_15 
ROOT
HETATM    1  C1  UNL     1      29.262   0.044  54.274  1.00  0.00     0.022 C 
HETATM    2  C2  UNL     1      28.123  -0.159  53.945  1.00  0.00    -0.016 C 
HETATM    3  C3  UNL     1      26.766  -0.380  53.549  1.00  0.00     0.300 C 
HETATM    4  O1  UNL     1      26.461  -1.560  53.270  1.00  0.00    -0.258 OA
HETATM    5  N1  UNL     1      25.762   0.602  53.450  1.00  0.00    -0.316 N 
HETATM    6  H2  UNL     1      26.160   1.539  53.712  1.00  0.00     0.170 HD
ENDROOT
BRANCH   5   7
HETATM    7  C4  UNL     1      24.411   0.477  53.072  1.00  0.00     0.036 A 
HETATM    8  C5  UNL     1      23.454  -0.262  53.706  1.00  0.00     0.032 A 
HETATM    9  C6  UNL     1      22.142  -0.359  53.299  1.00  0.00     0.035 A 
HETATM   10  C7  UNL     1      21.776   0.342  52.176  1.00  0.00     0.072 A 
HETATM   11  N2  UNL     1      20.469   0.222  51.799  1.00  0.00    -0.241 NA
HETATM   12  C16 UNL     1      22.710   1.115  51.487  1.00  0.00     0.041 A 
HETATM   13  C8  UNL     1      20.098   0.899  50.701  1.00  0.00     0.236 A 
HETATM   14  N3  UNL     1      20.962   1.652  50.011  1.00  0.00    -0.224 NA
HETATM   15  C9  UNL     1      22.246   1.775  50.373  1.00  0.00     0.142 A 
HETATM   16  C17 UNL     1      23.986   1.156  51.954  1.00  0.00     0.047 A 
BRANCH  15  17
HETATM   17  N4  UNL     1      23.123   2.570  49.627  1.00  0.00    -0.340 N 
HETATM   18  H6  UNL     1      23.505   2.291  48.698  1.00  0.00     0.167 HD
BRANCH  17  19
HETATM   19  C10 UNL     1      23.660   3.848  49.934  1.00  0.00     0.035 A 
HETATM   20  C11 UNL     1      23.176   4.723  50.915  1.00  0.00     0.029 A 
HETATM   21  C12 UNL     1      23.699   5.939  51.215  1.00  0.00     0.004 A 
HETATM   22  C13 UNL     1      24.795   6.388  50.522  1.00  0.00     0.019 A 
HETATM   23  C14 UNL     1      25.328   5.604  49.552  1.00  0.00     0.013 A 
HETATM   24 BR1  UNL     1      26.860   6.278  48.614  1.00  0.00    -0.051 Br
HETATM   25  C15 UNL     1      24.757   4.368  49.284  1.00  0.00     0.048 A 
ENDBRANCH  17  19
ENDBRANCH  15  17
ENDBRANCH   5   7
TORSDOF 3
ENDMDL
MODEL 8
REMARK VINA RESULT:      -7.5      3.144      4.644
REMARK  3 active torsions:
REMARK  status: ('A' for Active; 'I' for Inactive)
REMARK       I    between atoms: C3_3  and  N1_5 
REMARK    1  A    between atoms: N1_5  and  C4_6 
REMARK    2  A    between atoms: C9_13  and  N4_14 
REMARK    3  A    between atoms: N4_14  and  C10_15 
ROOT
HETATM    1  C1  UNL     1      28.835  -2.258  53.045  1.00  0.00     0.022 C 
HETATM    2  C2  UNL     1      28.166  -1.258  53.079  1.00  0.00    -0.016 C 
HETATM    3  C3  UNL     1      27.355  -0.080  53.109  1.00  0.00     0.300 C 
HETATM    4  O1  UNL     1      27.628   0.751  54.001  1.00  0.00    -0.258 OA
HETATM    5  N1  UNL     1      26.296   0.218  52.231  1.00  0.00    -0.316 N 
HETATM    6  H2  UNL     1      26.182  -0.566  51.538  1.00  0.00     0.170 HD
ENDROOT
BRANCH   5   7
HETATM    7  C4  UNL     1      25.451   1.343  52.185  1.00  0.00     0.036 A 
HETATM    8  C5  UNL     1      24.400   1.606  53.015  1.00  0.00     0.032 A 
HETATM    9  C6  UNL     1      23.595   2.721  52.933  1.00  0.00     0.035 A 
HETATM   10  C7  UNL     1      23.877   3.630  51.943  1.00  0.00     0.072 A 
HETATM   11  N2  UNL     1      23.059   4.723  51.888  1.00  0.00    -0.241 NA
HETATM   12  C16 UNL     1      24.939   3.416  51.065  1.00  0.00     0.041 A 
HETATM   13  C8  UNL     1      23.320   5.618  50.923  1.00  0.00     0.236 A 
HETATM   14  N3  UNL     1      24.329   5.452  50.061  1.00  0.00    -0.224 NA
HETATM   15  C9  UNL     1      25.137   4.384  50.107  1.00  0.00     0.142 A 
HETATM   16  C17 UNL     1      25.684   2.289  51.214  1.00  0.00     0.047 A 
BRANCH  15  17
HETATM   17  N4  UNL     1      26.182   4.240  49.188  1.00  0.00    -0.340 N 
HETATM   18  H6  UNL     1      26.417   3.340  48.719  1.00  0.00     0.167 HD
BRANCH  17  19
HETATM   19  C10 UNL     1      27.098   5.214  48.710  1.00  0.00     0.035 A 
HETATM   20  C11 UNL     1      26.791   6.547  48.408  1.00  0.00     0.029 A 
HETATM   21  C12 UNL     1      27.672   7.479  47.964  1.00  0.00     0.004 A 
HETATM   22  C13 UNL     1      28.986   7.127  47.781  1.00  0.00     0.019 A 
HETATM   23  C14 UNL     1      29.371   5.855  48.049  1.00  0.00     0.013 A 
HETATM   24 BR1  UNL     1      31.219   5.416  47.779  1.00  0.00    -0.051 Br
HETATM   25  C15 UNL     1      28.431   4.939  48.503  1.00  0.00     0.048 A 
ENDBRANCH  17  19
ENDBRANCH  15  17
ENDBRANCH   5   7
TORSDOF 3
ENDMDL
MODEL 9
REMARK VINA RESULT:      -7.4      3.937      6.651
REMARK  3 active torsions:
REMARK  status: ('A' for Active; 'I' for Inactive)
REMARK       I    between atoms: C3_3  and  N1_5 
REMARK    1  A    between atoms: N1_5  and  C4_6 
REMARK    2  A    between atoms: C9_13  and  N4_14 
REMARK    3  A    between atoms: N4_14  and  C10_15 
ROOT
HETATM    1  C1  UNL     1      26.543  -0.654  52.165  1.00  0.00     0.022 C 
HETATM    2  C2  UNL     1      26.671   0.501  51.853  1.00  0.00    -0.016 C 
HETATM    3  C3  UNL     1      26.806   1.873  51.472  1.00  0.00     0.300 C 
HETATM    4  O1  UNL     1      27.570   2.566  52.177  1.00  0.00    -0.258 OA
HETATM    5  N1  UNL     1      26.162   2.498  50.387  1.00  0.00    -0.316 N 
HETATM    6  H2  UNL     1      25.554   1.798  49.888  1.00  0.00     0.170 HD
ENDROOT
BRANCH   5   7
HETATM    7  C4  UNL     1      26.234   3.831  49.940  1.00  0.00     0.036 A 
HETATM    8  C5  UNL     1      27.141   4.345  49.058  1.00  0.00     0.032 A 
HETATM    9  C6  UNL     1      27.177   5.660  48.650  1.00  0.00     0.035 A 
HETATM   10  C7  UNL     1      26.231   6.509  49.169  1.00  0.00     0.072 A 
HETATM   11  N2  UNL     1      26.297   7.806  48.745  1.00  0.00    -0.241 NA
HETATM   12  C16 UNL     1      25.278   6.040  50.073  1.00  0.00     0.041 A 
HETATM   13  C8  UNL     1      25.379   8.647  49.247  1.00  0.00     0.236 A 
HETATM   14  N3  UNL     1      24.449   8.239  50.116  1.00  0.00    -0.224 NA
HETATM   15  C9  UNL     1      24.376   6.969  50.538  1.00  0.00     0.142 A 
HETATM   16  C17 UNL     1      25.312   4.728  50.425  1.00  0.00     0.047 A 
BRANCH  15  17
HETATM   17  N4  UNL     1      23.390   6.577  51.450  1.00  0.00    -0.340 N 
HETATM   18  H6  UNL     1      23.439   6.773  52.472  1.00  0.00     0.167 HD
BRANCH  17  19
HETATM   19  C10 UNL     1      22.179   5.873  51.217  1.00  0.00     0.035 A 
HETATM   20  C11 UNL     1      21.164   6.263  50.334  1.00  0.00     0.029 A 
HETATM   21  C12 UNL     1      20.013   5.581  50.103  1.00  0.00     0.004 A 
HETATM   22  C13 UNL     1      19.784   4.404  50.772  1.00  0.00     0.019 A 
HETATM   23  C14 UNL     1      20.716   3.952  51.647  1.00  0.00     0.013 A 
HETATM   24 BR1  UNL     1      20.348   2.302  52.554  1.00  0.00    -0.051 Br
HETATM   25  C15 UNL     1      21.877   4.686  51.847  1.00  0.00     0.048 A 
ENDBRANCH  17  19
ENDBRANCH  15  17
ENDBRANCH   5   7
TORSDOF 3
ENDMDL
