MODEL 1
REMARK VINA RESULT:      -8.3      0.000      0.000
REMARK  6 active torsions:
REMARK  status: ('A' for Active; 'I' for Inactive)
REMARK    1  A    between atoms: C2_2  and  C3_3 
REMARK    2  A    between atoms: C3_3  and  O1_4 
REMARK    3  A    between atoms: C4_5  and  C5_6 
REMARK    4  A    between atoms: C5_6  and  O2_8 
REMARK    5  A    between atoms: O2_8  and  C7_9 
REMARK    6  A    between atoms: C17_20  and  N2_21 
ROOT
HETATM    1  C7  UNL     1      21.816  -0.071  53.588  1.00  0.00     0.076 A 
HETATM    2  C8  UNL     1      22.068  -0.917  54.640  1.00  0.00     0.039 A 
HETATM    3  C9  UNL     1      23.378  -1.135  55.001  1.00  0.00     0.033 A 
HETATM    4  C10 UNL     1      24.395  -0.482  54.276  1.00  0.00     0.039 A 
HETATM    5  C11 UNL     1      24.068   0.403  53.172  1.00  0.00    -0.001 A 
HETATM    6  C12 UNL     1      22.745   0.589  52.848  1.00  0.00     0.051 A 
HETATM    7  C13 UNL     1      25.424   0.834  52.769  1.00  0.00    -0.047 C 
HETATM    8  C14 UNL     1      26.055   1.946  53.274  1.00  0.00    -0.017 C 
HETATM    9  C15 UNL     1      26.741   1.255  54.399  1.00  0.00     0.055 C 
HETATM   10  C16 UNL     1      26.874  -0.232  54.372  1.00  0.00     0.107 C 
HETATM   11  N1  UNL     1      25.667  -0.919  54.895  1.00  0.00    -0.382 N 
HETATM   12  C17 UNL     1      27.290  -0.671  52.996  1.00  0.00     0.101 C 
HETATM   13  C18 UNL     1      26.435   0.011  51.910  1.00  0.00     0.065 C 
HETATM   14  H15 UNL     1      25.592  -1.671  55.645  1.00  0.00     0.160 HD
ENDROOT
BRANCH   1  15
HETATM   15  O2  UNL     1      20.617   0.362  52.972  1.00  0.00    -0.315 OA
BRANCH  15  16
HETATM   16  C5  UNL     1      19.521  -0.440  52.920  1.00  0.00     0.056 C 
HETATM   17  C6  UNL     1      18.831   0.088  51.910  1.00  0.00     0.047 C 
BRANCH  16  18
HETATM   18  C4  UNL     1      18.562  -1.467  53.181  1.00  0.00     0.115 C 
HETATM   19  C3  UNL     1      17.289  -1.703  53.137  1.00  0.00     0.051 C 
BRANCH  19  20
HETATM   20  C2  UNL     1      17.456  -3.092  53.630  1.00  0.00     0.024 C 
HETATM   21  C1  UNL     1      16.932  -4.334  53.619  1.00  0.00     0.016 C 
ENDBRANCH  19  20
BRANCH  19  22
HETATM   22  O1  UNL     1      15.905  -1.762  53.024  1.00  0.00    -0.364 OA
HETATM   23  H4  UNL     1      15.326  -1.853  53.868  1.00  0.00     0.217 HD
ENDBRANCH  19  22
ENDBRANCH  16  18
ENDBRANCH  15  16
ENDBRANCH   1  15
BRANCH  12  24
HETATM   24  N2  UNL     1      27.211  -2.097  52.912  1.00  0.00    -0.424 N 
HETATM   25  H17 UNL     1      28.034  -2.595  53.308  1.00  0.00     0.150 HD
HETATM   26  H18 UNL     1      26.835  -2.490  52.045  1.00  0.00     0.150 HD
ENDBRANCH  12  24
TORSDOF 6
ENDMDL
MODEL 2
REMARK VINA RESULT:      -8.0      2.037      3.340
REMARK  6 active torsions:
REMARK  status: ('A' for Active; 'I' for Inactive)
REMARK    1  A    between atoms: C2_2  and  C3_3 
REMARK    2  A    between atoms: C3_3  and  O1_4 
REMARK    3  A    between atoms: C4_5  and  C5_6 
REMARK    4  A    between atoms: C5_6  and  O2_8 
REMARK    5  A    between atoms: O2_8  and  C7_9 
REMARK    6  A    between atoms: C17_20  and  N2_21 
ROOT
HETATM    1  C7  UNL     1      22.219  -0.747  53.947  1.00  0.00     0.076 A 
HETATM    2  C8  UNL     1      22.654  -1.298  55.127  1.00  0.00     0.039 A 
HETATM    3  C9  UNL     1      23.998  -1.231  55.421  1.00  0.00     0.033 A 
HETATM    4  C10 UNL     1      24.858  -0.602  54.499  1.00  0.00     0.039 A 
HETATM    5  C11 UNL     1      24.340  -0.036  53.267  1.00  0.00    -0.001 A 
HETATM    6  C12 UNL     1      22.991  -0.127  53.017  1.00  0.00     0.051 A 
HETATM    7  C13 UNL     1      25.587   0.499  52.677  1.00  0.00    -0.047 C 
HETATM    8  C14 UNL     1      26.046   1.776  52.892  1.00  0.00    -0.017 C 
HETATM    9  C15 UNL     1      26.888   1.457  54.077  1.00  0.00     0.055 C 
HETATM   10  C16 UNL     1      27.264   0.037  54.345  1.00  0.00     0.107 C 
HETATM   11  N1  UNL     1      26.212  -0.697  55.091  1.00  0.00    -0.382 N 
HETATM   12  C17 UNL     1      27.684  -0.620  53.059  1.00  0.00     0.101 C 
HETATM   13  C18 UNL     1      26.679  -0.326  51.928  1.00  0.00     0.065 C 
HETATM   14  H15 UNL     1      26.296  -1.273  55.983  1.00  0.00     0.160 HD
ENDROOT
BRANCH   1  15
HETATM   15  O2  UNL     1      20.937  -0.644  53.353  1.00  0.00    -0.315 OA
BRANCH  15  16
HETATM   16  C5  UNL     1      20.498   0.527  52.824  1.00  0.00     0.056 C 
HETATM   17  C6  UNL     1      19.365   0.161  52.225  1.00  0.00     0.047 C 
BRANCH  16  18
HETATM   18  C4  UNL     1      20.380   1.901  52.444  1.00  0.00     0.115 C 
HETATM   19  C3  UNL     1      19.497   2.800  52.144  1.00  0.00     0.051 C 
BRANCH  19  20
HETATM   20  C2  UNL     1      20.527   3.845  51.931  1.00  0.00     0.024 C 
HETATM   21  C1  UNL     1      21.833   4.147  52.067  1.00  0.00     0.016 C 
ENDBRANCH  19  20
BRANCH  19  22
HETATM   22  O1  UNL     1      18.410   3.615  51.852  1.00  0.00    -0.364 OA
HETATM   23  H4  UNL     1      18.557   4.511  51.371  1.00  0.00     0.217 HD
ENDBRANCH  19  22
ENDBRANCH  16  18
ENDBRANCH  15  16
ENDBRANCH   1  15
BRANCH  12  24
HETATM   24  N2  UNL     1      27.839  -2.026  53.277  1.00  0.00    -0.424 N 
HETATM   25  H17 UNL     1      28.791  -2.308  53.583  1.00  0.00     0.150 HD
HETATM   26  H18 UNL     1      27.389  -2.651  52.602  1.00  0.00     0.150 HD
ENDBRANCH  12  24
TORSDOF 6
ENDMDL
MODEL 3
REMARK VINA RESULT:      -7.9      2.087      3.538
REMARK  6 active torsions:
REMARK  status: ('A' for Active; 'I' for Inactive)
REMARK    1  A    between atoms: C2_2  and  C3_3 
REMARK    2  A    between atoms: C3_3  and  O1_4 
REMARK    3  A    between atoms: C4_5  and  C5_6 
REMARK    4  A    between atoms: C5_6  and  O2_8 
REMARK    5  A    between atoms: O2_8  and  C7_9 
REMARK    6  A    between atoms: C17_20  and  N2_21 
ROOT
HETATM    1  C7  UNL     1      21.763  -0.408  53.590  1.00  0.00     0.076 A 
HETATM    2  C8  UNL     1      22.076  -1.160  54.696  1.00  0.00     0.039 A 
HETATM    3  C9  UNL     1      23.397  -1.242  55.074  1.00  0.00     0.033 A 
HETATM    4  C10 UNL     1      24.361  -0.553  54.311  1.00  0.00     0.039 A 
HETATM    5  C11 UNL     1      23.969   0.228  53.151  1.00  0.00    -0.001 A 
HETATM    6  C12 UNL     1      22.638   0.280  52.812  1.00  0.00     0.051 A 
HETATM    7  C13 UNL     1      25.288   0.745  52.724  1.00  0.00    -0.047 C 
HETATM    8  C14 UNL     1      25.818   1.937  53.157  1.00  0.00    -0.017 C 
HETATM    9  C15 UNL     1      26.551   1.381  54.327  1.00  0.00     0.055 C 
HETATM   10  C16 UNL     1      26.810  -0.088  54.398  1.00  0.00     0.107 C 
HETATM   11  N1  UNL     1      25.660  -0.840  54.960  1.00  0.00    -0.382 N 
HETATM   12  C17 UNL     1      27.273  -0.579  53.054  1.00  0.00     0.101 C 
HETATM   13  C18 UNL     1      26.371  -0.043  51.923  1.00  0.00     0.065 C 
HETATM   14  H15 UNL     1      25.643  -1.546  55.758  1.00  0.00     0.160 HD
ENDROOT
BRANCH   1  15
HETATM   15  O2  UNL     1      20.536  -0.118  52.945  1.00  0.00    -0.315 OA
BRANCH  15  16
HETATM   16  C5  UNL     1      20.500   0.301  51.653  1.00  0.00     0.056 C 
HETATM   17  C6  UNL     1      19.200   0.236  51.369  1.00  0.00     0.047 C 
BRANCH  16  18
HETATM   18  C4  UNL     1      20.871   0.773  50.356  1.00  0.00     0.115 C 
HETATM   19  C3  UNL     1      20.383   1.373  49.316  1.00  0.00     0.051 C 
BRANCH  19  20
HETATM   20  C2  UNL     1      21.678   1.331  48.594  1.00  0.00     0.024 C 
HETATM   21  C1  UNL     1      22.520   2.025  47.803  1.00  0.00     0.016 C 
ENDBRANCH  19  20
BRANCH  19  22
HETATM   22  O1  UNL     1      19.682   2.019  48.305  1.00  0.00    -0.364 OA
HETATM   23  H4  UNL     1      19.930   2.982  48.044  1.00  0.00     0.217 HD
ENDBRANCH  19  22
ENDBRANCH  16  18
ENDBRANCH  15  16
ENDBRANCH   1  15
BRANCH  12  24
HETATM   24  N2  UNL     1      27.315  -2.009  53.063  1.00  0.00    -0.424 N 
HETATM   25  H17 UNL     1      26.803  -2.456  52.277  1.00  0.00     0.150 HD
HETATM   26  H18 UNL     1      27.216  -2.469  53.973  1.00  0.00     0.150 HD
ENDBRANCH  12  24
TORSDOF 6
ENDMDL
MODEL 4
REMARK VINA RESULT:      -7.8      5.522      8.095
REMARK  6 active torsions:
REMARK  status: ('A' for Active; 'I' for Inactive)
REMARK    1  A    between atoms: C2_2  and  C3_3 
REMARK    2  A    between atoms: C3_3  and  O1_4 
REMARK    3  A    between atoms: C4_5  and  C5_6 
REMARK    4  A    between atoms: C5_6  and  O2_8 
REMARK    5  A    between atoms: O2_8  and  C7_9 
REMARK    6  A    between atoms: C17_20  and  N2_21 
ROOT
HETATM    1  C7  UNL     1      24.684   2.152  52.113  1.00  0.00     0.076 A 
HETATM    2  C8  UNL     1      24.216   2.926  53.147  1.00  0.00     0.039 A 
HETATM    3  C9  UNL     1      23.976   4.260  52.906  1.00  0.00     0.033 A 
HETATM    4  C10 UNL     1      24.222   4.765  51.614  1.00  0.00     0.039 A 
HETATM    5  C11 UNL     1      24.716   3.899  50.559  1.00  0.00    -0.001 A 
HETATM    6  C12 UNL     1      24.941   2.573  50.848  1.00  0.00     0.051 A 
HETATM    7  C13 UNL     1      24.792   4.863  49.439  1.00  0.00    -0.047 C 
HETATM    8  C14 UNL     1      23.761   5.093  48.559  1.00  0.00    -0.017 C 
HETATM    9  C15 UNL     1      23.136   6.209  49.318  1.00  0.00     0.055 C 
HETATM   10  C16 UNL     1      23.927   6.909  50.374  1.00  0.00     0.107 C 
HETATM   11  N1  UNL     1      23.878   6.204  51.679  1.00  0.00    -0.382 N 
HETATM   12  C17 UNL     1      25.316   7.174  49.864  1.00  0.00     0.101 C 
HETATM   13  C18 UNL     1      25.918   5.917  49.206  1.00  0.00     0.065 C 
HETATM   14  H15 UNL     1      23.630   6.586  52.642  1.00  0.00     0.160 HD
ENDROOT
BRANCH   1  15
HETATM   15  O2  UNL     1      25.024   0.781  52.021  1.00  0.00    -0.315 OA
BRANCH  15  16
HETATM   16  C5  UNL     1      26.109   0.279  52.666  1.00  0.00     0.056 C 
HETATM   17  C6  UNL     1      25.636  -0.862  53.169  1.00  0.00     0.047 C 
BRANCH  16  18
HETATM   18  C4  UNL     1      27.422   0.096  53.201  1.00  0.00     0.115 C 
HETATM   19  C3  UNL     1      28.251   0.608  54.056  1.00  0.00     0.051 C 
BRANCH  19  20
HETATM   20  C2  UNL     1      29.291  -0.408  53.765  1.00  0.00     0.024 C 
HETATM   21  C1  UNL     1      29.509  -1.682  53.385  1.00  0.00     0.016 C 
ENDBRANCH  19  20
BRANCH  19  22
HETATM   22  O1  UNL     1      28.992   1.296  55.009  1.00  0.00    -0.364 OA
HETATM   23  H4  UNL     1      28.537   2.007  55.595  1.00  0.00     0.217 HD
ENDBRANCH  19  22
ENDBRANCH  16  18
ENDBRANCH  15  16
ENDBRANCH   1  15
BRANCH  12  24
HETATM   24  N2  UNL     1      26.131   7.648  50.941  1.00  0.00    -0.424 N 
HETATM   25  H17 UNL     1      26.057   8.670  51.115  1.00  0.00     0.150 HD
HETATM   26  H18 UNL     1      27.074   7.254  51.017  1.00  0.00     0.150 HD
ENDBRANCH  12  24
TORSDOF 6
ENDMDL
MODEL 5
REMARK VINA RESULT:      -7.6      4.828      6.418
REMARK  6 active torsions:
REMARK  status: ('A' for Active; 'I' for Inactive)
REMARK    1  A    between atoms: C2_2  and  C3_3 
REMARK    2  A    between atoms: C3_3  and  O1_4 
REMARK    3  A    between atoms: C4_5  and  C5_6 
REMARK    4  A    between atoms: C5_6  and  O2_8 
REMARK    5  A    between atoms: O2_8  and  C7_9 
REMARK    6  A    between atoms: C17_20  and  N2_21 
ROOT
HETATM    1  C7  UNL     1      24.144   2.496  51.940  1.00  0.00     0.076 A 
HETATM    2  C8  UNL     1      23.717   3.322  52.951  1.00  0.00     0.039 A 
HETATM    3  C9  UNL     1      23.644   4.673  52.700  1.00  0.00     0.033 A 
HETATM    4  C10 UNL     1      24.009   5.142  51.422  1.00  0.00     0.039 A 
HETATM    5  C11 UNL     1      24.453   4.221  50.393  1.00  0.00    -0.001 A 
HETATM    6  C12 UNL     1      24.510   2.879  50.690  1.00  0.00     0.051 A 
HETATM    7  C13 UNL     1      24.694   5.165  49.279  1.00  0.00    -0.047 C 
HETATM    8  C14 UNL     1      23.742   5.507  48.349  1.00  0.00    -0.017 C 
HETATM    9  C15 UNL     1      23.211   6.691  49.077  1.00  0.00     0.055 C 
HETATM   10  C16 UNL     1      24.023   7.301  50.173  1.00  0.00     0.107 C 
HETATM   11  N1  UNL     1      23.829   6.611  51.472  1.00  0.00    -0.382 N 
HETATM   12  C17 UNL     1      25.457   7.403  49.733  1.00  0.00     0.101 C 
HETATM   13  C18 UNL     1      25.944   6.082  49.103  1.00  0.00     0.065 C 
HETATM   14  H15 UNL     1      23.579   7.023  52.423  1.00  0.00     0.160 HD
ENDROOT
BRANCH   1  15
HETATM   15  O2  UNL     1      24.331   1.094  51.863  1.00  0.00    -0.315 OA
BRANCH  15  16
HETATM   16  C5  UNL     1      23.813   0.261  52.802  1.00  0.00     0.056 C 
HETATM   17  C6  UNL     1      24.908  -0.231  53.380  1.00  0.00     0.047 C 
BRANCH  16  18
HETATM   18  C4  UNL     1      22.912  -0.479  53.630  1.00  0.00     0.115 C 
HETATM   19  C3  UNL     1      22.872  -1.160  54.732  1.00  0.00     0.051 C 
BRANCH  19  20
HETATM   20  C2  UNL     1      21.424  -1.446  54.587  1.00  0.00     0.024 C 
HETATM   21  C1  UNL     1      20.301  -1.126  53.915  1.00  0.00     0.016 C 
ENDBRANCH  19  20
BRANCH  19  22
HETATM   22  O1  UNL     1      23.030  -1.848  55.928  1.00  0.00    -0.364 OA
HETATM   23  H4  UNL     1      22.720  -2.826  56.001  1.00  0.00     0.217 HD
ENDBRANCH  19  22
ENDBRANCH  16  18
ENDBRANCH  15  16
ENDBRANCH   1  15
BRANCH  12  24
HETATM   24  N2  UNL     1      26.266   7.785  50.850  1.00  0.00    -0.424 N 
HETATM   25  H17 UNL     1      25.745   8.269  51.609  1.00  0.00     0.150 HD
HETATM   26  H18 UNL     1      27.194   8.164  50.642  1.00  0.00     0.150 HD
ENDBRANCH  12  24
TORSDOF 6
ENDMDL
MODEL 6
REMARK VINA RESULT:      -7.6      2.221      3.241
REMARK  6 active torsions:
REMARK  status: ('A' for Active; 'I' for Inactive)
REMARK    1  A    between atoms: C2_2  and  C3_3 
REMARK    2  A    between atoms: C3_3  and  O1_4 
REMARK    3  A    between atoms: C4_5  and  C5_6 
REMARK    4  A    between atoms: C5_6  and  O2_8 
REMARK    5  A    between atoms: O2_8  and  C7_9 
REMARK    6  A    between atoms: C17_20  and  N2_21 
ROOT
HETATM    1  C7  UNL     1      22.531   2.296  51.797  1.00  0.00     0.076 A 
HETATM    2  C8  UNL     1      23.293   2.956  50.863  1.00  0.00     0.039 A 
HETATM    3  C9  UNL     1      24.652   2.738  50.860  1.00  0.00     0.033 A 
HETATM    4  C10 UNL     1      25.195   1.851  51.813  1.00  0.00     0.039 A 
HETATM    5  C11 UNL     1      24.339   1.182  52.775  1.00  0.00    -0.001 A 
HETATM    6  C12 UNL     1      22.987   1.431  52.739  1.00  0.00     0.051 A 
HETATM    7  C13 UNL     1      25.343   0.383  53.510  1.00  0.00    -0.047 C 
HETATM    8  C14 UNL     1      25.701  -0.899  53.165  1.00  0.00    -0.017 C 
HETATM    9  C15 UNL     1      26.831  -0.525  52.272  1.00  0.00     0.055 C 
HETATM   10  C16 UNL     1      27.411   0.848  52.361  1.00  0.00     0.107 C 
HETATM   11  N1  UNL     1      26.653   1.837  51.556  1.00  0.00    -0.382 N 
HETATM   12  C17 UNL     1      27.580   1.225  53.807  1.00  0.00     0.101 C 
HETATM   13  C18 UNL     1      26.307   0.909  54.619  1.00  0.00     0.065 C 
HETATM   14  H15 UNL     1      27.009   2.527  50.827  1.00  0.00     0.160 HD
ENDROOT
BRANCH   1  15
HETATM   15  O2  UNL     1      21.141   2.292  52.069  1.00  0.00    -0.315 OA
BRANCH  15  16
HETATM   16  C5  UNL     1      20.479   1.136  52.333  1.00  0.00     0.056 C 
HETATM   17  C6  UNL     1      19.763   0.959  51.223  1.00  0.00     0.047 C 
BRANCH  16  18
HETATM   18  C4  UNL     1      19.992  -0.050  52.965  1.00  0.00     0.115 C 
HETATM   19  C3  UNL     1      20.314  -0.929  53.863  1.00  0.00     0.051 C 
BRANCH  19  20
HETATM   20  C2  UNL     1      19.055  -1.689  53.674  1.00  0.00     0.024 C 
HETATM   21  C1  UNL     1      17.795  -1.631  53.200  1.00  0.00     0.016 C 
ENDBRANCH  19  20
BRANCH  19  22
HETATM   22  O1  UNL     1      20.833  -1.761  54.846  1.00  0.00    -0.364 OA
HETATM   23  H4  UNL     1      21.844  -1.943  54.882  1.00  0.00     0.217 HD
ENDBRANCH  19  22
ENDBRANCH  16  18
ENDBRANCH  15  16
ENDBRANCH   1  15
BRANCH  12  24
HETATM   24  N2  UNL     1      27.932   2.609  53.895  1.00  0.00    -0.424 N 
HETATM   25  H17 UNL     1      27.282   3.248  53.395  1.00  0.00     0.150 HD
HETATM   26  H18 UNL     1      28.926   2.840  53.814  1.00  0.00     0.150 HD
ENDBRANCH  12  24
TORSDOF 6
ENDMDL
MODEL 7
REMARK VINA RESULT:      -7.3      8.751     11.591
REMARK  6 active torsions:
REMARK  status: ('A' for Active; 'I' for Inactive)
REMARK    1  A    between atoms: C2_2  and  C3_3 
REMARK    2  A    between atoms: C3_3  and  O1_4 
REMARK    3  A    between atoms: C4_5  and  C5_6 
REMARK    4  A    between atoms: C5_6  and  O2_8 
REMARK    5  A    between atoms: O2_8  and  C7_9 
REMARK    6  A    between atoms: C17_20  and  N2_21 
ROOT
HETATM    1  C7  UNL     1      30.612   6.846  48.367  1.00  0.00     0.076 A 
HETATM    2  C8  UNL     1      31.550   6.988  49.360  1.00  0.00     0.039 A 
HETATM    3  C9  UNL     1      32.654   6.165  49.336  1.00  0.00     0.033 A 
HETATM    4  C10 UNL     1      32.767   5.221  48.295  1.00  0.00     0.039 A 
HETATM    5  C11 UNL     1      31.743   5.117  47.272  1.00  0.00    -0.001 A 
HETATM    6  C12 UNL     1      30.658   5.960  47.339  1.00  0.00     0.051 A 
HETATM    7  C13 UNL     1      32.311   4.036  46.438  1.00  0.00    -0.047 C 
HETATM    8  C14 UNL     1      33.145   4.255  45.367  1.00  0.00    -0.017 C 
HETATM    9  C15 UNL     1      34.422   4.174  46.127  1.00  0.00     0.055 C 
HETATM   10  C16 UNL     1      34.428   3.548  47.483  1.00  0.00     0.107 C 
HETATM   11  N1  UNL     1      34.036   4.501  48.549  1.00  0.00    -0.382 N 
HETATM   12  C17 UNL     1      33.615   2.283  47.452  1.00  0.00     0.101 C 
HETATM   13  C18 UNL     1      32.260   2.508  46.751  1.00  0.00     0.065 C 
HETATM   14  H15 UNL     1      34.537   4.737  49.460  1.00  0.00     0.160 HD
ENDROOT
BRANCH   1  15
HETATM   15  O2  UNL     1      29.391   7.513  48.100  1.00  0.00    -0.315 OA
BRANCH  15  16
HETATM   16  C5  UNL     1      28.198   6.879  48.236  1.00  0.00     0.056 C 
HETATM   17  C6  UNL     1      27.385   7.645  47.507  1.00  0.00     0.047 C 
BRANCH  16  18
HETATM   18  C4  UNL     1      27.171   5.958  48.609  1.00  0.00     0.115 C 
HETATM   19  C3  UNL     1      26.996   4.733  48.996  1.00  0.00     0.051 C 
BRANCH  19  20
HETATM   20  C2  UNL     1      25.524   4.895  49.085  1.00  0.00     0.024 C 
HETATM   21  C1  UNL     1      24.519   5.787  49.165  1.00  0.00     0.016 C 
ENDBRANCH  19  20
BRANCH  19  22
HETATM   22  O1  UNL     1      27.014   3.403  49.396  1.00  0.00    -0.364 OA
HETATM   23  H4  UNL     1      27.813   3.039  49.931  1.00  0.00     0.217 HD
ENDBRANCH  19  22
ENDBRANCH  16  18
ENDBRANCH  15  16
ENDBRANCH   1  15
BRANCH  12  24
HETATM   24  N2  UNL     1      33.445   1.800  48.788  1.00  0.00    -0.424 N 
HETATM   25  H17 UNL     1      32.880   0.930  48.859  1.00  0.00     0.150 HD
HETATM   26  H18 UNL     1      33.270   2.500  49.515  1.00  0.00     0.150 HD
ENDBRANCH  12  24
TORSDOF 6
ENDMDL
MODEL 8
REMARK VINA RESULT:      -7.1      6.272      8.777
REMARK  6 active torsions:
REMARK  status: ('A' for Active; 'I' for Inactive)
REMARK    1  A    between atoms: C2_2  and  C3_3 
REMARK    2  A    between atoms: C3_3  and  O1_4 
REMARK    3  A    between atoms: C4_5  and  C5_6 
REMARK    4  A    between atoms: C5_6  and  O2_8 
REMARK    5  A    between atoms: O2_8  and  C7_9 
REMARK    6  A    between atoms: C17_20  and  N2_21 
ROOT
HETATM    1  C7  UNL     1      24.485   4.479  50.447  1.00  0.00     0.076 A 
HETATM    2  C8  UNL     1      23.879   5.301  51.366  1.00  0.00     0.039 A 
HETATM    3  C9  UNL     1      24.132   6.653  51.296  1.00  0.00     0.033 A 
HETATM    4  C10 UNL     1      24.997   7.125  50.288  1.00  0.00     0.039 A 
HETATM    5  C11 UNL     1      25.608   6.207  49.344  1.00  0.00    -0.001 A 
HETATM    6  C12 UNL     1      25.326   4.866  49.453  1.00  0.00     0.051 A 
HETATM    7  C13 UNL     1      26.382   7.158  48.515  1.00  0.00    -0.047 C 
HETATM    8  C14 UNL     1      25.890   7.758  47.380  1.00  0.00    -0.017 C 
HETATM    9  C15 UNL     1      25.350   8.971  48.051  1.00  0.00     0.055 C 
HETATM   10  C16 UNL     1      25.818   9.317  49.426  1.00  0.00     0.107 C 
HETATM   11  N1  UNL     1      25.066   8.592  50.480  1.00  0.00    -0.382 N 
HETATM   12  C17 UNL     1      27.310   9.148  49.502  1.00  0.00     0.101 C 
HETATM   13  C18 UNL     1      27.752   7.803  48.890  1.00  0.00     0.065 C 
HETATM   14  H15 UNL     1      24.574   8.977  51.343  1.00  0.00     0.160 HD
ENDROOT
BRANCH   1  15
HETATM   15  O2  UNL     1      24.442   3.078  50.241  1.00  0.00    -0.315 OA
BRANCH  15  16
HETATM   16  C5  UNL     1      24.937   2.214  51.164  1.00  0.00     0.056 C 
HETATM   17  C6  UNL     1      23.835   1.604  51.601  1.00  0.00     0.047 C 
BRANCH  16  18
HETATM   18  C4  UNL     1      25.814   1.476  52.018  1.00  0.00     0.115 C 
HETATM   19  C3  UNL     1      26.287   1.467  53.225  1.00  0.00     0.051 C 
BRANCH  19  20
HETATM   20  C2  UNL     1      27.093   0.247  52.977  1.00  0.00     0.024 C 
HETATM   21  C1  UNL     1      27.038  -1.074  52.719  1.00  0.00     0.016 C 
ENDBRANCH  19  20
BRANCH  19  22
HETATM   22  O1  UNL     1      26.682   1.627  54.548  1.00  0.00    -0.364 OA
HETATM   23  H4  UNL     1      26.260   1.044  55.282  1.00  0.00     0.217 HD
ENDBRANCH  19  22
ENDBRANCH  16  18
ENDBRANCH  15  16
ENDBRANCH   1  15
BRANCH  12  24
HETATM   24  N2  UNL     1      27.730   9.271  50.865  1.00  0.00    -0.424 N 
HETATM   25  H17 UNL     1      28.519   9.931  51.011  1.00  0.00     0.150 HD
HETATM   26  H18 UNL     1      27.768   8.409  51.417  1.00  0.00     0.150 HD
ENDBRANCH  12  24
TORSDOF 6
ENDMDL
MODEL 9
REMARK VINA RESULT:      -7.0      7.307     10.064
REMARK  6 active torsions:
REMARK  status: ('A' for Active; 'I' for Inactive)
REMARK    1  A    between atoms: C2_2  and  C3_3 
REMARK    2  A    between atoms: C3_3  and  O1_4 
REMARK    3  A    between atoms: C4_5  and  C5_6 
REMARK    4  A    between atoms: C5_6  and  O2_8 
REMARK    5  A    between atoms: O2_8  and  C7_9 
REMARK    6  A    between atoms: C17_20  and  N2_21 
ROOT
HETATM    1  C7  UNL     1      26.323   5.194  49.302  1.00  0.00     0.076 A 
HETATM    2  C8  UNL     1      25.622   6.229  49.872  1.00  0.00     0.039 A 
HETATM    3  C9  UNL     1      26.095   7.510  49.698  1.00  0.00     0.033 A 
HETATM    4  C10 UNL     1      27.273   7.697  48.946  1.00  0.00     0.039 A 
HETATM    5  C11 UNL     1      27.971   6.564  48.366  1.00  0.00    -0.001 A 
HETATM    6  C12 UNL     1      27.460   5.303  48.567  1.00  0.00     0.051 A 
HETATM    7  C13 UNL     1      29.088   7.260  47.690  1.00  0.00    -0.047 C 
HETATM    8  C14 UNL     1      29.037   7.700  46.389  1.00  0.00    -0.017 C 
HETATM    9  C15 UNL     1      28.530   9.066  46.691  1.00  0.00     0.055 C 
HETATM   10  C16 UNL     1      28.640   9.596  48.083  1.00  0.00     0.107 C 
HETATM   11  N1  UNL     1      27.517   9.157  48.947  1.00  0.00    -0.382 N 
HETATM   12  C17 UNL     1      30.004   9.278  48.631  1.00  0.00     0.101 C 
HETATM   13  C18 UNL     1      30.381   7.806  48.372  1.00  0.00     0.065 C 
HETATM   14  H15 UNL     1      26.869   9.742  49.559  1.00  0.00     0.160 HD
ENDROOT
BRANCH   1  15
HETATM   15  O2  UNL     1      26.119   3.793  49.286  1.00  0.00    -0.315 OA
BRANCH  15  16
HETATM   16  C5  UNL     1      26.240   3.050  50.416  1.00  0.00     0.056 C 
HETATM   17  C6  UNL     1      24.982   2.672  50.643  1.00  0.00     0.047 C 
BRANCH  16  18
HETATM   18  C4  UNL     1      26.765   2.369  51.558  1.00  0.00     0.115 C 
HETATM   19  C3  UNL     1      26.832   1.193  52.098  1.00  0.00     0.051 C 
BRANCH  19  20
HETATM   20  C2  UNL     1      27.618   1.688  53.254  1.00  0.00     0.024 C 
HETATM   21  C1  UNL     1      28.693   2.410  53.625  1.00  0.00     0.016 C 
ENDBRANCH  19  20
BRANCH  19  22
HETATM   22  O1  UNL     1      26.793  -0.132  52.515  1.00  0.00    -0.364 OA
HETATM   23  H4  UNL     1      26.038  -0.451  53.136  1.00  0.00     0.217 HD
ENDBRANCH  19  22
ENDBRANCH  16  18
ENDBRANCH  15  16
ENDBRANCH   1  15
BRANCH  12  24
HETATM   24  N2  UNL     1      30.036   9.594  50.026  1.00  0.00    -0.424 N 
HETATM   25  H17 UNL     1      30.068  10.612  50.233  1.00  0.00     0.150 HD
HETATM   26  H18 UNL     1      30.627   9.005  50.621  1.00  0.00     0.150 HD
ENDBRANCH  12  24
TORSDOF 6
ENDMDL
