MODEL 1
REMARK VINA RESULT:      -9.3      0.000      0.000
REMARK  4 active torsions:
REMARK  status: ('A' for Active; 'I' for Inactive)
REMARK    1  A    between atoms: O1_1  and  C1_2 
REMARK    2  A    between atoms: C6_8  and  C7_9 
REMARK    3  A    between atoms: C7_9  and  N1_10 
REMARK    4  A    between atoms: C16_20  and  O2_21 
ROOT
HETATM    1  N1  UNL     1      25.079   3.473  49.905  1.00  0.00    -0.262 N 
HETATM    2  C8  UNL     1      26.362   2.990  49.638  1.00  0.00     0.418 C 
HETATM    3  N2  UNL     1      26.786   2.024  50.615  1.00  0.00     0.106 NA
HETATM    4  C9  UNL     1      26.955   2.485  51.943  1.00  0.00     0.306 C 
HETATM    5  C10 UNL     1      27.508   1.343  52.765  1.00  0.00    -0.045 C 
HETATM    6  C11 UNL     1      28.444   1.701  53.654  1.00  0.00    -0.018 C 
HETATM    7  C12 UNL     1      29.199   0.852  54.619  1.00  0.00     0.054 C 
HETATM    8  C13 UNL     1      29.315  -0.560  54.098  1.00  0.00    -0.026 C 
HETATM    9  C14 UNL     1      28.366  -0.920  53.256  1.00  0.00    -0.018 C 
HETATM   10  C15 UNL     1      27.227  -0.090  52.788  1.00  0.00     0.070 C 
HETATM   11  C16 UNL     1      26.056  -0.472  53.694  1.00  0.00     0.152 C 
HETATM   12  C17 UNL     1      24.909   0.453  53.473  1.00  0.00     0.001 C 
HETATM   13  C18 UNL     1      24.057   0.713  52.506  1.00  0.00    -0.026 C 
HETATM   14  C19 UNL     1      22.897   1.476  51.953  1.00  0.00     0.055 C 
HETATM   15  C20 UNL     1      23.323   2.206  50.688  1.00  0.00     0.205 C 
HETATM   16  O3  UNL     1      24.388   3.053  50.917  1.00  0.00    -0.281 OA
HETATM   17  H9  UNL     1      26.160   1.197  50.511  1.00  0.00     0.318 HD
ENDROOT
BRANCH   1  18
HETATM   18  C7  UNL     1      24.573   4.503  49.076  1.00  0.00     0.193 C 
BRANCH  18  19
HETATM   19  C6  UNL     1      24.616   5.874  49.568  1.00  0.00    -0.004 A 
HETATM   20  C1  UNL     1      25.698   6.712  49.723  1.00  0.00     0.095 A 
HETATM   21  C2  UNL     1      25.656   7.998  50.200  1.00  0.00     0.067 A 
HETATM   22 CL1  UNL     1      27.141   8.939  50.335  1.00  0.00    -0.081 Cl
HETATM   23  C3  UNL     1      24.422   8.503  50.559  1.00  0.00     0.026 A 
HETATM   24  C4  UNL     1      23.299   7.746  50.439  1.00  0.00     0.002 A 
HETATM   25  C5  UNL     1      23.399   6.457  49.953  1.00  0.00     0.012 A 
BRANCH  20  26
HETATM   26  O1  UNL     1      26.920   6.214  49.367  1.00  0.00    -0.358 OA
HETATM   27  H1  UNL     1      27.057   5.548  48.619  1.00  0.00     0.217 HD
ENDBRANCH  20  26
ENDBRANCH  18  19
ENDBRANCH   1  18
BRANCH  11  28
HETATM   28  O2  UNL     1      26.469  -0.318  54.992  1.00  0.00    -0.391 OA
HETATM   29  H19 UNL     1      26.681  -1.153  55.477  1.00  0.00     0.210 HD
ENDBRANCH  11  28
TORSDOF 4
ENDMDL
MODEL 2
REMARK VINA RESULT:      -8.7      1.604      1.922
REMARK  4 active torsions:
REMARK  status: ('A' for Active; 'I' for Inactive)
REMARK    1  A    between atoms: O1_1  and  C1_2 
REMARK    2  A    between atoms: C6_8  and  C7_9 
REMARK    3  A    between atoms: C7_9  and  N1_10 
REMARK    4  A    between atoms: C16_20  and  O2_21 
ROOT
HETATM    1  N1  UNL     1      24.779   3.214  49.919  1.00  0.00    -0.262 N 
HETATM    2  C8  UNL     1      26.084   2.820  49.615  1.00  0.00     0.418 C 
HETATM    3  N2  UNL     1      26.618   1.924  50.606  1.00  0.00     0.106 NA
HETATM    4  C9  UNL     1      26.802   2.444  51.910  1.00  0.00     0.306 C 
HETATM    5  C10 UNL     1      27.472   1.378  52.746  1.00  0.00    -0.045 C 
HETATM    6  C11 UNL     1      28.411   1.836  53.583  1.00  0.00    -0.018 C 
HETATM    7  C12 UNL     1      29.265   1.082  54.544  1.00  0.00     0.054 C 
HETATM    8  C13 UNL     1      29.469  -0.335  54.066  1.00  0.00    -0.026 C 
HETATM    9  C14 UNL     1      28.519  -0.795  53.277  1.00  0.00    -0.018 C 
HETATM   10  C15 UNL     1      27.303  -0.071  52.828  1.00  0.00     0.070 C 
HETATM   11  C16 UNL     1      26.200  -0.507  53.793  1.00  0.00     0.152 C 
HETATM   12  C17 UNL     1      24.978   0.321  53.588  1.00  0.00     0.001 C 
HETATM   13  C18 UNL     1      24.071   0.482  52.650  1.00  0.00    -0.026 C 
HETATM   14  C19 UNL     1      22.836   1.134  52.120  1.00  0.00     0.055 C 
HETATM   15  C20 UNL     1      23.157   1.848  50.815  1.00  0.00     0.205 C 
HETATM   16  O3  UNL     1      24.162   2.780  50.972  1.00  0.00    -0.281 OA
HETATM   17  H9  UNL     1      26.053   1.049  50.556  1.00  0.00     0.318 HD
ENDROOT
BRANCH   1  18
HETATM   18  C7  UNL     1      24.164   4.173  49.077  1.00  0.00     0.193 C 
BRANCH  18  19
HETATM   19  C6  UNL     1      23.897   5.499  49.617  1.00  0.00    -0.004 A 
HETATM   20  C1  UNL     1      22.697   6.163  49.751  1.00  0.00     0.095 A 
HETATM   21  C2  UNL     1      22.528   7.422  50.270  1.00  0.00     0.067 A 
HETATM   22 CL1  UNL     1      20.915   8.126  50.370  1.00  0.00    -0.081 Cl
HETATM   23  C3  UNL     1      23.659   8.090  50.697  1.00  0.00     0.026 A 
HETATM   24  C4  UNL     1      24.886   7.512  50.603  1.00  0.00     0.002 A 
HETATM   25  C5  UNL     1      24.998   6.241  50.072  1.00  0.00     0.012 A 
BRANCH  20  26
HETATM   26  O1  UNL     1      21.577   5.502  49.329  1.00  0.00    -0.358 OA
HETATM   27  H1  UNL     1      21.515   5.013  48.446  1.00  0.00     0.217 HD
ENDBRANCH  20  26
ENDBRANCH  18  19
ENDBRANCH   1  18
BRANCH  11  28
HETATM   28  O2  UNL     1      26.649  -0.275  55.067  1.00  0.00    -0.391 OA
HETATM   29  H19 UNL     1      27.521   0.185  55.138  1.00  0.00     0.210 HD
ENDBRANCH  11  28
TORSDOF 4
ENDMDL
MODEL 3
REMARK VINA RESULT:      -8.5      2.057      2.571
REMARK  4 active torsions:
REMARK  status: ('A' for Active; 'I' for Inactive)
REMARK    1  A    between atoms: O1_1  and  C1_2 
REMARK    2  A    between atoms: C6_8  and  C7_9 
REMARK    3  A    between atoms: C7_9  and  N1_10 
REMARK    4  A    between atoms: C16_20  and  O2_21 
ROOT
HETATM    1  N1  UNL     1      25.163   4.152  50.792  1.00  0.00    -0.262 N 
HETATM    2  C8  UNL     1      26.256   3.493  50.226  1.00  0.00     0.418 C 
HETATM    3  N2  UNL     1      26.516   2.233  50.869  1.00  0.00     0.106 NA
HETATM    4  C9  UNL     1      26.915   2.276  52.227  1.00  0.00     0.306 C 
HETATM    5  C10 UNL     1      27.242   0.865  52.661  1.00  0.00    -0.045 C 
HETATM    6  C11 UNL     1      28.314   0.763  53.456  1.00  0.00    -0.018 C 
HETATM    7  C12 UNL     1      28.922  -0.455  54.066  1.00  0.00     0.054 C 
HETATM    8  C13 UNL     1      28.636  -1.667  53.214  1.00  0.00    -0.026 C 
HETATM    9  C14 UNL     1      27.554  -1.576  52.465  1.00  0.00    -0.018 C 
HETATM   10  C15 UNL     1      26.618  -0.427  52.386  1.00  0.00     0.070 C 
HETATM   11  C16 UNL     1      25.478  -0.774  53.343  1.00  0.00     0.152 C 
HETATM   12  C17 UNL     1      24.580   0.401  53.525  1.00  0.00     0.001 C 
HETATM   13  C18 UNL     1      23.733   1.087  52.789  1.00  0.00    -0.026 C 
HETATM   14  C19 UNL     1      22.752   2.201  52.616  1.00  0.00     0.055 C 
HETATM   15  C20 UNL     1      23.228   3.132  51.511  1.00  0.00     0.205 C 
HETATM   16  O3  UNL     1      24.486   3.637  51.769  1.00  0.00    -0.281 OA
HETATM   17  H9  UNL     1      25.698   1.619  50.670  1.00  0.00     0.318 HD
ENDROOT
BRANCH   1  18
HETATM   18  C7  UNL     1      24.853   5.450  50.318  1.00  0.00     0.193 C 
BRANCH  18  19
HETATM   19  C6  UNL     1      23.605   5.644  49.593  1.00  0.00    -0.004 A 
HETATM   20  C1  UNL     1      22.497   6.383  49.943  1.00  0.00     0.095 A 
HETATM   21  C2  UNL     1      21.350   6.514  49.201  1.00  0.00     0.067 A 
HETATM   22 CL1  UNL     1      20.020   7.504  49.798  1.00  0.00    -0.081 Cl
HETATM   23  C3  UNL     1      21.296   5.845  47.994  1.00  0.00     0.026 A 
HETATM   24  C4  UNL     1      22.344   5.091  47.568  1.00  0.00     0.002 A 
HETATM   25  C5  UNL     1      23.474   4.995  48.356  1.00  0.00     0.012 A 
BRANCH  20  26
HETATM   26  O1  UNL     1      22.551   7.046  51.138  1.00  0.00    -0.358 OA
HETATM   27  H1  UNL     1      21.745   7.199  51.730  1.00  0.00     0.217 HD
ENDBRANCH  20  26
ENDBRANCH  18  19
ENDBRANCH   1  18
BRANCH  11  28
HETATM   28  O2  UNL     1      26.033  -1.064  54.562  1.00  0.00    -0.391 OA
HETATM   29  H19 UNL     1      26.030  -2.019  54.819  1.00  0.00     0.210 HD
ENDBRANCH  11  28
TORSDOF 4
ENDMDL
MODEL 4
REMARK VINA RESULT:      -8.5      3.967      7.486
REMARK  4 active torsions:
REMARK  status: ('A' for Active; 'I' for Inactive)
REMARK    1  A    between atoms: O1_1  and  C1_2 
REMARK    2  A    between atoms: C6_8  and  C7_9 
REMARK    3  A    between atoms: C7_9  and  N1_10 
REMARK    4  A    between atoms: C16_20  and  O2_21 
ROOT
HETATM    1  N1  UNL     1      24.911   1.555  53.596  1.00  0.00    -0.262 N 
HETATM    2  C8  UNL     1      24.718   2.876  53.184  1.00  0.00     0.418 C 
HETATM    3  N2  UNL     1      23.727   2.976  52.147  1.00  0.00     0.106 NA
HETATM    4  C9  UNL     1      24.029   2.360  50.908  1.00  0.00     0.306 C 
HETATM    5  C10 UNL     1      22.912   2.684  49.942  1.00  0.00    -0.045 C 
HETATM    6  C11 UNL     1      23.316   2.952  48.695  1.00  0.00    -0.018 C 
HETATM    7  C12 UNL     1      22.503   3.309  47.497  1.00  0.00     0.054 C 
HETATM    8  C13 UNL     1      21.222   3.987  47.915  1.00  0.00    -0.026 C 
HETATM    9  C14 UNL     1      20.806   3.685  49.130  1.00  0.00    -0.018 C 
HETATM   10  C15 UNL     1      21.461   2.767  50.095  1.00  0.00     0.070 C 
HETATM   11  C16 UNL     1      20.748   1.427  49.918  1.00  0.00     0.152 C 
HETATM   12  C17 UNL     1      21.462   0.358  50.673  1.00  0.00     0.001 C 
HETATM   13  C18 UNL     1      21.684   0.056  51.933  1.00  0.00    -0.026 C 
HETATM   14  C19 UNL     1      22.282  -0.823  52.982  1.00  0.00     0.055 C 
HETATM   15  C20 UNL     1      23.242  -0.013  53.840  1.00  0.00     0.205 C 
HETATM   16  O3  UNL     1      24.236   0.575  53.084  1.00  0.00    -0.281 OA
HETATM   17  H9  UNL     1      22.819   2.690  52.571  1.00  0.00     0.318 HD
ENDROOT
BRANCH   1  18
HETATM   18  C7  UNL     1      25.929   1.299  54.546  1.00  0.00     0.193 C 
BRANCH  18  19
HETATM   19  C6  UNL     1      27.166   0.681  54.087  1.00  0.00    -0.004 A 
HETATM   20  C1  UNL     1      27.417  -0.634  53.761  1.00  0.00     0.095 A 
HETATM   21  C2  UNL     1      28.619  -1.142  53.337  1.00  0.00     0.067 A 
HETATM   22 CL1  UNL     1      28.769  -2.857  52.958  1.00  0.00    -0.081 Cl
HETATM   23  C3  UNL     1      29.677  -0.261  53.227  1.00  0.00     0.026 A 
HETATM   24  C4  UNL     1      29.521   1.056  53.529  1.00  0.00     0.002 A 
HETATM   25  C5  UNL     1      28.288   1.513  53.951  1.00  0.00     0.012 A 
BRANCH  20  26
HETATM   26  O1  UNL     1      26.370  -1.506  53.869  1.00  0.00    -0.358 OA
HETATM   27  H1  UNL     1      25.605  -1.547  53.208  1.00  0.00     0.217 HD
ENDBRANCH  20  26
ENDBRANCH  18  19
ENDBRANCH   1  18
BRANCH  11  28
HETATM   28  O2  UNL     1      20.801   1.101  48.588  1.00  0.00    -0.391 OA
HETATM   29  H19 UNL     1      20.225   1.639  47.991  1.00  0.00     0.210 HD
ENDBRANCH  11  28
TORSDOF 4
ENDMDL
MODEL 5
REMARK VINA RESULT:      -8.4      2.744      7.371
REMARK  4 active torsions:
REMARK  status: ('A' for Active; 'I' for Inactive)
REMARK    1  A    between atoms: O1_1  and  C1_2 
REMARK    2  A    between atoms: C6_8  and  C7_9 
REMARK    3  A    between atoms: C7_9  and  N1_10 
REMARK    4  A    between atoms: C16_20  and  O2_21 
ROOT
HETATM    1  N1  UNL     1      24.610   1.418  52.994  1.00  0.00    -0.262 N 
HETATM    2  C8  UNL     1      24.978   2.728  53.307  1.00  0.00     0.418 C 
HETATM    3  N2  UNL     1      24.577   3.657  52.284  1.00  0.00     0.106 NA
HETATM    4  C9  UNL     1      25.183   3.514  51.013  1.00  0.00     0.306 C 
HETATM    5  C10 UNL     1      24.706   4.651  50.139  1.00  0.00    -0.045 C 
HETATM    6  C11 UNL     1      25.648   5.177  49.347  1.00  0.00    -0.018 C 
HETATM    7  C12 UNL     1      25.539   6.296  48.368  1.00  0.00     0.054 C 
HETATM    8  C13 UNL     1      24.441   7.247  48.778  1.00  0.00    -0.026 C 
HETATM    9  C14 UNL     1      23.493   6.712  49.522  1.00  0.00    -0.018 C 
HETATM   10  C15 UNL     1      23.408   5.302  49.979  1.00  0.00     0.070 C 
HETATM   11  C16 UNL     1      22.493   4.609  48.969  1.00  0.00     0.152 C 
HETATM   12  C17 UNL     1      22.504   3.135  49.188  1.00  0.00     0.001 C 
HETATM   13  C18 UNL     1      22.090   2.298  50.113  1.00  0.00    -0.026 C 
HETATM   14  C19 UNL     1      21.930   0.912  50.648  1.00  0.00     0.055 C 
HETATM   15  C20 UNL     1      22.630   0.801  51.994  1.00  0.00     0.205 C 
HETATM   16  O3  UNL     1      23.967   1.129  51.907  1.00  0.00    -0.281 OA
HETATM   17  H9  UNL     1      23.535   3.664  52.277  1.00  0.00     0.318 HD
ENDROOT
BRANCH   1  18
HETATM   18  C7  UNL     1      25.028   0.385  53.870  1.00  0.00     0.193 C 
BRANCH  18  19
HETATM   19  C6  UNL     1      26.236  -0.358  53.539  1.00  0.00    -0.004 A 
HETATM   20  C1  UNL     1      27.550  -0.063  53.829  1.00  0.00     0.095 A 
HETATM   21  C2  UNL     1      28.640  -0.819  53.476  1.00  0.00     0.067 A 
HETATM   22 CL1  UNL     1      30.261  -0.296  53.930  1.00  0.00    -0.081 Cl
HETATM   23  C3  UNL     1      28.405  -1.979  52.764  1.00  0.00     0.026 A 
HETATM   24  C4  UNL     1      27.139  -2.349  52.434  1.00  0.00     0.002 A 
HETATM   25  C5  UNL     1      26.078  -1.550  52.815  1.00  0.00     0.012 A 
BRANCH  20  26
HETATM   26  O1  UNL     1      27.783   1.085  54.534  1.00  0.00    -0.358 OA
HETATM   27  H1  UNL     1      27.164   1.884  54.522  1.00  0.00     0.217 HD
ENDBRANCH  20  26
ENDBRANCH  18  19
ENDBRANCH   1  18
BRANCH  11  28
HETATM   28  O2  UNL     1      23.002   4.847  47.719  1.00  0.00    -0.391 OA
HETATM   29  H19 UNL     1      23.975   5.016  47.676  1.00  0.00     0.210 HD
ENDBRANCH  11  28
TORSDOF 4
ENDMDL
MODEL 6
REMARK VINA RESULT:      -8.3      3.376      7.786
REMARK  4 active torsions:
REMARK  status: ('A' for Active; 'I' for Inactive)
REMARK    1  A    between atoms: O1_1  and  C1_2 
REMARK    2  A    between atoms: C6_8  and  C7_9 
REMARK    3  A    between atoms: C7_9  and  N1_10 
REMARK    4  A    between atoms: C16_20  and  O2_21 
ROOT
HETATM    1  N1  UNL     1      25.291   1.676  52.938  1.00  0.00    -0.262 N 
HETATM    2  C8  UNL     1      24.190   0.832  52.783  1.00  0.00     0.418 C 
HETATM    3  N2  UNL     1      23.363   1.226  51.674  1.00  0.00     0.106 NA
HETATM    4  C9  UNL     1      22.715   2.481  51.770  1.00  0.00     0.306 C 
HETATM    5  C10 UNL     1      21.820   2.637  50.562  1.00  0.00    -0.045 C 
HETATM    6  C11 UNL     1      20.634   3.202  50.818  1.00  0.00    -0.018 C 
HETATM    7  C12 UNL     1      19.514   3.507  49.882  1.00  0.00     0.054 C 
HETATM    8  C13 UNL     1      19.531   2.552  48.714  1.00  0.00    -0.026 C 
HETATM    9  C14 UNL     1      20.712   2.032  48.440  1.00  0.00    -0.018 C 
HETATM   10  C15 UNL     1      21.988   2.292  49.152  1.00  0.00     0.070 C 
HETATM   11  C16 UNL     1      22.688   3.377  48.333  1.00  0.00     0.152 C 
HETATM   12  C17 UNL     1      23.881   3.888  49.066  1.00  0.00     0.001 C 
HETATM   13  C18 UNL     1      25.057   3.426  49.429  1.00  0.00    -0.026 C 
HETATM   14  C19 UNL     1      26.381   3.597  50.098  1.00  0.00     0.055 C 
HETATM   15  C20 UNL     1      26.526   2.574  51.214  1.00  0.00     0.205 C 
HETATM   16  O3  UNL     1      25.506   2.672  52.138  1.00  0.00    -0.281 OA
HETATM   17  H9  UNL     1      23.932   1.089  50.811  1.00  0.00     0.318 HD
ENDROOT
BRANCH   1  18
HETATM   18  C7  UNL     1      26.139   1.461  54.052  1.00  0.00     0.193 C 
BRANCH  18  19
HETATM   19  C6  UNL     1      27.387   0.739  53.844  1.00  0.00    -0.004 A 
HETATM   20  C1  UNL     1      27.591  -0.603  53.610  1.00  0.00     0.095 A 
HETATM   21  C2  UNL     1      28.808  -1.211  53.427  1.00  0.00     0.067 A 
HETATM   22 CL1  UNL     1      28.892  -2.947  53.135  1.00  0.00    -0.081 Cl
HETATM   23  C3  UNL     1      29.932  -0.411  53.482  1.00  0.00     0.026 A 
HETATM   24  C4  UNL     1      29.826   0.926  53.709  1.00  0.00     0.002 A 
HETATM   25  C5  UNL     1      28.575   1.485  53.886  1.00  0.00     0.012 A 
BRANCH  20  26
HETATM   26  O1  UNL     1      26.479  -1.395  53.555  1.00  0.00    -0.358 OA
HETATM   27  H1  UNL     1      26.459  -2.356  53.870  1.00  0.00     0.217 HD
ENDBRANCH  20  26
ENDBRANCH  18  19
ENDBRANCH   1  18
BRANCH  11  28
HETATM   28  O2  UNL     1      21.810   4.420  48.191  1.00  0.00    -0.391 OA
HETATM   29  H19 UNL     1      21.594   4.915  49.019  1.00  0.00     0.210 HD
ENDBRANCH  11  28
TORSDOF 4
ENDMDL
MODEL 7
REMARK VINA RESULT:      -8.0      6.347      9.574
REMARK  4 active torsions:
REMARK  status: ('A' for Active; 'I' for Inactive)
REMARK    1  A    between atoms: O1_1  and  C1_2 
REMARK    2  A    between atoms: C6_8  and  C7_9 
REMARK    3  A    between atoms: C7_9  and  N1_10 
REMARK    4  A    between atoms: C16_20  and  O2_21 
ROOT
HETATM    1  N1  UNL     1      31.630   7.965  46.721  1.00  0.00    -0.262 N 
HETATM    2  C8  UNL     1      30.638   7.383  45.929  1.00  0.00     0.418 C 
HETATM    3  N2  UNL     1      29.356   7.395  46.580  1.00  0.00     0.106 NA
HETATM    4  C9  UNL     1      29.228   6.625  47.761  1.00  0.00     0.306 C 
HETATM    5  C10 UNL     1      27.785   6.691  48.206  1.00  0.00    -0.045 C 
HETATM    6  C11 UNL     1      27.294   5.537  48.672  1.00  0.00    -0.018 C 
HETATM    7  C12 UNL     1      25.928   5.235  49.189  1.00  0.00     0.054 C 
HETATM    8  C13 UNL     1      24.912   6.156  48.561  1.00  0.00    -0.026 C 
HETATM    9  C14 UNL     1      25.395   7.310  48.142  1.00  0.00    -0.018 C 
HETATM   10  C15 UNL     1      26.803   7.773  48.231  1.00  0.00     0.070 C 
HETATM   11  C16 UNL     1      26.863   8.629  49.496  1.00  0.00     0.152 C 
HETATM   12  C17 UNL     1      28.276   8.972  49.821  1.00  0.00     0.001 C 
HETATM   13  C18 UNL     1      29.232   9.707  49.297  1.00  0.00    -0.026 C 
HETATM   14  C19 UNL     1      30.624  10.250  49.312  1.00  0.00     0.055 C 
HETATM   15  C20 UNL     1      31.348   9.830  48.041  1.00  0.00     0.205 C 
HETATM   16  O3  UNL     1      31.369   8.459  47.890  1.00  0.00    -0.281 OA
HETATM   17  H9  UNL     1      29.075   8.395  46.672  1.00  0.00     0.318 HD
ENDROOT
BRANCH   1  18
HETATM   18  C7  UNL     1      32.963   7.934  46.243  1.00  0.00     0.193 C 
BRANCH  18  19
HETATM   19  C6  UNL     1      33.578   6.639  45.986  1.00  0.00    -0.004 A 
HETATM   20  C1  UNL     1      33.954   5.658  46.878  1.00  0.00     0.095 A 
HETATM   21  C2  UNL     1      34.535   4.458  46.554  1.00  0.00     0.067 A 
HETATM   22 CL1  UNL     1      34.955   3.309  47.824  1.00  0.00    -0.081 Cl
HETATM   23  C3  UNL     1      34.767   4.204  45.217  1.00  0.00     0.026 A 
HETATM   24  C4  UNL     1      34.428   5.116  44.266  1.00  0.00     0.002 A 
HETATM   25  C5  UNL     1      33.846   6.308  44.649  1.00  0.00     0.012 A 
BRANCH  20  26
HETATM   26  O1  UNL     1      33.724   5.908  48.202  1.00  0.00    -0.358 OA
HETATM   27  H1  UNL     1      33.087   5.367  48.771  1.00  0.00     0.217 HD
ENDBRANCH  20  26
ENDBRANCH  18  19
ENDBRANCH   1  18
BRANCH  11  28
HETATM   28  O2  UNL     1      26.371   7.874  50.530  1.00  0.00    -0.391 OA
HETATM   29  H19 UNL     1      26.318   8.329  51.406  1.00  0.00     0.210 HD
ENDBRANCH  11  28
TORSDOF 4
ENDMDL
MODEL 8
REMARK VINA RESULT:      -7.9      3.000      4.307
REMARK  4 active torsions:
REMARK  status: ('A' for Active; 'I' for Inactive)
REMARK    1  A    between atoms: O1_1  and  C1_2 
REMARK    2  A    between atoms: C6_8  and  C7_9 
REMARK    3  A    between atoms: C7_9  and  N1_10 
REMARK    4  A    between atoms: C16_20  and  O2_21 
ROOT
HETATM    1  N1  UNL     1      23.397   5.351  51.021  1.00  0.00    -0.262 N 
HETATM    2  C8  UNL     1      23.235   5.090  52.384  1.00  0.00     0.418 C 
HETATM    3  N2  UNL     1      24.042   3.982  52.818  1.00  0.00     0.106 NA
HETATM    4  C9  UNL     1      23.734   2.712  52.274  1.00  0.00     0.306 C 
HETATM    5  C10 UNL     1      24.621   1.689  52.948  1.00  0.00    -0.045 C 
HETATM    6  C11 UNL     1      24.015   0.531  53.234  1.00  0.00    -0.018 C 
HETATM    7  C12 UNL     1      24.571  -0.687  53.891  1.00  0.00     0.054 C 
HETATM    8  C13 UNL     1      25.709  -0.315  54.809  1.00  0.00    -0.026 C 
HETATM    9  C14 UNL     1      26.330   0.806  54.496  1.00  0.00    -0.018 C 
HETATM   10  C15 UNL     1      26.023   1.708  53.357  1.00  0.00     0.070 C 
HETATM   11  C16 UNL     1      26.992   1.296  52.249  1.00  0.00     0.152 C 
HETATM   12  C17 UNL     1      26.636   1.977  50.972  1.00  0.00     0.001 C 
HETATM   13  C18 UNL     1      26.646   3.206  50.503  1.00  0.00    -0.026 C 
HETATM   14  C19 UNL     1      26.396   4.190  49.408  1.00  0.00     0.055 C 
HETATM   15  C20 UNL     1      25.392   5.232  49.878  1.00  0.00     0.205 C 
HETATM   16  O3  UNL     1      24.206   4.657  50.285  1.00  0.00    -0.281 OA
HETATM   17  H9  UNL     1      25.036   4.276  52.716  1.00  0.00     0.318 HD
ENDROOT
BRANCH   1  18
HETATM   18  C7  UNL     1      22.588   6.357  50.438  1.00  0.00     0.193 C 
BRANCH  18  19
HETATM   19  C6  UNL     1      21.517   5.950  49.538  1.00  0.00    -0.004 A 
HETATM   20  C1  UNL     1      21.583   5.578  48.213  1.00  0.00     0.095 A 
HETATM   21  C2  UNL     1      20.520   5.209  47.428  1.00  0.00     0.067 A 
HETATM   22 CL1  UNL     1      20.780   4.758  45.744  1.00  0.00    -0.081 Cl
HETATM   23  C3  UNL     1      19.268   5.211  48.012  1.00  0.00     0.026 A 
HETATM   24  C4  UNL     1      19.109   5.565  49.315  1.00  0.00     0.002 A 
HETATM   25  C5  UNL     1      20.214   5.927  50.060  1.00  0.00     0.012 A 
BRANCH  20  26
HETATM   26  O1  UNL     1      22.822   5.575  47.635  1.00  0.00    -0.358 OA
HETATM   27  H1  UNL     1      23.518   4.861  47.806  1.00  0.00     0.217 HD
ENDBRANCH  20  26
ENDBRANCH  18  19
ENDBRANCH   1  18
BRANCH  11  28
HETATM   28  O2  UNL     1      26.848  -0.053  52.054  1.00  0.00    -0.391 OA
HETATM   29  H19 UNL     1      27.382  -0.439  51.317  1.00  0.00     0.210 HD
ENDBRANCH  11  28
TORSDOF 4
ENDMDL
MODEL 9
REMARK VINA RESULT:      -7.9      6.149      9.224
REMARK  4 active torsions:
REMARK  status: ('A' for Active; 'I' for Inactive)
REMARK    1  A    between atoms: O1_1  and  C1_2 
REMARK    2  A    between atoms: C6_8  and  C7_9 
REMARK    3  A    between atoms: C7_9  and  N1_10 
REMARK    4  A    between atoms: C16_20  and  O2_21 
ROOT
HETATM    1  N1  UNL     1      31.098   8.275  46.782  1.00  0.00    -0.262 N 
HETATM    2  C8  UNL     1      30.158   7.596  46.005  1.00  0.00     0.418 C 
HETATM    3  N2  UNL     1      28.902   7.448  46.689  1.00  0.00     0.106 NA
HETATM    4  C9  UNL     1      28.897   6.649  47.858  1.00  0.00     0.306 C 
HETATM    5  C10 UNL     1      27.469   6.540  48.341  1.00  0.00    -0.045 C 
HETATM    6  C11 UNL     1      27.128   5.329  48.798  1.00  0.00    -0.018 C 
HETATM    7  C12 UNL     1      25.822   4.861  49.344  1.00  0.00     0.054 C 
HETATM    8  C13 UNL     1      24.689   5.669  48.761  1.00  0.00    -0.026 C 
HETATM    9  C14 UNL     1      25.023   6.878  48.353  1.00  0.00    -0.018 C 
HETATM   10  C15 UNL     1      26.370   7.500  48.413  1.00  0.00     0.070 C 
HETATM   11  C16 UNL     1      26.367   8.335  49.693  1.00  0.00     0.152 C 
HETATM   12  C17 UNL     1      27.739   8.835  49.988  1.00  0.00     0.001 C 
HETATM   13  C18 UNL     1      28.589   9.685  49.454  1.00  0.00    -0.026 C 
HETATM   14  C19 UNL     1      29.908  10.385  49.442  1.00  0.00     0.055 C 
HETATM   15  C20 UNL     1      30.640  10.073  48.145  1.00  0.00     0.205 C 
HETATM   16  O3  UNL     1      30.815   8.716  47.966  1.00  0.00    -0.281 OA
HETATM   17  H9  UNL     1      28.510   8.407  46.809  1.00  0.00     0.318 HD
ENDROOT
BRANCH   1  18
HETATM   18  C7  UNL     1      32.412   8.407  46.268  1.00  0.00     0.193 C 
BRANCH  18  19
HETATM   19  C6  UNL     1      33.512   7.821  47.020  1.00  0.00    -0.004 A 
HETATM   20  C1  UNL     1      33.782   6.495  47.285  1.00  0.00     0.095 A 
HETATM   21  C2  UNL     1      34.846   6.021  48.010  1.00  0.00     0.067 A 
HETATM   22 CL1  UNL     1      35.044   4.286  48.255  1.00  0.00    -0.081 Cl
HETATM   23  C3  UNL     1      35.729   6.950  48.524  1.00  0.00     0.026 A 
HETATM   24  C4  UNL     1      35.542   8.280  48.313  1.00  0.00     0.002 A 
HETATM   25  C5  UNL     1      34.453   8.702  47.575  1.00  0.00     0.012 A 
BRANCH  20  26
HETATM   26  O1  UNL     1      32.908   5.575  46.776  1.00  0.00    -0.358 OA
HETATM   27  H1  UNL     1      33.080   5.050  45.929  1.00  0.00     0.217 HD
ENDBRANCH  20  26
ENDBRANCH  18  19
ENDBRANCH   1  18
BRANCH  11  28
HETATM   28  O2  UNL     1      25.994   7.512  50.724  1.00  0.00    -0.391 OA
HETATM   29  H19 UNL     1      25.475   6.711  50.468  1.00  0.00     0.210 HD
ENDBRANCH  11  28
TORSDOF 4
ENDMDL
