MODEL 1
REMARK VINA RESULT:      -9.9      0.000      0.000
REMARK  6 active torsions:
REMARK  status: ('A' for Active; 'I' for Inactive)
REMARK    1  A    between atoms: C7_7  and  N1_8 
REMARK    2  A    between atoms: N1_8  and  C8_9 
REMARK    3  A    between atoms: N5_19  and  C15_20 
REMARK    4  A    between atoms: C15_20  and  C16_21 
REMARK    5  A    between atoms: C16_21  and  C17_22 
REMARK    6  A    between atoms: C17_22  and  N6_23 
ROOT
HETATM    1  C1  UNL     1      29.411  -2.308  53.371  1.00  0.00     0.018 C 
HETATM    2  C2  UNL     1      28.680  -1.348  53.336  1.00  0.00    -0.078 C 
HETATM    3  C3  UNL     1      27.795  -0.212  53.286  1.00  0.00     0.019 A 
HETATM    4  C4  UNL     1      28.374   1.012  53.424  1.00  0.00     0.021 A 
HETATM    5  C5  UNL     1      27.574   2.108  53.383  1.00  0.00     0.004 A 
HETATM    6  C6  UNL     1      26.225   1.963  53.207  1.00  0.00     0.029 A 
HETATM    7  C7  UNL     1      25.555   0.758  53.059  1.00  0.00     0.035 A 
HETATM    8  C25 UNL     1      26.434  -0.309  53.112  1.00  0.00     0.050 A 
ENDROOT
BRANCH   7   9
HETATM    9  N1  UNL     1      24.166   0.597  52.886  1.00  0.00    -0.339 N 
HETATM   10  H5  UNL     1      23.888   1.162  52.082  1.00  0.00     0.167 HD
BRANCH   9  11
HETATM   11  C8  UNL     1      23.252  -0.179  53.635  1.00  0.00     0.164 A 
HETATM   12  N2  UNL     1      23.614  -0.848  54.733  1.00  0.00    -0.111 NA
HETATM   13  N3  UNL     1      22.723  -1.552  55.389  1.00  0.00    -0.041 NA
HETATM   14  N4  UNL     1      21.463  -1.635  55.016  1.00  0.00    -0.130 NA
HETATM   15  C9  UNL     1      21.013  -0.981  53.905  1.00  0.00     0.097 A 
HETATM   16  C10 UNL     1      19.690  -1.111  53.573  1.00  0.00     0.073 A 
HETATM   17  C14 UNL     1      21.949  -0.227  53.195  1.00  0.00     0.045 A 
HETATM   18  C11 UNL     1      19.206  -0.462  52.457  1.00  0.00     0.098 A 
HETATM   19  C12 UNL     1      20.102   0.291  51.734  1.00  0.00     0.071 A 
HETATM   20  O2  UNL     1      17.883  -0.578  52.106  1.00  0.00    -0.340 OA
HETATM   21  C13 UNL     1      21.420   0.396  52.099  1.00  0.00     0.050 A 
HETATM   22  N5  UNL     1      19.699   1.011  50.586  1.00  0.00    -0.314 N 
HETATM   23  C23 UNL     1      18.293   0.873  50.277  1.00  0.00     0.248 C 
HETATM   24  O1  UNL     1      17.748   1.710  49.484  1.00  0.00    -0.271 OA
HETATM   25  C24 UNL     1      17.401  -0.185  50.815  1.00  0.00     0.279 C 
BRANCH  22  26
HETATM   26  C15 UNL     1      20.450   1.844  49.709  1.00  0.00     0.134 C 
BRANCH  26  27
HETATM   27  C16 UNL     1      21.348   1.144  48.739  1.00  0.00     0.040 C 
BRANCH  27  28
HETATM   28  C17 UNL     1      22.421   1.983  48.167  1.00  0.00     0.118 C 
BRANCH  28  29
HETATM   29  N6  UNL     1      22.820   3.089  49.010  1.00  0.00    -0.412 N 
HETATM   30  C18 UNL     1      23.865   2.823  49.929  1.00  0.00     0.117 C 
HETATM   31  C19 UNL     1      25.173   3.488  49.670  1.00  0.00     0.019 C 
HETATM   32  C20 UNL     1      25.095   4.879  49.128  1.00  0.00     0.003 C 
HETATM   33  C21 UNL     1      23.654   5.352  49.103  1.00  0.00     0.019 C 
HETATM   34  C22 UNL     1      22.880   4.336  48.326  1.00  0.00     0.117 C 
ENDBRANCH  28  29
ENDBRANCH  27  28
ENDBRANCH  26  27
ENDBRANCH  22  26
ENDBRANCH   9  11
ENDBRANCH   7   9
TORSDOF 6
ENDMDL
MODEL 2
REMARK VINA RESULT:      -9.9      3.125      6.569
REMARK  6 active torsions:
REMARK  status: ('A' for Active; 'I' for Inactive)
REMARK    1  A    between atoms: C7_7  and  N1_8 
REMARK    2  A    between atoms: N1_8  and  C8_9 
REMARK    3  A    between atoms: N5_19  and  C15_20 
REMARK    4  A    between atoms: C15_20  and  C16_21 
REMARK    5  A    between atoms: C16_21  and  C17_22 
REMARK    6  A    between atoms: C17_22  and  N6_23 
ROOT
HETATM    1  C1  UNL     1      19.424   3.230  47.322  1.00  0.00     0.018 C 
HETATM    2  C2  UNL     1      19.696   2.972  48.470  1.00  0.00    -0.078 C 
HETATM    3  C3  UNL     1      20.024   2.647  49.835  1.00  0.00     0.019 A 
HETATM    4  C4  UNL     1      19.608   3.531  50.782  1.00  0.00     0.021 A 
HETATM    5  C5  UNL     1      19.897   3.261  52.081  1.00  0.00     0.004 A 
HETATM    6  C6  UNL     1      20.589   2.127  52.405  1.00  0.00     0.029 A 
HETATM    7  C7  UNL     1      21.049   1.176  51.506  1.00  0.00     0.035 A 
HETATM    8  C25 UNL     1      20.717   1.519  50.208  1.00  0.00     0.050 A 
ENDROOT
BRANCH   7   9
HETATM    9  N1  UNL     1      21.768   0.009  51.829  1.00  0.00    -0.339 N 
HETATM   10  H5  UNL     1      22.110  -0.395  50.955  1.00  0.00     0.167 HD
BRANCH   9  11
HETATM   11  C8  UNL     1      22.021  -0.569  53.095  1.00  0.00     0.164 A 
HETATM   12  N2  UNL     1      21.065  -1.169  53.810  1.00  0.00    -0.111 NA
HETATM   13  N3  UNL     1      21.357  -1.688  54.978  1.00  0.00    -0.041 NA
HETATM   14  N4  UNL     1      22.568  -1.650  55.494  1.00  0.00    -0.130 NA
HETATM   15  C9  UNL     1      23.600  -1.056  54.826  1.00  0.00     0.097 A 
HETATM   16  C10 UNL     1      24.834  -1.051  55.421  1.00  0.00     0.073 A 
HETATM   17  C14 UNL     1      23.306  -0.497  53.581  1.00  0.00     0.045 A 
HETATM   18  C11 UNL     1      25.895  -0.458  54.771  1.00  0.00     0.098 A 
HETATM   19  C12 UNL     1      25.642   0.102  53.540  1.00  0.00     0.071 A 
HETATM   20  O2  UNL     1      27.142  -0.442  55.348  1.00  0.00    -0.340 OA
HETATM   21  C13 UNL     1      24.390   0.077  52.978  1.00  0.00     0.050 A 
HETATM   22  N5  UNL     1      26.668   0.715  52.785  1.00  0.00    -0.314 N 
HETATM   23  C23 UNL     1      27.962   0.681  53.428  1.00  0.00     0.248 C 
HETATM   24  O1  UNL     1      29.007   0.899  52.731  1.00  0.00    -0.271 OA
HETATM   25  C24 UNL     1      28.192   0.408  54.870  1.00  0.00     0.279 C 
BRANCH  22  26
HETATM   26  C15 UNL     1      26.625   1.339  51.507  1.00  0.00     0.134 C 
BRANCH  26  27
HETATM   27  C16 UNL     1      26.399   2.818  51.500  1.00  0.00     0.040 C 
BRANCH  27  28
HETATM   28  C17 UNL     1      26.015   3.384  50.191  1.00  0.00     0.118 C 
BRANCH  28  29
HETATM   29  N6  UNL     1      24.589   3.548  50.012  1.00  0.00    -0.412 N 
HETATM   30  C18 UNL     1      23.815   3.578  51.198  1.00  0.00     0.117 C 
HETATM   31  C19 UNL     1      23.190   4.882  51.560  1.00  0.00     0.019 C 
HETATM   32  C20 UNL     1      22.692   5.701  50.412  1.00  0.00     0.003 C 
HETATM   33  C21 UNL     1      22.816   4.920  49.118  1.00  0.00     0.019 C 
HETATM   34  C22 UNL     1      24.244   4.495  49.006  1.00  0.00     0.117 C 
ENDBRANCH  28  29
ENDBRANCH  27  28
ENDBRANCH  26  27
ENDBRANCH  22  26
ENDBRANCH   9  11
ENDBRANCH   7   9
TORSDOF 6
ENDMDL
MODEL 3
REMARK VINA RESULT:      -9.7      2.481      5.663
REMARK  6 active torsions:
REMARK  status: ('A' for Active; 'I' for Inactive)
REMARK    1  A    between atoms: C7_7  and  N1_8 
REMARK    2  A    between atoms: N1_8  and  C8_9 
REMARK    3  A    between atoms: N5_19  and  C15_20 
REMARK    4  A    between atoms: C15_20  and  C16_21 
REMARK    5  A    between atoms: C16_21  and  C17_22 
REMARK    6  A    between atoms: C17_22  and  N6_23 
ROOT
HETATM    1  C1  UNL     1      23.623   7.951  50.522  1.00  0.00     0.018 C 
HETATM    2  C2  UNL     1      24.401   7.075  50.231  1.00  0.00    -0.078 C 
HETATM    3  C3  UNL     1      25.325   6.020  49.900  1.00  0.00     0.019 A 
HETATM    4  C4  UNL     1      26.247   6.305  48.940  1.00  0.00     0.021 A 
HETATM    5  C5  UNL     1      27.136   5.338  48.599  1.00  0.00     0.004 A 
HETATM    6  C6  UNL     1      27.088   4.117  49.214  1.00  0.00     0.029 A 
HETATM    7  C7  UNL     1      26.185   3.744  50.198  1.00  0.00     0.035 A 
HETATM    8  C25 UNL     1      25.314   4.778  50.491  1.00  0.00     0.050 A 
ENDROOT
BRANCH   7   9
HETATM    9  N1  UNL     1      26.121   2.488  50.832  1.00  0.00    -0.339 N 
HETATM   10  H5  UNL     1      25.512   1.889  50.272  1.00  0.00     0.167 HD
BRANCH   9  11
HETATM   11  C8  UNL     1      26.749   2.050  52.021  1.00  0.00     0.164 A 
HETATM   12  N2  UNL     1      27.994   2.408  52.346  1.00  0.00    -0.111 NA
HETATM   13  N3  UNL     1      28.526   1.972  53.462  1.00  0.00    -0.041 NA
HETATM   14  N4  UNL     1      27.884   1.183  54.299  1.00  0.00    -0.130 NA
HETATM   15  C9  UNL     1      26.608   0.771  54.039  1.00  0.00     0.097 A 
HETATM   16  C10 UNL     1      25.998  -0.050  54.951  1.00  0.00     0.073 A 
HETATM   17  C14 UNL     1      26.027   1.227  52.855  1.00  0.00     0.045 A 
HETATM   18  C11 UNL     1      24.710  -0.482  54.717  1.00  0.00     0.098 A 
HETATM   19  C12 UNL     1      24.107  -0.051  53.558  1.00  0.00     0.071 A 
HETATM   20  O2  UNL     1      24.079  -1.305  55.618  1.00  0.00    -0.340 OA
HETATM   21  C13 UNL     1      24.751   0.771  52.669  1.00  0.00     0.050 A 
HETATM   22  N5  UNL     1      22.781  -0.422  53.238  1.00  0.00    -0.314 N 
HETATM   23  C23 UNL     1      22.157  -1.267  54.232  1.00  0.00     0.248 C 
HETATM   24  O1  UNL     1      20.889  -1.399  54.226  1.00  0.00    -0.271 OA
HETATM   25  C24 UNL     1      22.881  -2.018  55.289  1.00  0.00     0.279 C 
BRANCH  22  26
HETATM   26  C15 UNL     1      21.976  -0.088  52.112  1.00  0.00     0.134 C 
BRANCH  26  27
HETATM   27  C16 UNL     1      21.242   1.213  52.187  1.00  0.00     0.040 C 
BRANCH  27  28
HETATM   28  C17 UNL     1      20.791   1.750  50.887  1.00  0.00     0.118 C 
BRANCH  28  29
HETATM   29  N6  UNL     1      21.570   2.869  50.407  1.00  0.00    -0.412 N 
HETATM   30  C18 UNL     1      22.810   2.549  49.801  1.00  0.00     0.117 C 
HETATM   31  C19 UNL     1      22.917   2.773  48.331  1.00  0.00     0.019 C 
HETATM   32  C20 UNL     1      22.207   3.980  47.808  1.00  0.00     0.003 C 
HETATM   33  C21 UNL     1      21.645   4.797  48.955  1.00  0.00     0.019 C 
HETATM   34  C22 UNL     1      20.792   3.874  49.764  1.00  0.00     0.117 C 
ENDBRANCH  28  29
ENDBRANCH  27  28
ENDBRANCH  26  27
ENDBRANCH  22  26
ENDBRANCH   9  11
ENDBRANCH   7   9
TORSDOF 6
ENDMDL
MODEL 4
REMARK VINA RESULT:      -9.2      2.507      5.215
REMARK  6 active torsions:
REMARK  status: ('A' for Active; 'I' for Inactive)
REMARK    1  A    between atoms: C7_7  and  N1_8 
REMARK    2  A    between atoms: N1_8  and  C8_9 
REMARK    3  A    between atoms: N5_19  and  C15_20 
REMARK    4  A    between atoms: C15_20  and  C16_21 
REMARK    5  A    between atoms: C16_21  and  C17_22 
REMARK    6  A    between atoms: C17_22  and  N6_23 
ROOT
HETATM    1  C1  UNL     1      30.133   5.741  47.814  1.00  0.00     0.018 C 
HETATM    2  C2  UNL     1      28.981   5.635  48.158  1.00  0.00    -0.078 C 
HETATM    3  C3  UNL     1      27.608   5.490  48.569  1.00  0.00     0.019 A 
HETATM    4  C4  UNL     1      26.777   6.528  48.278  1.00  0.00     0.021 A 
HETATM    5  C5  UNL     1      25.475   6.431  48.649  1.00  0.00     0.004 A 
HETATM    6  C6  UNL     1      25.031   5.311  49.298  1.00  0.00     0.029 A 
HETATM    7  C7  UNL     1      25.807   4.211  49.633  1.00  0.00     0.035 A 
HETATM    8  C25 UNL     1      27.117   4.384  49.223  1.00  0.00     0.050 A 
ENDROOT
BRANCH   7   9
HETATM    9  N1  UNL     1      25.362   3.057  50.307  1.00  0.00    -0.339 N 
HETATM   10  H5  UNL     1      24.463   2.791  49.903  1.00  0.00     0.167 HD
BRANCH   9  11
HETATM   11  C8  UNL     1      25.979   2.337  51.356  1.00  0.00     0.164 A 
HETATM   12  N2  UNL     1      27.282   2.445  51.628  1.00  0.00    -0.111 NA
HETATM   13  N3  UNL     1      27.800   1.753  52.614  1.00  0.00    -0.041 NA
HETATM   14  N4  UNL     1      27.089   0.940  53.367  1.00  0.00    -0.130 NA
HETATM   15  C9  UNL     1      25.750   0.773  53.154  1.00  0.00     0.097 A 
HETATM   16  C10 UNL     1      25.070  -0.089  53.974  1.00  0.00     0.073 A 
HETATM   17  C14 UNL     1      25.183   1.503  52.108  1.00  0.00     0.045 A 
HETATM   18  C11 UNL     1      23.718  -0.277  53.783  1.00  0.00     0.098 A 
HETATM   19  C12 UNL     1      23.126   0.427  52.761  1.00  0.00     0.071 A 
HETATM   20  O2  UNL     1      23.016  -1.136  54.594  1.00  0.00    -0.340 OA
HETATM   21  C13 UNL     1      23.842   1.281  51.961  1.00  0.00     0.050 A 
HETATM   22  N5  UNL     1      21.741   0.318  52.499  1.00  0.00    -0.314 N 
HETATM   23  C23 UNL     1      21.048  -0.578  53.396  1.00  0.00     0.248 C 
HETATM   24  O1  UNL     1      19.777  -0.515  53.477  1.00  0.00    -0.271 OA
HETATM   25  C24 UNL     1      21.701  -1.596  54.259  1.00  0.00     0.279 C 
BRANCH  22  26
HETATM   26  C15 UNL     1      20.937   0.953  51.511  1.00  0.00     0.134 C 
BRANCH  26  27
HETATM   27  C16 UNL     1      21.158   0.517  50.097  1.00  0.00     0.040 C 
BRANCH  27  28
HETATM   28  C17 UNL     1      20.699   1.475  49.070  1.00  0.00     0.118 C 
BRANCH  28  29
HETATM   29  N6  UNL     1      20.637   2.846  49.526  1.00  0.00    -0.412 N 
HETATM   30  C18 UNL     1      21.747   3.661  49.194  1.00  0.00     0.117 C 
HETATM   31  C19 UNL     1      21.511   4.742  48.194  1.00  0.00     0.019 C 
HETATM   32  C20 UNL     1      20.181   5.419  48.276  1.00  0.00     0.003 C 
HETATM   33  C21 UNL     1      19.416   4.927  49.489  1.00  0.00     0.019 C 
HETATM   34  C22 UNL     1      19.351   3.438  49.383  1.00  0.00     0.117 C 
ENDBRANCH  28  29
ENDBRANCH  27  28
ENDBRANCH  26  27
ENDBRANCH  22  26
ENDBRANCH   9  11
ENDBRANCH   7   9
TORSDOF 6
ENDMDL
MODEL 5
REMARK VINA RESULT:      -9.1      3.061      7.030
REMARK  6 active torsions:
REMARK  status: ('A' for Active; 'I' for Inactive)
REMARK    1  A    between atoms: C7_7  and  N1_8 
REMARK    2  A    between atoms: N1_8  and  C8_9 
REMARK    3  A    between atoms: N5_19  and  C15_20 
REMARK    4  A    between atoms: C15_20  and  C16_21 
REMARK    5  A    between atoms: C16_21  and  C17_22 
REMARK    6  A    between atoms: C17_22  and  N6_23 
ROOT
HETATM    1  C1  UNL     1      16.283   0.784  49.097  1.00  0.00     0.018 C 
HETATM    2  C2  UNL     1      16.843   0.355  50.077  1.00  0.00    -0.078 C 
HETATM    3  C3  UNL     1      17.527  -0.151  51.240  1.00  0.00     0.019 A 
HETATM    4  C4  UNL     1      16.850  -1.064  51.988  1.00  0.00     0.021 A 
HETATM    5  C5  UNL     1      17.460  -1.566  53.092  1.00  0.00     0.004 A 
HETATM    6  C6  UNL     1      18.720  -1.150  53.425  1.00  0.00     0.029 A 
HETATM    7  C7  UNL     1      19.479  -0.227  52.721  1.00  0.00     0.035 A 
HETATM    8  C25 UNL     1      18.792   0.238  51.613  1.00  0.00     0.050 A 
ENDROOT
BRANCH   7   9
HETATM    9  N1  UNL     1      20.773   0.214  53.059  1.00  0.00    -0.339 N 
HETATM   10  H5  UNL     1      20.915   1.124  52.618  1.00  0.00     0.167 HD
BRANCH   9  11
HETATM   11  C8  UNL     1      21.757  -0.417  53.854  1.00  0.00     0.164 A 
HETATM   12  N2  UNL     1      21.454  -1.350  54.760  1.00  0.00    -0.111 NA
HETATM   13  N3  UNL     1      22.409  -1.903  55.469  1.00  0.00    -0.041 NA
HETATM   14  N4  UNL     1      23.678  -1.581  55.332  1.00  0.00    -0.130 NA
HETATM   15  C9  UNL     1      24.071  -0.636  54.428  1.00  0.00     0.097 A 
HETATM   16  C10 UNL     1      25.407  -0.348  54.337  1.00  0.00     0.073 A 
HETATM   17  C14 UNL     1      23.067  -0.038  53.665  1.00  0.00     0.045 A 
HETATM   18  C11 UNL     1      25.834   0.601  53.433  1.00  0.00     0.098 A 
HETATM   19  C12 UNL     1      24.870   1.211  52.663  1.00  0.00     0.071 A 
HETATM   20  O2  UNL     1      27.170   0.905  53.324  1.00  0.00    -0.340 OA
HETATM   21  C13 UNL     1      23.541   0.895  52.785  1.00  0.00     0.050 A 
HETATM   22  N5  UNL     1      25.209   2.182  51.694  1.00  0.00    -0.314 N 
HETATM   23  C23 UNL     1      26.628   2.445  51.604  1.00  0.00     0.248 C 
HETATM   24  O1  UNL     1      27.085   3.039  50.573  1.00  0.00    -0.271 OA
HETATM   25  C24 UNL     1      27.631   2.075  52.636  1.00  0.00     0.279 C 
BRANCH  22  26
HETATM   26  C15 UNL     1      24.383   2.920  50.800  1.00  0.00     0.134 C 
BRANCH  26  27
HETATM   27  C16 UNL     1      23.633   4.072  51.390  1.00  0.00     0.040 C 
BRANCH  27  28
HETATM   28  C17 UNL     1      22.682   4.731  50.473  1.00  0.00     0.118 C 
BRANCH  28  29
HETATM   29  N6  UNL     1      21.339   4.847  50.996  1.00  0.00    -0.412 N 
HETATM   30  C18 UNL     1      20.431   5.605  50.216  1.00  0.00     0.117 C 
HETATM   31  C19 UNL     1      19.331   4.854  49.547  1.00  0.00     0.019 C 
HETATM   32  C20 UNL     1      18.756   3.717  50.328  1.00  0.00     0.003 C 
HETATM   33  C21 UNL     1      19.352   3.684  51.722  1.00  0.00     0.019 C 
HETATM   34  C22 UNL     1      20.837   3.638  51.556  1.00  0.00     0.117 C 
ENDBRANCH  28  29
ENDBRANCH  27  28
ENDBRANCH  26  27
ENDBRANCH  22  26
ENDBRANCH   9  11
ENDBRANCH   7   9
TORSDOF 6
ENDMDL
MODEL 6
REMARK VINA RESULT:      -9.1      1.702      2.716
REMARK  6 active torsions:
REMARK  status: ('A' for Active; 'I' for Inactive)
REMARK    1  A    between atoms: C7_7  and  N1_8 
REMARK    2  A    between atoms: N1_8  and  C8_9 
REMARK    3  A    between atoms: N5_19  and  C15_20 
REMARK    4  A    between atoms: C15_20  and  C16_21 
REMARK    5  A    between atoms: C16_21  and  C17_22 
REMARK    6  A    between atoms: C17_22  and  N6_23 
ROOT
HETATM    1  C1  UNL     1      26.713   3.978  49.353  1.00  0.00     0.018 C 
HETATM    2  C2  UNL     1      26.383   3.124  50.140  1.00  0.00    -0.078 C 
HETATM    3  C3  UNL     1      25.976   2.116  51.085  1.00  0.00     0.019 A 
HETATM    4  C4  UNL     1      26.880   1.132  51.346  1.00  0.00     0.021 A 
HETATM    5  C5  UNL     1      26.535   0.163  52.231  1.00  0.00     0.004 A 
HETATM    6  C6  UNL     1      25.306   0.192  52.832  1.00  0.00     0.029 A 
HETATM    7  C7  UNL     1      24.329   1.154  52.626  1.00  0.00     0.035 A 
HETATM    8  C25 UNL     1      24.752   2.105  51.714  1.00  0.00     0.050 A 
ENDROOT
BRANCH   7   9
HETATM    9  N1  UNL     1      23.059   1.190  53.233  1.00  0.00    -0.339 N 
HETATM   10  H5  UNL     1      22.754   2.164  53.255  1.00  0.00     0.167 HD
BRANCH   9  11
HETATM   11  C8  UNL     1      22.278   0.127  53.746  1.00  0.00     0.164 A 
HETATM   12  N2  UNL     1      22.729  -0.699  54.693  1.00  0.00    -0.111 NA
HETATM   13  N3  UNL     1      21.961  -1.667  55.131  1.00  0.00    -0.041 NA
HETATM   14  N4  UNL     1      20.742  -1.872  54.677  1.00  0.00    -0.130 NA
HETATM   15  C9  UNL     1      20.208  -1.073  53.708  1.00  0.00     0.097 A 
HETATM   16  C10 UNL     1      18.934  -1.343  53.280  1.00  0.00     0.073 A 
HETATM   17  C14 UNL     1      21.012  -0.037  53.231  1.00  0.00     0.045 A 
HETATM   18  C11 UNL     1      18.368  -0.553  52.303  1.00  0.00     0.098 A 
HETATM   19  C12 UNL     1      19.133   0.479  51.810  1.00  0.00     0.071 A 
HETATM   20  O2  UNL     1      17.092  -0.805  51.859  1.00  0.00    -0.340 OA
HETATM   21  C13 UNL     1      20.406   0.717  52.265  1.00  0.00     0.050 A 
HETATM   22  N5  UNL     1      18.634   1.358  50.822  1.00  0.00    -0.314 N 
HETATM   23  C23 UNL     1      17.280   1.062  50.410  1.00  0.00     0.248 C 
HETATM   24  O1  UNL     1      16.614   1.951  49.785  1.00  0.00    -0.271 OA
HETATM   25  C24 UNL     1      16.574  -0.221  50.657  1.00  0.00     0.279 C 
BRANCH  22  26
HETATM   26  C15 UNL     1      19.246   2.476  50.189  1.00  0.00     0.134 C 
BRANCH  26  27
HETATM   27  C16 UNL     1      19.204   3.768  50.943  1.00  0.00     0.040 C 
BRANCH  27  28
HETATM   28  C17 UNL     1      20.169   4.788  50.485  1.00  0.00     0.118 C 
BRANCH  28  29
HETATM   29  N6  UNL     1      21.545   4.495  50.820  1.00  0.00    -0.412 N 
HETATM   30  C18 UNL     1      22.464   4.514  49.742  1.00  0.00     0.117 C 
HETATM   31  C19 UNL     1      23.460   5.622  49.727  1.00  0.00     0.019 C 
HETATM   32  C20 UNL     1      23.986   6.036  51.064  1.00  0.00     0.003 C 
HETATM   33  C21 UNL     1      23.470   5.102  52.143  1.00  0.00     0.019 C 
HETATM   34  C22 UNL     1      21.980   5.099  52.033  1.00  0.00     0.117 C 
ENDBRANCH  28  29
ENDBRANCH  27  28
ENDBRANCH  26  27
ENDBRANCH  22  26
ENDBRANCH   9  11
ENDBRANCH   7   9
TORSDOF 6
ENDMDL
MODEL 7
REMARK VINA RESULT:      -9.1      3.055      6.522
REMARK  6 active torsions:
REMARK  status: ('A' for Active; 'I' for Inactive)
REMARK    1  A    between atoms: C7_7  and  N1_8 
REMARK    2  A    between atoms: N1_8  and  C8_9 
REMARK    3  A    between atoms: N5_19  and  C15_20 
REMARK    4  A    between atoms: C15_20  and  C16_21 
REMARK    5  A    between atoms: C16_21  and  C17_22 
REMARK    6  A    between atoms: C17_22  and  N6_23 
ROOT
HETATM    1  C1  UNL     1      21.280   6.271  46.752  1.00  0.00     0.018 C 
HETATM    2  C2  UNL     1      21.462   5.226  47.327  1.00  0.00    -0.078 C 
HETATM    3  C3  UNL     1      21.681   3.987  48.029  1.00  0.00     0.019 A 
HETATM    4  C4  UNL     1      22.074   2.925  47.273  1.00  0.00     0.021 A 
HETATM    5  C5  UNL     1      22.291   1.740  47.897  1.00  0.00     0.004 A 
HETATM    6  C6  UNL     1      22.112   1.636  49.249  1.00  0.00     0.029 A 
HETATM    7  C7  UNL     1      21.714   2.663  50.092  1.00  0.00     0.035 A 
HETATM    8  C25 UNL     1      21.513   3.836  49.386  1.00  0.00     0.050 A 
ENDROOT
BRANCH   7   9
HETATM    9  N1  UNL     1      21.519   2.566  51.484  1.00  0.00    -0.339 N 
HETATM   10  H5  UNL     1      21.385   3.512  51.844  1.00  0.00     0.167 HD
BRANCH   9  11
HETATM   11  C8  UNL     1      21.497   1.417  52.309  1.00  0.00     0.164 A 
HETATM   12  N2  UNL     1      20.364   0.782  52.620  1.00  0.00    -0.111 NA
HETATM   13  N3  UNL     1      20.404  -0.279  53.389  1.00  0.00    -0.041 NA
HETATM   14  N4  UNL     1      21.525  -0.763  53.882  1.00  0.00    -0.130 NA
HETATM   15  C9  UNL     1      22.726  -0.171  53.612  1.00  0.00     0.097 A 
HETATM   16  C10 UNL     1      23.854  -0.725  54.158  1.00  0.00     0.073 A 
HETATM   17  C14 UNL     1      22.701   0.960  52.794  1.00  0.00     0.045 A 
HETATM   18  C11 UNL     1      25.080  -0.150  53.902  1.00  0.00     0.098 A 
HETATM   19  C12 UNL     1      25.093   0.967  53.099  1.00  0.00     0.071 A 
HETATM   20  O2  UNL     1      26.225  -0.689  54.438  1.00  0.00    -0.340 OA
HETATM   21  C13 UNL     1      23.941   1.492  52.571  1.00  0.00     0.050 A 
HETATM   22  N5  UNL     1      26.303   1.616  52.762  1.00  0.00    -0.314 N 
HETATM   23  C23 UNL     1      27.476   0.993  53.332  1.00  0.00     0.248 C 
HETATM   24  O1  UNL     1      28.623   1.274  52.851  1.00  0.00    -0.271 OA
HETATM   25  C24 UNL     1      27.467   0.026  54.459  1.00  0.00     0.279 C 
BRANCH  22  26
HETATM   26  C15 UNL     1      26.539   2.763  51.952  1.00  0.00     0.134 C 
BRANCH  26  27
HETATM   27  C16 UNL     1      26.446   2.559  50.473  1.00  0.00     0.040 C 
BRANCH  27  28
HETATM   28  C17 UNL     1      25.417   3.375  49.796  1.00  0.00     0.118 C 
BRANCH  28  29
HETATM   29  N6  UNL     1      25.480   4.786  50.107  1.00  0.00    -0.412 N 
HETATM   30  C18 UNL     1      25.948   5.629  49.070  1.00  0.00     0.117 C 
HETATM   31  C19 UNL     1      24.952   6.548  48.450  1.00  0.00     0.019 C 
HETATM   32  C20 UNL     1      23.942   7.132  49.385  1.00  0.00     0.003 C 
HETATM   33  C21 UNL     1      24.268   6.749  50.816  1.00  0.00     0.019 C 
HETATM   34  C22 UNL     1      24.363   5.258  50.852  1.00  0.00     0.117 C 
ENDBRANCH  28  29
ENDBRANCH  27  28
ENDBRANCH  26  27
ENDBRANCH  22  26
ENDBRANCH   9  11
ENDBRANCH   7   9
TORSDOF 6
ENDMDL
MODEL 8
REMARK VINA RESULT:      -9.0      5.255      8.922
REMARK  6 active torsions:
REMARK  status: ('A' for Active; 'I' for Inactive)
REMARK    1  A    between atoms: C7_7  and  N1_8 
REMARK    2  A    between atoms: N1_8  and  C8_9 
REMARK    3  A    between atoms: N5_19  and  C15_20 
REMARK    4  A    between atoms: C15_20  and  C16_21 
REMARK    5  A    between atoms: C16_21  and  C17_22 
REMARK    6  A    between atoms: C17_22  and  N6_23 
ROOT
HETATM    1  C1  UNL     1      34.951   3.051  46.200  1.00  0.00     0.018 C 
HETATM    2  C2  UNL     1      34.229   3.811  46.799  1.00  0.00    -0.078 C 
HETATM    3  C3  UNL     1      33.355   4.714  47.504  1.00  0.00     0.019 A 
HETATM    4  C4  UNL     1      33.957   5.699  48.225  1.00  0.00     0.021 A 
HETATM    5  C5  UNL     1      33.168   6.570  48.903  1.00  0.00     0.004 A 
HETATM    6  C6  UNL     1      31.807   6.443  48.851  1.00  0.00     0.029 A 
HETATM    7  C7  UNL     1      31.113   5.472  48.144  1.00  0.00     0.035 A 
HETATM    8  C25 UNL     1      31.982   4.624  47.481  1.00  0.00     0.050 A 
ENDROOT
BRANCH   7   9
HETATM    9  N1  UNL     1      29.713   5.327  48.090  1.00  0.00    -0.339 N 
HETATM   10  H5  UNL     1      29.497   4.344  48.262  1.00  0.00     0.167 HD
BRANCH   9  11
HETATM   11  C8  UNL     1      28.718   6.303  47.850  1.00  0.00     0.164 A 
HETATM   12  N2  UNL     1      28.976   7.442  47.202  1.00  0.00    -0.111 NA
HETATM   13  N3  UNL     1      28.014   8.311  47.007  1.00  0.00    -0.041 NA
HETATM   14  N4  UNL     1      26.780   8.116  47.424  1.00  0.00    -0.130 NA
HETATM   15  C9  UNL     1      26.435   6.978  48.094  1.00  0.00     0.097 A 
HETATM   16  C10 UNL     1      25.133   6.839  48.500  1.00  0.00     0.073 A 
HETATM   17  C14 UNL     1      27.448   6.042  48.310  1.00  0.00     0.045 A 
HETATM   18  C11 UNL     1      24.755   5.700  49.179  1.00  0.00     0.098 A 
HETATM   19  C12 UNL     1      25.729   4.756  49.408  1.00  0.00     0.071 A 
HETATM   20  O2  UNL     1      23.456   5.540  49.595  1.00  0.00    -0.340 OA
HETATM   21  C13 UNL     1      27.022   4.932  48.985  1.00  0.00     0.050 A 
HETATM   22  N5  UNL     1      25.436   3.545  50.077  1.00  0.00    -0.314 N 
HETATM   23  C23 UNL     1      24.051   3.418  50.470  1.00  0.00     0.248 C 
HETATM   24  O1  UNL     1      23.596   2.267  50.778  1.00  0.00    -0.271 OA
HETATM   25  C24 UNL     1      23.080   4.540  50.550  1.00  0.00     0.279 C 
BRANCH  22  26
HETATM   26  C15 UNL     1      26.279   2.447  50.407  1.00  0.00     0.134 C 
BRANCH  26  27
HETATM   27  C16 UNL     1      27.019   2.547  51.703  1.00  0.00     0.040 C 
BRANCH  27  28
HETATM   28  C17 UNL     1      26.278   2.054  52.882  1.00  0.00     0.118 C 
BRANCH  28  29
HETATM   29  N6  UNL     1      27.047   1.182  53.742  1.00  0.00    -0.412 N 
HETATM   30  C18 UNL     1      26.704  -0.192  53.699  1.00  0.00     0.117 C 
HETATM   31  C19 UNL     1      27.700  -1.114  53.083  1.00  0.00     0.019 C 
HETATM   32  C20 UNL     1      29.135  -0.789  53.351  1.00  0.00     0.003 C 
HETATM   33  C21 UNL     1      29.237   0.359  54.337  1.00  0.00     0.019 C 
HETATM   34  C22 UNL     1      28.437   1.487  53.771  1.00  0.00     0.117 C 
ENDBRANCH  28  29
ENDBRANCH  27  28
ENDBRANCH  26  27
ENDBRANCH  22  26
ENDBRANCH   9  11
ENDBRANCH   7   9
TORSDOF 6
ENDMDL
MODEL 9
REMARK VINA RESULT:      -8.9      3.093      6.643
REMARK  6 active torsions:
REMARK  status: ('A' for Active; 'I' for Inactive)
REMARK    1  A    between atoms: C7_7  and  N1_8 
REMARK    2  A    between atoms: N1_8  and  C8_9 
REMARK    3  A    between atoms: N5_19  and  C15_20 
REMARK    4  A    between atoms: C15_20  and  C16_21 
REMARK    5  A    between atoms: C16_21  and  C17_22 
REMARK    6  A    between atoms: C17_22  and  N6_23 
ROOT
HETATM    1  C1  UNL     1      16.597   3.717  51.832  1.00  0.00     0.018 C 
HETATM    2  C2  UNL     1      17.734   3.423  51.553  1.00  0.00    -0.078 C 
HETATM    3  C3  UNL     1      19.090   3.060  51.232  1.00  0.00     0.019 A 
HETATM    4  C4  UNL     1      19.832   4.003  50.589  1.00  0.00     0.021 A 
HETATM    5  C5  UNL     1      21.116   3.700  50.268  1.00  0.00     0.004 A 
HETATM    6  C6  UNL     1      21.629   2.474  50.590  1.00  0.00     0.029 A 
HETATM    7  C7  UNL     1      20.946   1.458  51.242  1.00  0.00     0.035 A 
HETATM    8  C25 UNL     1      19.649   1.840  51.535  1.00  0.00     0.050 A 
ENDROOT
BRANCH   7   9
HETATM    9  N1  UNL     1      21.462   0.190  51.571  1.00  0.00    -0.339 N 
HETATM   10  H5  UNL     1      21.711  -0.279  50.699  1.00  0.00     0.167 HD
BRANCH   9  11
HETATM   11  C8  UNL     1      21.638  -0.406  52.842  1.00  0.00     0.164 A 
HETATM   12  N2  UNL     1      20.627  -0.951  53.523  1.00  0.00    -0.111 NA
HETATM   13  N3  UNL     1      20.849  -1.490  54.697  1.00  0.00    -0.041 NA
HETATM   14  N4  UNL     1      22.042  -1.523  55.254  1.00  0.00    -0.130 NA
HETATM   15  C9  UNL     1      23.128  -0.987  54.623  1.00  0.00     0.097 A 
HETATM   16  C10 UNL     1      24.340  -1.054  55.259  1.00  0.00     0.073 A 
HETATM   17  C14 UNL     1      22.909  -0.409  53.371  1.00  0.00     0.045 A 
HETATM   18  C11 UNL     1      25.455  -0.522  54.647  1.00  0.00     0.098 A 
HETATM   19  C12 UNL     1      25.275   0.055  53.411  1.00  0.00     0.071 A 
HETATM   20  O2  UNL     1      26.681  -0.579  55.265  1.00  0.00    -0.340 OA
HETATM   21  C13 UNL     1      24.044   0.104  52.807  1.00  0.00     0.050 A 
HETATM   22  N5  UNL     1      26.359   0.610  52.694  1.00  0.00    -0.314 N 
HETATM   23  C23 UNL     1      27.627   0.501  53.379  1.00  0.00     0.248 C 
HETATM   24  O1  UNL     1      28.706   0.660  52.718  1.00  0.00    -0.271 OA
HETATM   25  C24 UNL     1      27.793   0.211  54.826  1.00  0.00     0.279 C 
BRANCH  22  26
HETATM   26  C15 UNL     1      26.395   1.240  51.417  1.00  0.00     0.134 C 
BRANCH  26  27
HETATM   27  C16 UNL     1      26.383   2.736  51.417  1.00  0.00     0.040 C 
BRANCH  27  28
HETATM   28  C17 UNL     1      25.043   3.348  51.511  1.00  0.00     0.118 C 
BRANCH  28  29
HETATM   29  N6  UNL     1      25.001   4.742  51.128  1.00  0.00    -0.412 N 
HETATM   30  C18 UNL     1      25.586   5.059  49.877  1.00  0.00     0.117 C 
HETATM   31  C19 UNL     1      24.659   5.478  48.788  1.00  0.00     0.019 C 
HETATM   32  C20 UNL     1      23.496   6.314  49.215  1.00  0.00     0.003 C 
HETATM   33  C21 UNL     1      23.616   6.669  50.685  1.00  0.00     0.019 C 
HETATM   34  C22 UNL     1      23.765   5.381  51.428  1.00  0.00     0.117 C 
ENDBRANCH  28  29
ENDBRANCH  27  28
ENDBRANCH  26  27
ENDBRANCH  22  26
ENDBRANCH   9  11
ENDBRANCH   7   9
TORSDOF 6
ENDMDL
