MODEL 1
REMARK VINA RESULT:      -8.1      0.000      0.000
REMARK  9 active torsions:
REMARK  status: ('A' for Active; 'I' for Inactive)
REMARK    1  A    between atoms: C1_2  and  C2_3 
REMARK    2  A    between atoms: C2_3  and  C3_4 
REMARK    3  A    between atoms: C3_4  and  C4_5 
REMARK    4  A    between atoms: C4_5  and  N1_6 
REMARK    5  A    between atoms: C12_15  and  O2_16 
REMARK    6  A    between atoms: O2_16  and  C13_17 
REMARK    7  A    between atoms: C13_17  and  C14_18 
REMARK    8  A    between atoms: C14_18  and  C15_19 
REMARK    9  A    between atoms: C18_22  and  O3_23 
ROOT
HETATM    1  N1  UNL     1      23.714   0.038  53.019  1.00  0.00    -0.376 N 
HETATM    2  C5  UNL     1      24.650  -0.368  53.827  1.00  0.00     0.169 C 
HETATM    3  C6  UNL     1      25.639  -0.820  54.668  1.00  0.00     0.103 C 
HETATM    4  N2  UNL     1      26.820  -0.361  54.868  1.00  0.00    -0.304 NA
HETATM    5  C7  UNL     1      27.435   0.735  54.259  1.00  0.00     0.148 C 
HETATM    6  C8  UNL     1      26.762   1.986  53.850  1.00  0.00     0.026 C 
HETATM    7  C9  UNL     1      25.811   2.194  52.835  1.00  0.00     0.042 C 
HETATM    8  C10 UNL     1      24.458   2.098  52.542  1.00  0.00    -0.029 A 
HETATM    9  C11 UNL     1      23.832   3.345  52.259  1.00  0.00     0.046 A 
HETATM   10  C12 UNL     1      22.576   3.432  51.545  1.00  0.00     0.069 A 
HETATM   11  C21 UNL     1      21.889   2.300  51.153  1.00  0.00     0.039 A 
HETATM   12  C22 UNL     1      22.417   1.012  51.420  1.00  0.00     0.033 A 
HETATM   13  C23 UNL     1      23.566   1.172  52.052  1.00  0.00     0.037 A 
ENDROOT
BRANCH  10  14
HETATM   14  O2  UNL     1      22.764   4.860  51.650  1.00  0.00    -0.351 OA
BRANCH  14  15
HETATM   15  C13 UNL     1      23.253   5.484  50.622  1.00  0.00     0.180 C 
BRANCH  15  16
HETATM   16  C14 UNL     1      23.167   5.356  49.178  1.00  0.00     0.065 C 
BRANCH  16  17
HETATM   17  C15 UNL     1      24.740   5.177  48.920  1.00  0.00    -0.056 A 
HETATM   18  C16 UNL     1      25.257   6.373  48.540  1.00  0.00     0.010 A 
HETATM   19  C17 UNL     1      26.636   6.391  48.555  1.00  0.00     0.037 A 
HETATM   20  C18 UNL     1      27.317   5.280  48.931  1.00  0.00     0.065 A 
HETATM   21  C19 UNL     1      26.777   4.036  49.324  1.00  0.00     0.037 A 
HETATM   22  C20 UNL     1      25.346   4.020  49.307  1.00  0.00     0.010 A 
BRANCH  20  23
HETATM   23  O3  UNL     1      28.722   5.125  49.018  1.00  0.00    -0.361 OA
HETATM   24  H24 UNL     1      29.290   5.986  48.837  1.00  0.00     0.217 HD
ENDBRANCH  20  23
ENDBRANCH  16  17
ENDBRANCH  15  16
ENDBRANCH  14  15
ENDBRANCH  10  14
BRANCH   1  25
HETATM   25  C4  UNL     1      22.617  -0.733  53.428  1.00  0.00     0.123 C 
BRANCH  25  26
HETATM   26  C3  UNL     1      21.978  -0.637  54.751  1.00  0.00     0.026 C 
BRANCH  26  27
HETATM   27  C2  UNL     1      20.726   0.200  54.508  1.00  0.00     0.071 C 
BRANCH  27  28
HETATM   28  C1  UNL     1      19.830  -0.374  53.502  1.00  0.00     0.231 C 
HETATM   29  O1  UNL     1      19.040  -0.099  52.653  1.00  0.00    -0.307 OA
ENDBRANCH  27  28
ENDBRANCH  26  27
ENDBRANCH  25  26
ENDBRANCH   1  25
TORSDOF 9
ENDMDL
MODEL 2
REMARK VINA RESULT:      -8.1      2.825      5.736
REMARK  9 active torsions:
REMARK  status: ('A' for Active; 'I' for Inactive)
REMARK    1  A    between atoms: C1_2  and  C2_3 
REMARK    2  A    between atoms: C2_3  and  C3_4 
REMARK    3  A    between atoms: C3_4  and  C4_5 
REMARK    4  A    between atoms: C4_5  and  N1_6 
REMARK    5  A    between atoms: C12_15  and  O2_16 
REMARK    6  A    between atoms: O2_16  and  C13_17 
REMARK    7  A    between atoms: C13_17  and  C14_18 
REMARK    8  A    between atoms: C14_18  and  C15_19 
REMARK    9  A    between atoms: C18_22  and  O3_23 
ROOT
HETATM    1  N1  UNL     1      21.142   1.297  51.184  1.00  0.00    -0.376 N 
HETATM    2  C5  UNL     1      20.465   0.668  52.099  1.00  0.00     0.169 C 
HETATM    3  C6  UNL     1      19.736  -0.009  53.048  1.00  0.00     0.103 C 
HETATM    4  N2  UNL     1      20.127  -0.829  53.954  1.00  0.00    -0.304 NA
HETATM    5  C7  UNL     1      21.425  -1.276  54.211  1.00  0.00     0.148 C 
HETATM    6  C8  UNL     1      22.659  -0.473  54.072  1.00  0.00     0.026 C 
HETATM    7  C9  UNL     1      23.265   0.032  52.907  1.00  0.00     0.042 C 
HETATM    8  C10 UNL     1      23.221   1.075  51.993  1.00  0.00    -0.029 A 
HETATM    9  C11 UNL     1      24.391   1.884  51.973  1.00  0.00     0.046 A 
HETATM   10  C12 UNL     1      24.721   2.734  50.849  1.00  0.00     0.069 A 
HETATM   11  C21 UNL     1      23.879   2.850  49.760  1.00  0.00     0.039 A 
HETATM   12  C22 UNL     1      22.673   2.108  49.705  1.00  0.00     0.033 A 
HETATM   13  C23 UNL     1      22.590   1.392  50.812  1.00  0.00     0.037 A 
ENDROOT
BRANCH  10  14
HETATM   14  O2  UNL     1      25.921   3.034  51.594  1.00  0.00    -0.351 OA
BRANCH  14  15
HETATM   15  C13 UNL     1      26.557   2.045  52.144  1.00  0.00     0.180 C 
BRANCH  15  16
HETATM   16  C14 UNL     1      27.520   1.884  53.219  1.00  0.00     0.065 C 
BRANCH  16  17
HETATM   17  C15 UNL     1      27.843   0.338  52.943  1.00  0.00    -0.056 A 
HETATM   18  C16 UNL     1      29.072   0.054  53.443  1.00  0.00     0.010 A 
HETATM   19  C17 UNL     1      29.330  -1.300  53.499  1.00  0.00     0.037 A 
HETATM   20  C18 UNL     1      28.387  -2.180  53.079  1.00  0.00     0.065 A 
HETATM   21  C19 UNL     1      27.109  -1.882  52.559  1.00  0.00     0.037 A 
HETATM   22  C20 UNL     1      26.844  -0.477  52.501  1.00  0.00     0.010 A 
BRANCH  20  23
HETATM   23  O3  UNL     1      28.475  -3.593  53.078  1.00  0.00    -0.361 OA
HETATM   24  H24 UNL     1      27.628  -4.105  52.735  1.00  0.00     0.217 HD
ENDBRANCH  20  23
ENDBRANCH  16  17
ENDBRANCH  15  16
ENDBRANCH  14  15
ENDBRANCH  10  14
BRANCH   1  25
HETATM   25  C4  UNL     1      20.187   2.185  50.668  1.00  0.00     0.123 C 
BRANCH  25  26
HETATM   26  C3  UNL     1      19.660   3.354  51.393  1.00  0.00     0.026 C 
BRANCH  26  27
HETATM   27  C2  UNL     1      20.452   4.533  50.836  1.00  0.00     0.071 C 
BRANCH  27  28
HETATM   28  C1  UNL     1      21.465   5.043  51.761  1.00  0.00     0.231 C 
HETATM   29  O1  UNL     1      22.421   4.733  52.403  1.00  0.00    -0.307 OA
ENDBRANCH  27  28
ENDBRANCH  26  27
ENDBRANCH  25  26
ENDBRANCH   1  25
TORSDOF 9
ENDMDL
MODEL 3
REMARK VINA RESULT:      -7.8      3.033      6.820
REMARK  9 active torsions:
REMARK  status: ('A' for Active; 'I' for Inactive)
REMARK    1  A    between atoms: C1_2  and  C2_3 
REMARK    2  A    between atoms: C2_3  and  C3_4 
REMARK    3  A    between atoms: C3_4  and  C4_5 
REMARK    4  A    between atoms: C4_5  and  N1_6 
REMARK    5  A    between atoms: C12_15  and  O2_16 
REMARK    6  A    between atoms: O2_16  and  C13_17 
REMARK    7  A    between atoms: C13_17  and  C14_18 
REMARK    8  A    between atoms: C14_18  and  C15_19 
REMARK    9  A    between atoms: C18_22  and  O3_23 
ROOT
HETATM    1  N1  UNL     1      22.638   4.068  50.479  1.00  0.00    -0.376 N 
HETATM    2  C5  UNL     1      21.592   3.865  51.226  1.00  0.00     0.169 C 
HETATM    3  C6  UNL     1      20.472   3.653  51.994  1.00  0.00     0.103 C 
HETATM    4  N2  UNL     1      20.148   2.640  52.711  1.00  0.00    -0.304 NA
HETATM    5  C7  UNL     1      20.854   1.449  52.892  1.00  0.00     0.148 C 
HETATM    6  C8  UNL     1      22.326   1.317  52.951  1.00  0.00     0.026 C 
HETATM    7  C9  UNL     1      23.278   1.507  51.933  1.00  0.00     0.042 C 
HETATM    8  C10 UNL     1      24.009   2.476  51.262  1.00  0.00    -0.029 A 
HETATM    9  C11 UNL     1      25.417   2.370  51.437  1.00  0.00     0.046 A 
HETATM   10  C12 UNL     1      26.357   2.991  50.527  1.00  0.00     0.069 A 
HETATM   11  C21 UNL     1      25.929   3.773  49.472  1.00  0.00     0.039 A 
HETATM   12  C22 UNL     1      24.545   3.964  49.236  1.00  0.00     0.033 A 
HETATM   13  C23 UNL     1      23.883   3.296  50.164  1.00  0.00     0.037 A 
ENDROOT
BRANCH  10  14
HETATM   14  O2  UNL     1      27.367   2.357  51.342  1.00  0.00    -0.351 OA
BRANCH  14  15
HETATM   15  C13 UNL     1      27.165   2.302  52.623  1.00  0.00     0.180 C 
BRANCH  15  16
HETATM   16  C14 UNL     1      27.923   1.877  53.787  1.00  0.00     0.065 C 
BRANCH  16  17
HETATM   17  C15 UNL     1      28.113   0.351  53.331  1.00  0.00    -0.056 A 
HETATM   18  C16 UNL     1      29.399  -0.016  53.563  1.00  0.00     0.010 A 
HETATM   19  C17 UNL     1      29.597  -1.377  53.459  1.00  0.00     0.037 A 
HETATM   20  C18 UNL     1      28.550  -2.186  53.158  1.00  0.00     0.065 A 
HETATM   21  C19 UNL     1      27.213  -1.801  52.916  1.00  0.00     0.037 A 
HETATM   22  C20 UNL     1      27.011  -0.389  53.023  1.00  0.00     0.010 A 
BRANCH  20  23
HETATM   23  O3  UNL     1      28.567  -3.595  53.027  1.00  0.00    -0.361 OA
HETATM   24  H24 UNL     1      28.826  -3.964  52.082  1.00  0.00     0.217 HD
ENDBRANCH  20  23
ENDBRANCH  16  17
ENDBRANCH  15  16
ENDBRANCH  14  15
ENDBRANCH  10  14
BRANCH   1  25
HETATM   25  C4  UNL     1      22.505   5.423  50.146  1.00  0.00     0.123 C 
BRANCH  25  26
HETATM   26  C3  UNL     1      22.524   6.525  51.123  1.00  0.00     0.026 C 
BRANCH  26  27
HETATM   27  C2  UNL     1      23.973   7.001  51.131  1.00  0.00     0.071 C 
BRANCH  27  28
HETATM   28  C1  UNL     1      24.387   7.624  49.873  1.00  0.00     0.231 C 
HETATM   29  O1  UNL     1      24.319   8.625  49.230  1.00  0.00    -0.307 OA
ENDBRANCH  27  28
ENDBRANCH  26  27
ENDBRANCH  25  26
ENDBRANCH   1  25
TORSDOF 9
ENDMDL
MODEL 4
REMARK VINA RESULT:      -7.6      3.055      5.581
REMARK  9 active torsions:
REMARK  status: ('A' for Active; 'I' for Inactive)
REMARK    1  A    between atoms: C1_2  and  C2_3 
REMARK    2  A    between atoms: C2_3  and  C3_4 
REMARK    3  A    between atoms: C3_4  and  C4_5 
REMARK    4  A    between atoms: C4_5  and  N1_6 
REMARK    5  A    between atoms: C12_15  and  O2_16 
REMARK    6  A    between atoms: O2_16  and  C13_17 
REMARK    7  A    between atoms: C13_17  and  C14_18 
REMARK    8  A    between atoms: C14_18  and  C15_19 
REMARK    9  A    between atoms: C18_22  and  O3_23 
ROOT
HETATM    1  N1  UNL     1      20.912   1.501  51.922  1.00  0.00    -0.376 N 
HETATM    2  C5  UNL     1      21.039   2.509  51.109  1.00  0.00     0.169 C 
HETATM    3  C6  UNL     1      21.149   3.582  50.258  1.00  0.00     0.103 C 
HETATM    4  N2  UNL     1      22.026   4.518  50.225  1.00  0.00    -0.304 NA
HETATM    5  C7  UNL     1      23.116   4.709  51.076  1.00  0.00     0.148 C 
HETATM    6  C8  UNL     1      23.937   3.639  51.683  1.00  0.00     0.026 C 
HETATM    7  C9  UNL     1      23.581   2.690  52.658  1.00  0.00     0.042 C 
HETATM    8  C10 UNL     1      22.956   1.466  52.843  1.00  0.00    -0.029 A 
HETATM    9  C11 UNL     1      23.815   0.439  53.328  1.00  0.00     0.046 A 
HETATM   10  C12 UNL     1      23.304  -0.755  53.967  1.00  0.00     0.069 A 
HETATM   11  C21 UNL     1      21.947  -0.987  54.083  1.00  0.00     0.039 A 
HETATM   12  C22 UNL     1      21.013  -0.037  53.600  1.00  0.00     0.033 A 
HETATM   13  C23 UNL     1      21.695   0.971  53.084  1.00  0.00     0.037 A 
ENDROOT
BRANCH  10  14
HETATM   14  O2  UNL     1      24.695  -1.092  54.158  1.00  0.00    -0.351 OA
BRANCH  14  15
HETATM   15  C13 UNL     1      25.528  -0.786  53.211  1.00  0.00     0.180 C 
BRANCH  15  16
HETATM   16  C14 UNL     1      26.662  -1.424  52.566  1.00  0.00     0.065 C 
BRANCH  16  17
HETATM   17  C15 UNL     1      27.747  -0.314  52.970  1.00  0.00    -0.056 A 
HETATM   18  C16 UNL     1      27.217   0.915  52.744  1.00  0.00     0.010 A 
HETATM   19  C17 UNL     1      27.959   1.932  53.306  1.00  0.00     0.037 A 
HETATM   20  C18 UNL     1      29.086   1.635  54.002  1.00  0.00     0.065 A 
HETATM   21  C19 UNL     1      29.635   0.356  54.235  1.00  0.00     0.037 A 
HETATM   22  C20 UNL     1      28.864  -0.698  53.649  1.00  0.00     0.010 A 
BRANCH  20  23
HETATM   23  O3  UNL     1      29.955   2.543  54.654  1.00  0.00    -0.361 OA
HETATM   24  H24 UNL     1      29.966   2.497  55.699  1.00  0.00     0.217 HD
ENDBRANCH  20  23
ENDBRANCH  16  17
ENDBRANCH  15  16
ENDBRANCH  14  15
ENDBRANCH  10  14
BRANCH   1  25
HETATM   25  C4  UNL     1      19.906   0.746  51.302  1.00  0.00     0.123 C 
BRANCH  25  26
HETATM   26  C3  UNL     1      18.483   1.125  51.268  1.00  0.00     0.026 C 
BRANCH  26  27
HETATM   27  C2  UNL     1      17.741  -0.201  51.135  1.00  0.00     0.071 C 
BRANCH  27  28
HETATM   28  C1  UNL     1      17.452  -0.837  52.422  1.00  0.00     0.231 C 
HETATM   29  O1  UNL     1      17.885  -1.587  53.240  1.00  0.00    -0.307 OA
ENDBRANCH  27  28
ENDBRANCH  26  27
ENDBRANCH  25  26
ENDBRANCH   1  25
TORSDOF 9
ENDMDL
MODEL 5
REMARK VINA RESULT:      -7.5      2.713      7.217
REMARK  9 active torsions:
REMARK  status: ('A' for Active; 'I' for Inactive)
REMARK    1  A    between atoms: C1_2  and  C2_3 
REMARK    2  A    between atoms: C2_3  and  C3_4 
REMARK    3  A    between atoms: C3_4  and  C4_5 
REMARK    4  A    between atoms: C4_5  and  N1_6 
REMARK    5  A    between atoms: C12_15  and  O2_16 
REMARK    6  A    between atoms: O2_16  and  C13_17 
REMARK    7  A    between atoms: C13_17  and  C14_18 
REMARK    8  A    between atoms: C14_18  and  C15_19 
REMARK    9  A    between atoms: C18_22  and  O3_23 
ROOT
HETATM    1  N1  UNL     1      26.334   1.434  51.735  1.00  0.00    -0.376 N 
HETATM    2  C5  UNL     1      26.458   2.480  50.972  1.00  0.00     0.169 C 
HETATM    3  C6  UNL     1      26.606   3.572  50.150  1.00  0.00     0.103 C 
HETATM    4  N2  UNL     1      25.737   4.180  49.429  1.00  0.00    -0.304 NA
HETATM    5  C7  UNL     1      24.383   3.878  49.268  1.00  0.00     0.148 C 
HETATM    6  C8  UNL     1      23.486   3.346  50.317  1.00  0.00     0.026 C 
HETATM    7  C9  UNL     1      23.501   2.088  50.945  1.00  0.00     0.042 C 
HETATM    8  C10 UNL     1      24.104   1.358  51.958  1.00  0.00    -0.029 A 
HETATM    9  C11 UNL     1      23.218   0.960  52.999  1.00  0.00     0.046 A 
HETATM   10  C12 UNL     1      23.531  -0.124  53.906  1.00  0.00     0.069 A 
HETATM   11  C21 UNL     1      24.740  -0.790  53.844  1.00  0.00     0.039 A 
HETATM   12  C22 UNL     1      25.700  -0.443  52.861  1.00  0.00     0.033 A 
HETATM   13  C23 UNL     1      25.199   0.544  52.139  1.00  0.00     0.037 A 
ENDROOT
BRANCH  10  14
HETATM   14  O2  UNL     1      22.218   0.125  54.452  1.00  0.00    -0.351 OA
BRANCH  14  15
HETATM   15  C13 UNL     1      21.192  -0.099  53.689  1.00  0.00     0.180 C 
BRANCH  15  16
HETATM   16  C14 UNL     1      20.086  -1.041  53.668  1.00  0.00     0.065 C 
BRANCH  16  17
HETATM   17  C15 UNL     1      19.254  -0.316  52.504  1.00  0.00    -0.056 A 
HETATM   18  C16 UNL     1      20.120   0.357  51.704  1.00  0.00     0.010 A 
HETATM   19  C17 UNL     1      19.542   0.788  50.529  1.00  0.00     0.037 A 
HETATM   20  C18 UNL     1      18.236   0.513  50.284  1.00  0.00     0.065 A 
HETATM   21  C19 UNL     1      17.337  -0.186  51.118  1.00  0.00     0.037 A 
HETATM   22  C20 UNL     1      17.939  -0.631  52.338  1.00  0.00     0.010 A 
BRANCH  20  23
HETATM   23  O3  UNL     1      17.489   0.862  49.133  1.00  0.00    -0.361 OA
HETATM   24  H24 UNL     1      18.043   1.207  48.314  1.00  0.00     0.217 HD
ENDBRANCH  20  23
ENDBRANCH  16  17
ENDBRANCH  15  16
ENDBRANCH  14  15
ENDBRANCH  10  14
BRANCH   1  25
HETATM   25  C4  UNL     1      27.567   1.406  52.401  1.00  0.00     0.123 C 
BRANCH  25  26
HETATM   26  C3  UNL     1      27.936   2.306  53.507  1.00  0.00     0.026 C 
BRANCH  26  27
HETATM   27  C2  UNL     1      29.044   1.562  54.246  1.00  0.00     0.071 C 
BRANCH  27  28
HETATM   28  C1  UNL     1      29.379   0.270  53.644  1.00  0.00     0.231 C 
HETATM   29  O1  UNL     1      30.191  -0.602  53.635  1.00  0.00    -0.307 OA
ENDBRANCH  27  28
ENDBRANCH  26  27
ENDBRANCH  25  26
ENDBRANCH   1  25
TORSDOF 9
ENDMDL
MODEL 6
REMARK VINA RESULT:      -7.5      2.260      4.534
REMARK  9 active torsions:
REMARK  status: ('A' for Active; 'I' for Inactive)
REMARK    1  A    between atoms: C1_2  and  C2_3 
REMARK    2  A    between atoms: C2_3  and  C3_4 
REMARK    3  A    between atoms: C3_4  and  C4_5 
REMARK    4  A    between atoms: C4_5  and  N1_6 
REMARK    5  A    between atoms: C12_15  and  O2_16 
REMARK    6  A    between atoms: O2_16  and  C13_17 
REMARK    7  A    between atoms: C13_17  and  C14_18 
REMARK    8  A    between atoms: C14_18  and  C15_19 
REMARK    9  A    between atoms: C18_22  and  O3_23 
ROOT
HETATM    1  N1  UNL     1      23.849   0.624  53.321  1.00  0.00    -0.376 N 
HETATM    2  C5  UNL     1      23.142  -0.277  53.938  1.00  0.00     0.169 C 
HETATM    3  C6  UNL     1      22.402  -1.219  54.612  1.00  0.00     0.103 C 
HETATM    4  N2  UNL     1      21.142  -1.458  54.570  1.00  0.00    -0.304 NA
HETATM    5  C7  UNL     1      20.163  -0.800  53.823  1.00  0.00     0.148 C 
HETATM    6  C8  UNL     1      20.342  -0.240  52.466  1.00  0.00     0.026 C 
HETATM    7  C9  UNL     1      21.127   0.851  52.050  1.00  0.00     0.042 C 
HETATM    8  C10 UNL     1      22.417   1.225  51.704  1.00  0.00    -0.029 A 
HETATM    9  C11 UNL     1      22.558   1.656  50.355  1.00  0.00     0.046 A 
HETATM   10  C12 UNL     1      23.680   2.459  49.916  1.00  0.00     0.069 A 
HETATM   11  C21 UNL     1      24.706   2.797  50.776  1.00  0.00     0.039 A 
HETATM   12  C22 UNL     1      24.670   2.385  52.132  1.00  0.00     0.033 A 
HETATM   13  C23 UNL     1      23.559   1.693  52.312  1.00  0.00     0.037 A 
ENDROOT
BRANCH  10  14
HETATM   14  O2  UNL     1      23.009   2.464  48.637  1.00  0.00    -0.351 OA
BRANCH  14  15
HETATM   15  C13 UNL     1      22.239   3.472  48.361  1.00  0.00     0.180 C 
BRANCH  15  16
HETATM   16  C14 UNL     1      22.362   4.713  47.616  1.00  0.00     0.065 C 
BRANCH  16  17
HETATM   17  C15 UNL     1      22.958   5.588  48.821  1.00  0.00    -0.056 A 
HETATM   18  C16 UNL     1      22.027   5.666  49.805  1.00  0.00     0.010 A 
HETATM   19  C17 UNL     1      22.534   6.163  50.987  1.00  0.00     0.037 A 
HETATM   20  C18 UNL     1      23.844   6.505  51.063  1.00  0.00     0.065 A 
HETATM   21  C19 UNL     1      24.811   6.424  50.038  1.00  0.00     0.037 A 
HETATM   22  C20 UNL     1      24.282   5.909  48.811  1.00  0.00     0.010 A 
BRANCH  20  23
HETATM   23  O3  UNL     1      24.532   7.014  52.191  1.00  0.00    -0.361 OA
HETATM   24  H24 UNL     1      24.542   8.056  52.291  1.00  0.00     0.217 HD
ENDBRANCH  20  23
ENDBRANCH  16  17
ENDBRANCH  15  16
ENDBRANCH  14  15
ENDBRANCH  10  14
BRANCH   1  25
HETATM   25  C4  UNL     1      25.160   0.226  53.619  1.00  0.00     0.123 C 
BRANCH  25  26
HETATM   26  C3  UNL     1      25.839  -0.929  53.008  1.00  0.00     0.026 C 
BRANCH  26  27
HETATM   27  C2  UNL     1      27.267  -0.446  52.770  1.00  0.00     0.071 C 
BRANCH  27  28
HETATM   28  C1  UNL     1      27.935   0.015  53.988  1.00  0.00     0.231 C 
HETATM   29  O1  UNL     1      28.617  -0.338  54.900  1.00  0.00    -0.307 OA
ENDBRANCH  27  28
ENDBRANCH  26  27
ENDBRANCH  25  26
ENDBRANCH   1  25
TORSDOF 9
ENDMDL
MODEL 7
REMARK VINA RESULT:      -7.1      2.400      5.501
REMARK  9 active torsions:
REMARK  status: ('A' for Active; 'I' for Inactive)
REMARK    1  A    between atoms: C1_2  and  C2_3 
REMARK    2  A    between atoms: C2_3  and  C3_4 
REMARK    3  A    between atoms: C3_4  and  C4_5 
REMARK    4  A    between atoms: C4_5  and  N1_6 
REMARK    5  A    between atoms: C12_15  and  O2_16 
REMARK    6  A    between atoms: O2_16  and  C13_17 
REMARK    7  A    between atoms: C13_17  and  C14_18 
REMARK    8  A    between atoms: C14_18  and  C15_19 
REMARK    9  A    between atoms: C18_22  and  O3_23 
ROOT
HETATM    1  N1  UNL     1      25.458   0.677  52.438  1.00  0.00    -0.376 N 
HETATM    2  C5  UNL     1      24.578  -0.096  53.004  1.00  0.00     0.169 C 
HETATM    3  C6  UNL     1      23.664  -0.915  53.623  1.00  0.00     0.103 C 
HETATM    4  N2  UNL     1      22.457  -0.674  53.985  1.00  0.00    -0.304 NA
HETATM    5  C7  UNL     1      21.741   0.519  53.862  1.00  0.00     0.148 C 
HETATM    6  C8  UNL     1      21.846   1.478  52.742  1.00  0.00     0.026 C 
HETATM    7  C9  UNL     1      22.924   2.306  52.378  1.00  0.00     0.042 C 
HETATM    8  C10 UNL     1      24.131   2.324  51.694  1.00  0.00    -0.029 A 
HETATM    9  C11 UNL     1      24.147   3.183  50.560  1.00  0.00     0.046 A 
HETATM   10  C12 UNL     1      25.380   3.661  49.972  1.00  0.00     0.069 A 
HETATM   11  C21 UNL     1      26.611   3.254  50.448  1.00  0.00     0.039 A 
HETATM   12  C22 UNL     1      26.697   2.373  51.555  1.00  0.00     0.033 A 
HETATM   13  C23 UNL     1      25.465   2.090  51.939  1.00  0.00     0.037 A 
ENDROOT
BRANCH  10  14
HETATM   14  O2  UNL     1      24.518   4.406  49.085  1.00  0.00    -0.351 OA
BRANCH  14  15
HETATM   15  C13 UNL     1      23.454   3.814  48.635  1.00  0.00     0.180 C 
BRANCH  15  16
HETATM   16  C14 UNL     1      22.352   4.163  47.756  1.00  0.00     0.065 C 
BRANCH  16  17
HETATM   17  C15 UNL     1      21.299   3.115  48.361  1.00  0.00    -0.056 A 
HETATM   18  C16 UNL     1      21.824   1.867  48.268  1.00  0.00     0.010 A 
HETATM   19  C17 UNL     1      21.122   0.932  48.999  1.00  0.00     0.037 A 
HETATM   20  C18 UNL     1      20.034   1.318  49.712  1.00  0.00     0.065 A 
HETATM   21  C19 UNL     1      19.489   2.617  49.807  1.00  0.00     0.037 A 
HETATM   22  C20 UNL     1      20.220   3.585  49.046  1.00  0.00     0.010 A 
BRANCH  20  23
HETATM   23  O3  UNL     1      19.209   0.503  50.524  1.00  0.00    -0.361 OA
HETATM   24  H24 UNL     1      19.702  -0.071  51.247  1.00  0.00     0.217 HD
ENDBRANCH  20  23
ENDBRANCH  16  17
ENDBRANCH  15  16
ENDBRANCH  14  15
ENDBRANCH  10  14
BRANCH   1  25
HETATM   25  C4  UNL     1      26.478  -0.227  52.111  1.00  0.00     0.123 C 
BRANCH  25  26
HETATM   26  C3  UNL     1      27.200  -1.057  53.091  1.00  0.00     0.026 C 
BRANCH  26  27
HETATM   27  C2  UNL     1      28.499  -0.298  53.347  1.00  0.00     0.071 C 
BRANCH  27  28
HETATM   28  C1  UNL     1      28.403   0.664  54.446  1.00  0.00     0.231 C 
HETATM   29  O1  UNL     1      29.045   1.306  55.217  1.00  0.00    -0.307 OA
ENDBRANCH  27  28
ENDBRANCH  26  27
ENDBRANCH  25  26
ENDBRANCH   1  25
TORSDOF 9
ENDMDL
MODEL 8
REMARK VINA RESULT:      -7.0      2.743      5.204
REMARK  9 active torsions:
REMARK  status: ('A' for Active; 'I' for Inactive)
REMARK    1  A    between atoms: C1_2  and  C2_3 
REMARK    2  A    between atoms: C2_3  and  C3_4 
REMARK    3  A    between atoms: C3_4  and  C4_5 
REMARK    4  A    between atoms: C4_5  and  N1_6 
REMARK    5  A    between atoms: C12_15  and  O2_16 
REMARK    6  A    between atoms: O2_16  and  C13_17 
REMARK    7  A    between atoms: C13_17  and  C14_18 
REMARK    8  A    between atoms: C14_18  and  C15_19 
REMARK    9  A    between atoms: C18_22  and  O3_23 
ROOT
HETATM    1  N1  UNL     1      24.709   1.048  52.571  1.00  0.00    -0.376 N 
HETATM    2  C5  UNL     1      24.714   0.186  53.546  1.00  0.00     0.169 C 
HETATM    3  C6  UNL     1      24.731  -0.706  54.592  1.00  0.00     0.103 C 
HETATM    4  N2  UNL     1      23.756  -1.274  55.203  1.00  0.00    -0.304 NA
HETATM    5  C7  UNL     1      22.387  -1.118  54.977  1.00  0.00     0.148 C 
HETATM    6  C8  UNL     1      21.747  -0.907  53.660  1.00  0.00     0.026 C 
HETATM    7  C9  UNL     1      21.826   0.203  52.801  1.00  0.00     0.042 C 
HETATM    8  C10 UNL     1      22.609   0.802  51.825  1.00  0.00    -0.029 A 
HETATM    9  C11 UNL     1      21.988   0.884  50.547  1.00  0.00     0.046 A 
HETATM   10  C12 UNL     1      22.438   1.811  49.530  1.00  0.00     0.069 A 
HETATM   11  C21 UNL     1      23.538   2.622  49.729  1.00  0.00     0.039 A 
HETATM   12  C22 UNL     1      24.242   2.587  50.958  1.00  0.00     0.033 A 
HETATM   13  C23 UNL     1      23.650   1.698  51.736  1.00  0.00     0.037 A 
ENDROOT
BRANCH  10  14
HETATM   14  O2  UNL     1      21.329   1.303  48.759  1.00  0.00    -0.351 OA
BRANCH  14  15
HETATM   15  C13 UNL     1      20.128   1.585  49.165  1.00  0.00     0.180 C 
BRANCH  15  16
HETATM   16  C14 UNL     1      19.131   2.598  48.866  1.00  0.00     0.065 C 
BRANCH  16  17
HETATM   17  C15 UNL     1      19.812   3.777  49.714  1.00  0.00    -0.056 A 
HETATM   18  C16 UNL     1      19.786   3.438  51.029  1.00  0.00     0.010 A 
HETATM   19  C17 UNL     1      20.580   4.252  51.809  1.00  0.00     0.037 A 
HETATM   20  C18 UNL     1      21.283   5.258  51.229  1.00  0.00     0.065 A 
HETATM   21  C19 UNL     1      21.307   5.608  49.862  1.00  0.00     0.037 A 
HETATM   22  C20 UNL     1      20.481   4.763  49.055  1.00  0.00     0.010 A 
BRANCH  20  23
HETATM   23  O3  UNL     1      22.153   6.173  51.869  1.00  0.00    -0.361 OA
HETATM   24  H24 UNL     1      23.176   6.024  51.707  1.00  0.00     0.217 HD
ENDBRANCH  20  23
ENDBRANCH  16  17
ENDBRANCH  15  16
ENDBRANCH  14  15
ENDBRANCH  10  14
BRANCH   1  25
HETATM   25  C4  UNL     1      26.065   1.104  52.221  1.00  0.00     0.123 C 
BRANCH  25  26
HETATM   26  C3  UNL     1      27.043   2.026  52.824  1.00  0.00     0.026 C 
BRANCH  26  27
HETATM   27  C2  UNL     1      28.282   1.166  53.053  1.00  0.00     0.071 C 
BRANCH  27  28
HETATM   28  C1  UNL     1      28.367   0.617  54.408  1.00  0.00     0.231 C 
HETATM   29  O1  UNL     1      28.163  -0.358  55.062  1.00  0.00    -0.307 OA
ENDBRANCH  27  28
ENDBRANCH  26  27
ENDBRANCH  25  26
ENDBRANCH   1  25
TORSDOF 9
ENDMDL
MODEL 9
REMARK VINA RESULT:      -7.0      3.034      6.849
REMARK  9 active torsions:
REMARK  status: ('A' for Active; 'I' for Inactive)
REMARK    1  A    between atoms: C1_2  and  C2_3 
REMARK    2  A    between atoms: C2_3  and  C3_4 
REMARK    3  A    between atoms: C3_4  and  C4_5 
REMARK    4  A    between atoms: C4_5  and  N1_6 
REMARK    5  A    between atoms: C12_15  and  O2_16 
REMARK    6  A    between atoms: O2_16  and  C13_17 
REMARK    7  A    between atoms: C13_17  and  C14_18 
REMARK    8  A    between atoms: C14_18  and  C15_19 
REMARK    9  A    between atoms: C18_22  and  O3_23 
ROOT
HETATM    1  N1  UNL     1      24.379   6.089  50.571  1.00  0.00    -0.376 N 
HETATM    2  C5  UNL     1      25.285   6.436  49.705  1.00  0.00     0.169 C 
HETATM    3  C6  UNL     1      26.249   6.823  48.804  1.00  0.00     0.103 C 
HETATM    4  N2  UNL     1      27.286   6.191  48.389  1.00  0.00    -0.304 NA
HETATM    5  C7  UNL     1      27.730   4.921  48.763  1.00  0.00     0.148 C 
HETATM    6  C8  UNL     1      26.868   3.766  49.093  1.00  0.00     0.026 C 
HETATM    7  C9  UNL     1      26.008   3.583  50.191  1.00  0.00     0.042 C 
HETATM    8  C10 UNL     1      24.741   3.879  50.672  1.00  0.00    -0.029 A 
HETATM    9  C11 UNL     1      23.912   2.740  50.872  1.00  0.00     0.046 A 
HETATM   10  C12 UNL     1      22.747   2.776  51.732  1.00  0.00     0.069 A 
HETATM   11  C21 UNL     1      22.346   3.941  52.355  1.00  0.00     0.039 A 
HETATM   12  C22 UNL     1      23.091   5.135  52.190  1.00  0.00     0.033 A 
HETATM   13  C23 UNL     1      24.110   4.867  51.394  1.00  0.00     0.037 A 
ENDROOT
BRANCH  10  14
HETATM   14  O2  UNL     1      22.632   1.371  51.417  1.00  0.00    -0.351 OA
BRANCH  14  15
HETATM   15  C13 UNL     1      23.460   0.552  51.991  1.00  0.00     0.180 C 
BRANCH  15  16
HETATM   16  C14 UNL     1      23.738   0.122  53.350  1.00  0.00     0.065 C 
BRANCH  16  17
HETATM   17  C15 UNL     1      25.255   0.641  53.397  1.00  0.00    -0.056 A 
HETATM   18  C16 UNL     1      26.002  -0.123  52.560  1.00  0.00     0.010 A 
HETATM   19  C17 UNL     1      27.253   0.406  52.323  1.00  0.00     0.037 A 
HETATM   20  C18 UNL     1      27.608   1.578  52.907  1.00  0.00     0.065 A 
HETATM   21  C19 UNL     1      26.829   2.370  53.778  1.00  0.00     0.037 A 
HETATM   22  C20 UNL     1      25.531   1.819  54.024  1.00  0.00     0.010 A 
BRANCH  20  23
HETATM   23  O3  UNL     1      28.835   2.268  52.765  1.00  0.00    -0.361 OA
HETATM   24  H24 UNL     1      29.032   2.663  51.816  1.00  0.00     0.217 HD
ENDBRANCH  20  23
ENDBRANCH  16  17
ENDBRANCH  15  16
ENDBRANCH  14  15
ENDBRANCH  10  14
BRANCH   1  25
HETATM   25  C4  UNL     1      23.421   7.102  50.418  1.00  0.00     0.123 C 
BRANCH  25  26
HETATM   26  C3  UNL     1      22.639   7.329  49.190  1.00  0.00     0.026 C 
BRANCH  26  27
HETATM   27  C2  UNL     1      22.492   8.845  49.110  1.00  0.00     0.071 C 
BRANCH  27  28
HETATM   28  C1  UNL     1      23.454   9.476  48.205  1.00  0.00     0.231 C 
HETATM   29  O1  UNL     1      23.564  10.020  47.150  1.00  0.00    -0.307 OA
ENDBRANCH  27  28
ENDBRANCH  26  27
ENDBRANCH  25  26
ENDBRANCH   1  25
TORSDOF 9
ENDMDL
