MODEL 1
REMARK VINA RESULT:     -10.3      0.000      0.000
REMARK  0 active torsions:
REMARK  status: ('A' for Active; 'I' for Inactive)
ROOT
HETATM    1  C1  UNL     1      18.469  -1.155  53.421  1.00  0.00     0.079 C 
HETATM    2  C2  UNL     1      18.463  -0.318  52.250  1.00  0.00     0.081 C 
HETATM    3  C3  UNL     1      19.685   0.070  51.795  1.00  0.00     0.081 C 
HETATM    4  C4  UNL     1      19.628   0.859  50.591  1.00  0.00     0.055 A 
HETATM    5  C5  UNL     1      19.806   1.611  49.523  1.00  0.00     0.007 A 
HETATM    6  C6  UNL     1      20.982   1.430  50.327  1.00  0.00     0.050 A 
HETATM    7  C7  UNL     1      22.130   1.967  50.227  1.00  0.00    -0.018 C 
HETATM    8  C8  UNL     1      23.590   2.354  50.446  1.00  0.00     0.002 C 
HETATM    9  C9  UNL     1      24.246   1.809  51.446  1.00  0.00     0.024 C 
HETATM   10  C10 UNL     1      23.493   0.840  52.267  1.00  0.00     0.152 C 
HETATM   11  C11 UNL     1      23.107  -0.102  53.193  1.00  0.00    -0.017 C 
HETATM   12  C12 UNL     1      23.961  -0.821  54.299  1.00  0.00     0.008 C 
HETATM   13  C13 UNL     1      25.267  -0.578  54.491  1.00  0.00     0.000 C 
HETATM   14  C14 UNL     1      26.653  -0.084  54.436  1.00  0.00    -0.000 C 
HETATM   15  C15 UNL     1      27.502   0.788  53.819  1.00  0.00    -0.002 C 
HETATM   16  C16 UNL     1      27.653   1.871  52.778  1.00  0.00    -0.006 C 
HETATM   17  C17 UNL     1      26.879   2.646  51.805  1.00  0.00     0.103 A 
HETATM   18  N1  UNL     1      25.394   2.699  51.371  1.00  0.00    -0.270 NA
HETATM   19  C18 UNL     1      25.704   1.355  51.782  1.00  0.00     0.147 A 
HETATM   20  C19 UNL     1      25.286   1.937  53.075  1.00  0.00     0.100 C 
HETATM   21  N2  UNL     1      24.409   1.081  53.319  1.00  0.00    -0.280 NA
HETATM   22  C20 UNL     1      21.722  -0.599  53.173  1.00  0.00     0.212 C 
HETATM   23  O1  UNL     1      20.872  -0.147  52.267  1.00  0.00    -0.348 OA
HETATM   24  C21 UNL     1      21.512   3.380  50.126  1.00  0.00     0.085 C 
HETATM   25  S1  UNL     1      19.940   3.802  50.290  1.00  0.00    -0.138 SA
HETATM   26  C22 UNL     1      18.426   3.986  50.960  1.00  0.00     0.353 A 
HETATM   27  N3  UNL     1      17.367   2.913  50.889  1.00  0.00     0.156 N 
HETATM   28  C23 UNL     1      17.329   1.494  51.268  1.00  0.00     0.342 A 
HETATM   29  O2  UNL     1      18.084   2.484  51.314  1.00  0.00     0.000 OA
HETATM   30  O3  UNL     1      17.257   0.116  51.623  1.00  0.00    -0.285 OA
HETATM   31  H23 UNL     1      16.381   3.176  50.460  1.00  0.00     0.327 HD
ENDROOT
TORSDOF 0
ENDMDL
MODEL 2
REMARK VINA RESULT:     -10.1      2.066      2.940
REMARK  0 active torsions:
REMARK  status: ('A' for Active; 'I' for Inactive)
ROOT
HETATM    1  C1  UNL     1      19.495   1.199  50.914  1.00  0.00     0.079 C 
HETATM    2  C2  UNL     1      20.210   2.005  49.959  1.00  0.00     0.081 C 
HETATM    3  C3  UNL     1      21.566   1.973  50.056  1.00  0.00     0.081 C 
HETATM    4  C4  UNL     1      22.235   2.749  49.044  1.00  0.00     0.055 A 
HETATM    5  C5  UNL     1      23.043   3.413  48.240  1.00  0.00     0.007 A 
HETATM    6  C6  UNL     1      23.684   2.844  49.392  1.00  0.00     0.050 A 
HETATM    7  C7  UNL     1      24.878   2.972  49.808  1.00  0.00    -0.018 C 
HETATM    8  C8  UNL     1      26.171   2.852  50.611  1.00  0.00     0.002 C 
HETATM    9  C9  UNL     1      26.175   2.109  51.696  1.00  0.00     0.024 C 
HETATM   10  C10 UNL     1      24.904   1.433  52.027  1.00  0.00     0.152 C 
HETATM   11  C11 UNL     1      23.917   0.661  52.596  1.00  0.00    -0.017 C 
HETATM   12  C12 UNL     1      23.998  -0.313  53.826  1.00  0.00     0.008 C 
HETATM   13  C13 UNL     1      25.125  -0.518  54.526  1.00  0.00     0.000 C 
HETATM   14  C14 UNL     1      26.494  -0.509  55.067  1.00  0.00    -0.000 C 
HETATM   15  C15 UNL     1      27.737   0.040  54.944  1.00  0.00    -0.002 C 
HETATM   16  C16 UNL     1      28.609   1.024  54.202  1.00  0.00    -0.006 C 
HETATM   17  C17 UNL     1      28.561   2.023  53.131  1.00  0.00     0.103 A 
HETATM   18  N1  UNL     1      27.464   2.570  52.185  1.00  0.00    -0.270 NA
HETATM   19  C18 UNL     1      27.168   1.194  52.485  1.00  0.00     0.147 A 
HETATM   20  C19 UNL     1      26.460   1.866  53.596  1.00  0.00     0.100 C 
HETATM   21  N2  UNL     1      25.347   1.346  53.369  1.00  0.00    -0.280 NA
HETATM   22  C20 UNL     1      22.577   0.651  51.987  1.00  0.00     0.212 C 
HETATM   23  O1  UNL     1      22.340   1.369  50.902  1.00  0.00    -0.348 OA
HETATM   24  C21 UNL     1      24.806   4.511  49.685  1.00  0.00     0.085 C 
HETATM   25  S1  UNL     1      23.505   5.427  49.306  1.00  0.00    -0.138 SA
HETATM   26  C22 UNL     1      21.980   6.094  49.378  1.00  0.00     0.353 A 
HETATM   27  N3  UNL     1      20.772   5.433  48.763  1.00  0.00     0.156 N 
HETATM   28  C23 UNL     1      20.162   4.102  48.893  1.00  0.00     0.342 A 
HETATM   29  O2  UNL     1      21.093   4.785  49.360  1.00  0.00     0.000 OA
HETATM   30  O3  UNL     1      19.546   2.821  48.994  1.00  0.00    -0.285 OA
HETATM   31  H23 UNL     1      20.168   6.012  48.037  1.00  0.00     0.327 HD
ENDROOT
TORSDOF 0
ENDMDL
MODEL 3
REMARK VINA RESULT:      -9.9      3.006      4.397
REMARK  0 active torsions:
REMARK  status: ('A' for Active; 'I' for Inactive)
ROOT
HETATM    1  C1  UNL     1      19.449   4.110  50.210  1.00  0.00     0.079 C 
HETATM    2  C2  UNL     1      20.469   4.829  49.494  1.00  0.00     0.081 C 
HETATM    3  C3  UNL     1      21.730   4.331  49.602  1.00  0.00     0.081 C 
HETATM    4  C4  UNL     1      22.704   5.051  48.823  1.00  0.00     0.055 A 
HETATM    5  C5  UNL     1      23.753   5.574  48.219  1.00  0.00     0.007 A 
HETATM    6  C6  UNL     1      24.068   4.581  49.207  1.00  0.00     0.050 A 
HETATM    7  C7  UNL     1      25.196   4.212  49.662  1.00  0.00    -0.018 C 
HETATM    8  C8  UNL     1      26.302   3.495  50.434  1.00  0.00     0.002 C 
HETATM    9  C9  UNL     1      25.967   2.568  51.304  1.00  0.00     0.024 C 
HETATM   10  C10 UNL     1      24.522   2.292  51.438  1.00  0.00     0.152 C 
HETATM   11  C11 UNL     1      23.292   1.781  51.784  1.00  0.00    -0.017 C 
HETATM   12  C12 UNL     1      22.943   0.584  52.740  1.00  0.00     0.008 C 
HETATM   13  C13 UNL     1      23.875  -0.132  53.388  1.00  0.00     0.000 C 
HETATM   14  C14 UNL     1      25.119  -0.698  53.937  1.00  0.00    -0.000 C 
HETATM   15  C15 UNL     1      26.478  -0.576  53.974  1.00  0.00    -0.002 C 
HETATM   16  C16 UNL     1      27.682   0.207  53.509  1.00  0.00    -0.006 C 
HETATM   17  C17 UNL     1      28.054   1.379  52.714  1.00  0.00     0.103 A 
HETATM   18  N1  UNL     1      27.283   2.455  51.912  1.00  0.00    -0.270 NA
HETATM   19  C18 UNL     1      26.540   1.224  51.862  1.00  0.00     0.147 A 
HETATM   20  C19 UNL     1      25.977   1.822  53.091  1.00  0.00     0.100 C 
HETATM   21  N2  UNL     1      24.784   1.764  52.725  1.00  0.00    -0.280 NA
HETATM   22  C20 UNL     1      22.082   2.351  51.168  1.00  0.00     0.212 C 
HETATM   23  O1  UNL     1      22.189   3.331  50.289  1.00  0.00    -0.348 OA
HETATM   24  C21 UNL     1      25.625   5.675  49.918  1.00  0.00     0.085 C 
HETATM   25  S1  UNL     1      24.723   7.028  49.753  1.00  0.00    -0.138 SA
HETATM   26  C22 UNL     1      23.486   8.126  49.960  1.00  0.00     0.353 A 
HETATM   27  N3  UNL     1      22.196   8.056  49.181  1.00  0.00     0.156 N 
HETATM   28  C23 UNL     1      21.188   7.007  48.972  1.00  0.00     0.342 A 
HETATM   29  O2  UNL     1      22.238   7.222  49.607  1.00  0.00     0.000 OA
HETATM   30  O3  UNL     1      20.192   6.013  48.747  1.00  0.00    -0.285 OA
HETATM   31  H23 UNL     1      21.878   8.950  48.609  1.00  0.00     0.327 HD
ENDROOT
TORSDOF 0
ENDMDL
MODEL 4
REMARK VINA RESULT:      -9.8      4.133      6.505
REMARK  0 active torsions:
REMARK  status: ('A' for Active; 'I' for Inactive)
ROOT
HETATM    1  C1  UNL     1      28.001   5.533  48.391  1.00  0.00     0.079 C 
HETATM    2  C2  UNL     1      26.806   6.313  48.576  1.00  0.00     0.081 C 
HETATM    3  C3  UNL     1      25.915   5.825  49.481  1.00  0.00     0.081 C 
HETATM    4  C4  UNL     1      24.764   6.670  49.671  1.00  0.00     0.055 A 
HETATM    5  C5  UNL     1      23.628   7.265  49.975  1.00  0.00     0.007 A 
HETATM    6  C6  UNL     1      23.754   5.928  50.483  1.00  0.00     0.050 A 
HETATM    7  C7  UNL     1      22.902   5.199  51.081  1.00  0.00    -0.018 C 
HETATM    8  C8  UNL     1      22.214   4.048  51.811  1.00  0.00     0.002 C 
HETATM    9  C9  UNL     1      22.891   2.942  52.029  1.00  0.00     0.024 C 
HETATM   10  C10 UNL     1      24.288   2.930  51.552  1.00  0.00     0.152 C 
HETATM   11  C11 UNL     1      25.593   2.599  51.266  1.00  0.00    -0.017 C 
HETATM   12  C12 UNL     1      26.403   1.310  51.655  1.00  0.00     0.008 C 
HETATM   13  C13 UNL     1      25.875   0.297  52.361  1.00  0.00     0.000 C 
HETATM   14  C14 UNL     1      25.007  -0.613  53.125  1.00  0.00    -0.000 C 
HETATM   15  C15 UNL     1      23.746  -0.804  53.614  1.00  0.00    -0.002 C 
HETATM   16  C16 UNL     1      22.345  -0.254  53.723  1.00  0.00    -0.006 C 
HETATM   17  C17 UNL     1      21.517   0.876  53.295  1.00  0.00     0.103 A 
HETATM   18  N1  UNL     1      21.745   2.148  52.442  1.00  0.00    -0.270 NA
HETATM   19  C18 UNL     1      22.976   1.815  53.109  1.00  0.00     0.147 A 
HETATM   20  C19 UNL     1      23.127   1.026  51.867  1.00  0.00     0.100 C 
HETATM   21  N2  UNL     1      24.229   1.515  51.542  1.00  0.00    -0.280 NA
HETATM   22  C20 UNL     1      26.434   3.566  50.542  1.00  0.00     0.212 C 
HETATM   23  O1  UNL     1      25.934   4.736  50.185  1.00  0.00    -0.348 OA
HETATM   24  C21 UNL     1      21.830   5.485  50.005  1.00  0.00     0.085 C 
HETATM   25  S1  UNL     1      22.010   6.311  48.605  1.00  0.00    -0.138 SA
HETATM   26  C22 UNL     1      22.583   6.748  47.103  1.00  0.00     0.353 A 
HETATM   27  N3  UNL     1      23.800   7.621  46.917  1.00  0.00     0.156 N 
HETATM   28  C23 UNL     1      25.189   7.544  47.390  1.00  0.00     0.342 A 
HETATM   29  O2  UNL     1      24.126   6.896  47.416  1.00  0.00     0.000 OA
HETATM   30  O3  UNL     1      26.543   7.503  47.832  1.00  0.00    -0.285 OA
HETATM   31  H23 UNL     1      23.699   8.542  46.311  1.00  0.00     0.327 HD
ENDROOT
TORSDOF 0
ENDMDL
MODEL 5
REMARK VINA RESULT:      -9.6      2.413      6.661
REMARK  0 active torsions:
REMARK  status: ('A' for Active; 'I' for Inactive)
ROOT
HETATM    1  C1  UNL     1      25.933  -0.232  54.289  1.00  0.00     0.079 C 
HETATM    2  C2  UNL     1      25.843   1.084  53.715  1.00  0.00     0.081 C 
HETATM    3  C3  UNL     1      24.586   1.524  53.438  1.00  0.00     0.081 C 
HETATM    4  C4  UNL     1      24.546   2.867  52.918  1.00  0.00     0.055 A 
HETATM    5  C5  UNL     1      24.280   4.053  52.407  1.00  0.00     0.007 A 
HETATM    6  C6  UNL     1      23.165   3.148  52.423  1.00  0.00     0.050 A 
HETATM    7  C7  UNL     1      22.002   3.277  51.926  1.00  0.00    -0.018 C 
HETATM    8  C8  UNL     1      20.552   3.041  51.510  1.00  0.00     0.002 C 
HETATM    9  C9  UNL     1      19.977   1.906  51.838  1.00  0.00     0.024 C 
HETATM   10  C10 UNL     1      20.803   0.956  52.610  1.00  0.00     0.152 C 
HETATM   11  C11 UNL     1      21.270  -0.117  53.334  1.00  0.00    -0.017 C 
HETATM   12  C12 UNL     1      20.508  -1.406  53.811  1.00  0.00     0.008 C 
HETATM   13  C13 UNL     1      19.213  -1.633  53.542  1.00  0.00     0.000 C 
HETATM   14  C14 UNL     1      17.816  -1.575  53.078  1.00  0.00    -0.000 C 
HETATM   15  C15 UNL     1      16.910  -0.850  52.360  1.00  0.00    -0.002 C 
HETATM   16  C16 UNL     1      16.667   0.380  51.520  1.00  0.00    -0.006 C 
HETATM   17  C17 UNL     1      17.357   1.545  50.961  1.00  0.00     0.103 A 
HETATM   18  N1  UNL     1      18.808   2.084  50.990  1.00  0.00    -0.270 NA
HETATM   19  C18 UNL     1      18.554   1.381  52.221  1.00  0.00     0.147 A 
HETATM   20  C19 UNL     1      19.046   0.270  51.379  1.00  0.00     0.100 C 
HETATM   21  N2  UNL     1      19.955  -0.085  52.159  1.00  0.00    -0.280 NA
HETATM   22  C20 UNL     1      22.661  -0.103  53.816  1.00  0.00     0.212 C 
HETATM   23  O1  UNL     1      23.437   0.935  53.559  1.00  0.00    -0.348 OA
HETATM   24  C21 UNL     1      22.583   3.714  50.562  1.00  0.00     0.085 C 
HETATM   25  S1  UNL     1      24.153   3.752  50.105  1.00  0.00    -0.138 SA
HETATM   26  C22 UNL     1      25.705   3.243  49.776  1.00  0.00     0.353 A 
HETATM   27  N3  UNL     1      26.778   3.163  50.833  1.00  0.00     0.156 N 
HETATM   28  C23 UNL     1      26.871   2.500  52.141  1.00  0.00     0.342 A 
HETATM   29  O2  UNL     1      26.100   2.608  51.169  1.00  0.00     0.000 OA
HETATM   30  O3  UNL     1      26.995   1.871  53.414  1.00  0.00    -0.285 OA
HETATM   31  H23 UNL     1      27.728   3.705  50.660  1.00  0.00     0.327 HD
ENDROOT
TORSDOF 0
ENDMDL
MODEL 6
REMARK VINA RESULT:      -9.4      2.732      6.539
REMARK  0 active torsions:
REMARK  status: ('A' for Active; 'I' for Inactive)
ROOT
HETATM    1  C1  UNL     1      21.840  -1.476  53.913  1.00  0.00     0.079 C 
HETATM    2  C2  UNL     1      23.037  -0.693  54.076  1.00  0.00     0.081 C 
HETATM    3  C3  UNL     1      23.113   0.435  53.320  1.00  0.00     0.081 C 
HETATM    4  C4  UNL     1      24.302   1.212  53.562  1.00  0.00     0.055 A 
HETATM    5  C5  UNL     1      25.317   2.052  53.600  1.00  0.00     0.007 A 
HETATM    6  C6  UNL     1      24.400   2.275  52.518  1.00  0.00     0.050 A 
HETATM    7  C7  UNL     1      24.475   3.081  51.538  1.00  0.00    -0.018 C 
HETATM    8  C8  UNL     1      24.177   3.878  50.270  1.00  0.00     0.002 C 
HETATM    9  C9  UNL     1      23.061   3.635  49.618  1.00  0.00     0.024 C 
HETATM   10  C10 UNL     1      22.177   2.605  50.200  1.00  0.00     0.152 C 
HETATM   11  C11 UNL     1      21.140   1.744  50.476  1.00  0.00    -0.017 C 
HETATM   12  C12 UNL     1      19.764   1.572  49.737  1.00  0.00     0.008 C 
HETATM   13  C13 UNL     1      19.413   2.297  48.663  1.00  0.00     0.000 C 
HETATM   14  C14 UNL     1      19.346   3.235  47.529  1.00  0.00    -0.000 C 
HETATM   15  C15 UNL     1      20.028   4.189  46.831  1.00  0.00    -0.002 C 
HETATM   16  C16 UNL     1      21.316   4.963  46.690  1.00  0.00    -0.006 C 
HETATM   17  C17 UNL     1      22.653   5.087  47.276  1.00  0.00     0.103 A 
HETATM   18  N1  UNL     1      23.417   4.394  48.430  1.00  0.00    -0.270 NA
HETATM   19  C18 UNL     1      22.016   4.415  48.755  1.00  0.00     0.147 A 
HETATM   20  C19 UNL     1      22.096   3.138  48.014  1.00  0.00     0.100 C 
HETATM   21  N2  UNL     1      21.599   2.436  48.919  1.00  0.00    -0.280 NA
HETATM   22  C20 UNL     1      21.236   0.861  51.650  1.00  0.00     0.212 C 
HETATM   23  O1  UNL     1      22.303   0.912  52.427  1.00  0.00    -0.348 OA
HETATM   24  C21 UNL     1      25.913   2.620  51.208  1.00  0.00     0.085 C 
HETATM   25  S1  UNL     1      26.759   1.401  51.895  1.00  0.00    -0.138 SA
HETATM   26  C22 UNL     1      27.171  -0.129  52.409  1.00  0.00     0.353 A 
HETATM   27  N3  UNL     1      26.693  -0.706  53.718  1.00  0.00     0.156 N 
HETATM   28  C23 UNL     1      25.368  -0.892  54.326  1.00  0.00     0.342 A 
HETATM   29  O2  UNL     1      25.897  -0.496  53.269  1.00  0.00     0.000 OA
HETATM   30  O3  UNL     1      24.099  -1.088  54.944  1.00  0.00    -0.285 OA
HETATM   31  H23 UNL     1      27.449  -1.082  54.435  1.00  0.00     0.327 HD
ENDROOT
TORSDOF 0
ENDMDL
MODEL 7
REMARK VINA RESULT:      -9.1      9.558     12.840
REMARK  0 active torsions:
REMARK  status: ('A' for Active; 'I' for Inactive)
ROOT
HETATM    1  C1  UNL     1      33.331   7.983  46.193  1.00  0.00     0.079 C 
HETATM    2  C2  UNL     1      32.955   9.299  46.638  1.00  0.00     0.081 C 
HETATM    3  C3  UNL     1      31.837   9.365  47.409  1.00  0.00     0.081 C 
HETATM    4  C4  UNL     1      31.535  10.694  47.876  1.00  0.00     0.055 A 
HETATM    5  C5  UNL     1      31.060  11.815  48.382  1.00  0.00     0.007 A 
HETATM    6  C6  UNL     1      30.175  10.690  48.491  1.00  0.00     0.050 A 
HETATM    7  C7  UNL     1      28.972  10.633  48.899  1.00  0.00    -0.018 C 
HETATM    8  C8  UNL     1      27.585  10.144  49.308  1.00  0.00     0.002 C 
HETATM    9  C9  UNL     1      27.302   8.867  49.181  1.00  0.00     0.024 C 
HETATM   10  C10 UNL     1      28.385   8.009  48.661  1.00  0.00     0.152 C 
HETATM   11  C11 UNL     1      29.157   6.950  48.239  1.00  0.00    -0.017 C 
HETATM   12  C12 UNL     1      28.820   5.416  48.219  1.00  0.00     0.008 C 
HETATM   13  C13 UNL     1      27.646   4.918  48.637  1.00  0.00     0.000 C 
HETATM   14  C14 UNL     1      26.283   4.710  49.154  1.00  0.00    -0.000 C 
HETATM   15  C15 UNL     1      25.162   5.331  49.624  1.00  0.00    -0.002 C 
HETATM   16  C16 UNL     1      24.495   6.647  49.941  1.00  0.00    -0.006 C 
HETATM   17  C17 UNL     1      24.718   8.094  49.880  1.00  0.00     0.103 A 
HETATM   18  N1  UNL     1      25.872   9.010  49.405  1.00  0.00    -0.270 NA
HETATM   19  C18 UNL     1      26.435   7.782  49.901  1.00  0.00     0.147 A 
HETATM   20  C19 UNL     1      26.218   7.421  48.483  1.00  0.00     0.100 C 
HETATM   21  N2  UNL     1      27.398   7.076  48.260  1.00  0.00    -0.280 NA
HETATM   22  C20 UNL     1      30.531   7.207  47.777  1.00  0.00     0.212 C 
HETATM   23  O1  UNL     1      31.009   8.439  47.781  1.00  0.00    -0.348 OA
HETATM   24  C21 UNL     1      28.560  11.815  47.992  1.00  0.00     0.085 C 
HETATM   25  S1  UNL     1      29.469  12.584  46.870  1.00  0.00    -0.138 SA
HETATM   26  C22 UNL     1      30.420  12.838  45.526  1.00  0.00     0.353 A 
HETATM   27  N3  UNL     1      31.916  12.646  45.538  1.00  0.00     0.156 N 
HETATM   28  C23 UNL     1      32.797  11.531  45.912  1.00  0.00     0.342 A 
HETATM   29  O2  UNL     1      31.587  11.808  45.801  1.00  0.00     0.000 OA
HETATM   30  O3  UNL     1      33.681  10.471  46.267  1.00  0.00    -0.285 OA
HETATM   31  H23 UNL     1      32.557  13.491  45.218  1.00  0.00     0.327 HD
ENDROOT
TORSDOF 0
ENDMDL
MODEL 8
REMARK VINA RESULT:      -9.1      3.140      6.414
REMARK  0 active torsions:
REMARK  status: ('A' for Active; 'I' for Inactive)
ROOT
HETATM    1  C1  UNL     1      26.175   1.337  52.944  1.00  0.00     0.079 C 
HETATM    2  C2  UNL     1      24.910   0.690  52.719  1.00  0.00     0.081 C 
HETATM    3  C3  UNL     1      24.007   1.397  51.987  1.00  0.00     0.081 C 
HETATM    4  C4  UNL     1      22.779   0.684  51.742  1.00  0.00     0.055 A 
HETATM    5  C5  UNL     1      21.580   0.236  51.427  1.00  0.00     0.007 A 
HETATM    6  C6  UNL     1      21.784   1.631  51.156  1.00  0.00     0.050 A 
HETATM    7  C7  UNL     1      20.959   2.516  50.765  1.00  0.00    -0.018 C 
HETATM    8  C8  UNL     1      20.324   3.826  50.307  1.00  0.00     0.002 C 
HETATM    9  C9  UNL     1      21.075   4.903  50.236  1.00  0.00     0.024 C 
HETATM   10  C10 UNL     1      22.497   4.729  50.595  1.00  0.00     0.152 C 
HETATM   11  C11 UNL     1      23.841   4.909  50.831  1.00  0.00    -0.017 C 
HETATM   12  C12 UNL     1      24.729   6.187  50.614  1.00  0.00     0.008 C 
HETATM   13  C13 UNL     1      24.243   7.346  50.143  1.00  0.00     0.000 C 
HETATM   14  C14 UNL     1      23.406   8.440  49.622  1.00  0.00    -0.000 C 
HETATM   15  C15 UNL     1      22.137   8.805  49.276  1.00  0.00    -0.002 C 
HETATM   16  C16 UNL     1      20.690   8.385  49.182  1.00  0.00    -0.006 C 
HETATM   17  C17 UNL     1      19.800   7.257  49.467  1.00  0.00     0.103 A 
HETATM   18  N1  UNL     1      19.976   5.838  50.061  1.00  0.00    -0.270 NA
HETATM   19  C18 UNL     1      21.185   6.199  49.368  1.00  0.00     0.147 A 
HETATM   20  C19 UNL     1      21.481   6.735  50.714  1.00  0.00     0.100 C 
HETATM   21  N2  UNL     1      22.557   6.119  50.860  1.00  0.00    -0.280 NA
HETATM   22  C20 UNL     1      24.643   3.769  51.305  1.00  0.00     0.212 C 
HETATM   23  O1  UNL     1      24.071   2.592  51.488  1.00  0.00    -0.348 OA
HETATM   24  C21 UNL     1      19.939   2.114  51.854  1.00  0.00     0.085 C 
HETATM   25  S1  UNL     1      20.139   1.036  53.068  1.00  0.00    -0.138 SA
HETATM   26  C22 UNL     1      20.770   0.293  54.419  1.00  0.00     0.353 A 
HETATM   27  N3  UNL     1      21.919  -0.683  54.352  1.00  0.00     0.156 N 
HETATM   28  C23 UNL     1      23.276  -0.620  53.791  1.00  0.00     0.342 A 
HETATM   29  O2  UNL     1      22.271   0.096  53.965  1.00  0.00     0.000 OA
HETATM   30  O3  UNL     1      24.597  -0.594  53.258  1.00  0.00    -0.285 OA
HETATM   31  H23 UNL     1      21.780  -1.690  54.791  1.00  0.00     0.327 HD
ENDROOT
TORSDOF 0
ENDMDL
MODEL 9
REMARK VINA RESULT:      -9.0      9.254     12.906
REMARK  0 active torsions:
REMARK  status: ('A' for Active; 'I' for Inactive)
ROOT
HETATM    1  C1  UNL     1      32.047   2.613  46.428  1.00  0.00     0.079 C 
HETATM    2  C2  UNL     1      32.929   3.750  46.412  1.00  0.00     0.081 C 
HETATM    3  C3  UNL     1      32.442   4.884  46.984  1.00  0.00     0.081 C 
HETATM    4  C4  UNL     1      33.382   5.975  46.993  1.00  0.00     0.055 A 
HETATM    5  C5  UNL     1      34.061   7.102  47.081  1.00  0.00     0.007 A 
HETATM    6  C6  UNL     1      32.668   7.219  47.409  1.00  0.00     0.050 A 
HETATM    7  C7  UNL     1      31.973   8.253  47.664  1.00  0.00    -0.018 C 
HETATM    8  C8  UNL     1      30.829   9.197  48.025  1.00  0.00     0.002 C 
HETATM    9  C9  UNL     1      29.637   8.690  48.250  1.00  0.00     0.024 C 
HETATM   10  C10 UNL     1      29.525   7.221  48.146  1.00  0.00     0.152 C 
HETATM   11  C11 UNL     1      29.086   5.917  48.156  1.00  0.00    -0.017 C 
HETATM   12  C12 UNL     1      27.679   5.341  48.552  1.00  0.00     0.008 C 
HETATM   13  C13 UNL     1      26.657   6.114  48.950  1.00  0.00     0.000 C 
HETATM   14  C14 UNL     1      25.766   7.223  49.334  1.00  0.00    -0.000 C 
HETATM   15  C15 UNL     1      25.662   8.578  49.455  1.00  0.00    -0.002 C 
HETATM   16  C16 UNL     1      26.347   9.911  49.282  1.00  0.00    -0.006 C 
HETATM   17  C17 UNL     1      27.604  10.507  48.822  1.00  0.00     0.103 A 
HETATM   18  N1  UNL     1      28.933   9.962  48.243  1.00  0.00    -0.270 NA
HETATM   19  C18 UNL     1      28.390   8.982  49.146  1.00  0.00     0.147 A 
HETATM   20  C19 UNL     1      27.739   8.568  47.885  1.00  0.00     0.100 C 
HETATM   21  N2  UNL     1      28.136   7.384  47.922  1.00  0.00    -0.280 NA
HETATM   22  C20 UNL     1      30.031   4.842  47.812  1.00  0.00     0.212 C 
HETATM   23  O1  UNL     1      31.283   5.137  47.509  1.00  0.00    -0.348 OA
HETATM   24  C21 UNL     1      32.500   8.975  46.403  1.00  0.00     0.085 C 
HETATM   25  S1  UNL     1      33.458   8.366  45.225  1.00  0.00    -0.138 SA
HETATM   26  C22 UNL     1      34.000   7.383  43.994  1.00  0.00     0.353 A 
HETATM   27  N3  UNL     1      34.746   6.097  44.247  1.00  0.00     0.156 N 
HETATM   28  C23 UNL     1      34.462   4.893  45.041  1.00  0.00     0.342 A 
HETATM   29  O2  UNL     1      33.937   5.972  44.705  1.00  0.00     0.000 OA
HETATM   30  O3  UNL     1      34.219   3.713  45.801  1.00  0.00    -0.285 OA
HETATM   31  H23 UNL     1      35.738   5.962  43.772  1.00  0.00     0.327 HD
ENDROOT
TORSDOF 0
ENDMDL
