MODEL 1
REMARK VINA RESULT:      -9.5      0.000      0.000
REMARK  1 active torsions:
REMARK  status: ('A' for Active; 'I' for Inactive)
REMARK    1  A    between atoms: C5_5  and  N1_6 
ROOT
HETATM    1  N1  UNL     1      25.268   2.345  51.448  1.00  0.00    -0.332 N 
HETATM    2  C6  UNL     1      23.820   2.077  51.433  1.00  0.00     0.280 C 
HETATM    3  N2  UNL     1      23.409   1.115  52.392  1.00  0.00    -0.263 NA
HETATM    4  C7  UNL     1      22.554   0.165  52.242  1.00  0.00     0.228 C 
HETATM    5  N3  UNL     1      22.492  -0.517  53.486  1.00  0.00    -0.254 NA
HETATM    6  C8  UNL     1      23.451  -0.794  54.258  1.00  0.00     0.120 C 
HETATM    7  C9  UNL     1      24.831  -0.808  54.654  1.00  0.00     0.056 C 
HETATM    8  C10 UNL     1      25.842  -0.306  53.973  1.00  0.00     0.075 C 
HETATM    9  C11 UNL     1      25.762   0.364  52.679  1.00  0.00     0.062 C 
HETATM   10  C12 UNL     1      26.127   1.591  52.263  1.00  0.00     0.018 C 
HETATM   11  C13 UNL     1      27.347   2.408  52.476  1.00  0.00     0.083 C 
HETATM   12  C14 UNL     1      28.440   1.472  53.035  1.00  0.00     0.177 C 
HETATM   13  O1  UNL     1      28.219   1.370  54.387  1.00  0.00    -0.361 OA
HETATM   14  C15 UNL     1      28.201   0.085  54.892  1.00  0.00     0.262 C 
HETATM   15  C16 UNL     1      29.301  -0.710  54.223  1.00  0.00     0.071 C 
HETATM   16  O2  UNL     1      26.948  -0.567  54.769  1.00  0.00    -0.321 OA
ENDROOT
BRANCH   1  17
HETATM   17  C5  UNL     1      25.691   3.371  50.569  1.00  0.00     0.036 A 
HETATM   18  C4  UNL     1      26.689   3.534  49.646  1.00  0.00     0.030 A 
HETATM   19  C3  UNL     1      26.825   4.687  48.910  1.00  0.00     0.009 A 
HETATM   20  C2  UNL     1      25.967   5.758  49.048  1.00  0.00    -0.062 A 
HETATM   21  C1  UNL     1      26.225   6.942  48.192  1.00  0.00     0.048 C 
HETATM   22  C18 UNL     1      24.948   5.633  49.968  1.00  0.00     0.009 A 
HETATM   23  C17 UNL     1      24.813   4.459  50.716  1.00  0.00     0.030 A 
ENDBRANCH   1  17
TORSDOF 1
ENDMDL
MODEL 2
REMARK VINA RESULT:      -9.3      1.826      2.213
REMARK  1 active torsions:
REMARK  status: ('A' for Active; 'I' for Inactive)
REMARK    1  A    between atoms: C5_5  and  N1_6 
ROOT
HETATM    1  N1  UNL     1      23.382   1.868  52.420  1.00  0.00    -0.332 N 
HETATM    2  C6  UNL     1      22.068   1.335  52.816  1.00  0.00     0.280 C 
HETATM    3  N2  UNL     1      22.138   0.327  53.814  1.00  0.00    -0.263 NA
HETATM    4  C7  UNL     1      21.465  -0.768  53.880  1.00  0.00     0.228 C 
HETATM    5  N3  UNL     1      21.897  -1.429  55.060  1.00  0.00    -0.254 NA
HETATM    6  C8  UNL     1      23.074  -1.511  55.508  1.00  0.00     0.120 C 
HETATM    7  C9  UNL     1      24.486  -1.262  55.485  1.00  0.00     0.056 C 
HETATM    8  C10 UNL     1      25.145  -0.590  54.561  1.00  0.00     0.075 C 
HETATM    9  C11 UNL     1      24.568   0.032  53.374  1.00  0.00     0.062 C 
HETATM   10  C12 UNL     1      24.565   1.300  52.920  1.00  0.00     0.018 C 
HETATM   11  C13 UNL     1      25.623   2.333  52.802  1.00  0.00     0.083 C 
HETATM   12  C14 UNL     1      26.984   1.626  52.980  1.00  0.00     0.177 C 
HETATM   13  O1  UNL     1      27.191   1.505  54.334  1.00  0.00    -0.361 OA
HETATM   14  C15 UNL     1      27.557   0.248  54.769  1.00  0.00     0.262 C 
HETATM   15  C16 UNL     1      28.538  -0.339  53.779  1.00  0.00     0.071 C 
HETATM   16  O2  UNL     1      26.463  -0.629  54.990  1.00  0.00    -0.321 OA
ENDROOT
BRANCH   1  17
HETATM   17  C5  UNL     1      23.335   2.942  51.498  1.00  0.00     0.036 A 
HETATM   18  C4  UNL     1      23.292   4.307  51.572  1.00  0.00     0.030 A 
HETATM   19  C3  UNL     1      23.276   5.102  50.451  1.00  0.00     0.009 A 
HETATM   20  C2  UNL     1      23.302   4.580  49.174  1.00  0.00    -0.062 A 
HETATM   21  C1  UNL     1      23.281   5.547  48.050  1.00  0.00     0.048 C 
HETATM   22  C18 UNL     1      23.345   3.206  49.058  1.00  0.00     0.009 A 
HETATM   23  C17 UNL     1      23.361   2.402  50.201  1.00  0.00     0.030 A 
ENDBRANCH   1  17
TORSDOF 1
ENDMDL
MODEL 3
REMARK VINA RESULT:      -9.0      2.650      6.028
REMARK  1 active torsions:
REMARK  status: ('A' for Active; 'I' for Inactive)
REMARK    1  A    between atoms: C5_5  and  N1_6 
ROOT
HETATM    1  N1  UNL     1      25.088   1.233  52.458  1.00  0.00    -0.332 N 
HETATM    2  C6  UNL     1      25.380   2.522  51.811  1.00  0.00     0.280 C 
HETATM    3  N2  UNL     1      24.241   3.357  51.663  1.00  0.00    -0.263 NA
HETATM    4  C7  UNL     1      23.917   4.081  50.649  1.00  0.00     0.228 C 
HETATM    5  N3  UNL     1      22.699   4.725  50.993  1.00  0.00    -0.254 NA
HETATM    6  C8  UNL     1      21.720   4.233  51.619  1.00  0.00     0.120 C 
HETATM    7  C9  UNL     1      21.018   3.187  52.306  1.00  0.00     0.056 C 
HETATM    8  C10 UNL     1      21.455   1.961  52.515  1.00  0.00     0.075 C 
HETATM    9  C11 UNL     1      22.740   1.420  52.085  1.00  0.00     0.062 C 
HETATM   10  C12 UNL     1      23.767   0.865  52.758  1.00  0.00     0.018 C 
HETATM   11  C13 UNL     1      23.835  -0.149  53.839  1.00  0.00     0.083 C 
HETATM   12  C14 UNL     1      22.455  -0.836  53.918  1.00  0.00     0.177 C 
HETATM   13  O1  UNL     1      21.651  -0.019  54.676  1.00  0.00    -0.361 OA
HETATM   14  C15 UNL     1      20.415   0.269  54.133  1.00  0.00     0.262 C 
HETATM   15  C16 UNL     1      19.864  -0.988  53.496  1.00  0.00     0.071 C 
HETATM   16  O2  UNL     1      20.424   1.349  53.213  1.00  0.00    -0.321 OA
ENDROOT
BRANCH   1  17
HETATM   17  C5  UNL     1      26.222   0.422  52.706  1.00  0.00     0.036 A 
HETATM   18  C4  UNL     1      26.590  -0.870  52.444  1.00  0.00     0.030 A 
HETATM   19  C3  UNL     1      27.817  -1.371  52.808  1.00  0.00     0.009 A 
HETATM   20  C2  UNL     1      28.763  -0.607  53.460  1.00  0.00    -0.062 A 
HETATM   21  C1  UNL     1      30.048  -1.269  53.797  1.00  0.00     0.048 C 
HETATM   22  C18 UNL     1      28.429   0.701  53.743  1.00  0.00     0.009 A 
HETATM   23  C17 UNL     1      27.180   1.206  53.371  1.00  0.00     0.030 A 
ENDBRANCH   1  17
TORSDOF 1
ENDMDL
MODEL 4
REMARK VINA RESULT:      -9.0      2.904      5.928
REMARK  1 active torsions:
REMARK  status: ('A' for Active; 'I' for Inactive)
REMARK    1  A    between atoms: C5_5  and  N1_6 
ROOT
HETATM    1  N1  UNL     1      24.453   0.128  53.387  1.00  0.00    -0.332 N 
HETATM    2  C6  UNL     1      23.660  -0.904  54.073  1.00  0.00     0.280 C 
HETATM    3  N2  UNL     1      22.276  -0.864  53.757  1.00  0.00    -0.263 NA
HETATM    4  C7  UNL     1      21.278  -1.013  54.555  1.00  0.00     0.228 C 
HETATM    5  N3  UNL     1      20.109  -0.888  53.759  1.00  0.00    -0.254 NA
HETATM    6  C8  UNL     1      19.906  -0.075  52.815  1.00  0.00     0.120 C 
HETATM    7  C9  UNL     1      20.266   0.995  51.931  1.00  0.00     0.056 C 
HETATM    8  C10 UNL     1      21.408   1.655  51.929  1.00  0.00     0.075 C 
HETATM    9  C11 UNL     1      22.535   1.429  52.829  1.00  0.00     0.062 C 
HETATM   10  C12 UNL     1      23.827   1.115  52.611  1.00  0.00     0.018 C 
HETATM   11  C13 UNL     1      24.843   1.626  51.658  1.00  0.00     0.083 C 
HETATM   12  C14 UNL     1      24.303   2.947  51.069  1.00  0.00     0.177 C 
HETATM   13  O1  UNL     1      23.453   2.604  50.045  1.00  0.00    -0.361 OA
HETATM   14  C15 UNL     1      22.217   3.218  50.068  1.00  0.00     0.262 C 
HETATM   15  C16 UNL     1      22.405   4.665  50.468  1.00  0.00     0.071 C 
HETATM   16  O2  UNL     1      21.265   2.574  50.900  1.00  0.00    -0.321 OA
ENDROOT
BRANCH   1  17
HETATM   17  C5  UNL     1      25.850   0.049  53.609  1.00  0.00     0.036 A 
HETATM   18  C4  UNL     1      26.771   0.722  54.365  1.00  0.00     0.030 A 
HETATM   19  C3  UNL     1      28.101   0.375  54.380  1.00  0.00     0.009 A 
HETATM   20  C2  UNL     1      28.600  -0.674  53.637  1.00  0.00    -0.062 A 
HETATM   21  C1  UNL     1      30.055  -0.944  53.744  1.00  0.00     0.048 C 
HETATM   22  C18 UNL     1      27.703  -1.377  52.860  1.00  0.00     0.009 A 
HETATM   23  C17 UNL     1      26.351  -1.020  52.847  1.00  0.00     0.030 A 
ENDBRANCH   1  17
TORSDOF 1
ENDMDL
MODEL 5
REMARK VINA RESULT:      -8.7      2.659      5.782
REMARK  1 active torsions:
REMARK  status: ('A' for Active; 'I' for Inactive)
REMARK    1  A    between atoms: C5_5  and  N1_6 
ROOT
HETATM    1  N1  UNL     1      24.588   0.099  53.117  1.00  0.00    -0.332 N 
HETATM    2  C6  UNL     1      23.610  -0.763  53.802  1.00  0.00     0.280 C 
HETATM    3  N2  UNL     1      22.267  -0.327  53.657  1.00  0.00    -0.263 NA
HETATM    4  C7  UNL     1      21.343  -0.302  54.553  1.00  0.00     0.228 C 
HETATM    5  N3  UNL     1      20.184   0.215  53.915  1.00  0.00    -0.254 NA
HETATM    6  C8  UNL     1      20.124   1.156  53.076  1.00  0.00     0.120 C 
HETATM    7  C9  UNL     1      20.679   2.190  52.251  1.00  0.00     0.056 C 
HETATM    8  C10 UNL     1      21.952   2.524  52.170  1.00  0.00     0.075 C 
HETATM    9  C11 UNL     1      23.052   1.910  52.906  1.00  0.00     0.062 C 
HETATM   10  C12 UNL     1      24.185   1.298  52.510  1.00  0.00     0.018 C 
HETATM   11  C13 UNL     1      25.209   1.632  51.490  1.00  0.00     0.083 C 
HETATM   12  C14 UNL     1      24.998   3.107  51.086  1.00  0.00     0.177 C 
HETATM   13  O1  UNL     1      23.996   3.117  50.145  1.00  0.00    -0.361 OA
HETATM   14  C15 UNL     1      22.981   4.026  50.367  1.00  0.00     0.262 C 
HETATM   15  C16 UNL     1      23.591   5.318  50.866  1.00  0.00     0.071 C 
HETATM   16  O2  UNL     1      21.971   3.561  51.249  1.00  0.00    -0.321 OA
ENDROOT
BRANCH   1  17
HETATM   17  C5  UNL     1      25.925  -0.367  53.163  1.00  0.00     0.036 A 
HETATM   18  C4  UNL     1      26.652  -1.348  52.546  1.00  0.00     0.030 A 
HETATM   19  C3  UNL     1      27.989  -1.539  52.800  1.00  0.00     0.009 A 
HETATM   20  C2  UNL     1      28.691  -0.756  53.692  1.00  0.00    -0.062 A 
HETATM   21  C1  UNL     1      30.131  -1.067  53.874  1.00  0.00     0.048 C 
HETATM   22  C18 UNL     1      27.993   0.244  54.335  1.00  0.00     0.009 A 
HETATM   23  C17 UNL     1      26.633   0.435  54.075  1.00  0.00     0.030 A 
ENDBRANCH   1  17
TORSDOF 1
ENDMDL
MODEL 6
REMARK VINA RESULT:      -8.6      1.789      2.419
REMARK  1 active torsions:
REMARK  status: ('A' for Active; 'I' for Inactive)
REMARK    1  A    between atoms: C5_5  and  N1_6 
ROOT
HETATM    1  N1  UNL     1      24.864   3.628  50.485  1.00  0.00    -0.332 N 
HETATM    2  C6  UNL     1      23.498   4.160  50.349  1.00  0.00     0.280 C 
HETATM    3  N2  UNL     1      22.537   3.470  51.135  1.00  0.00    -0.263 NA
HETATM    4  C7  UNL     1      21.343   3.126  50.802  1.00  0.00     0.228 C 
HETATM    5  N3  UNL     1      20.789   2.465  51.930  1.00  0.00    -0.254 NA
HETATM    6  C8  UNL     1      21.368   1.656  52.706  1.00  0.00     0.120 C 
HETATM    7  C9  UNL     1      22.485   0.886  53.173  1.00  0.00     0.056 C 
HETATM    8  C10 UNL     1      23.686   0.846  52.630  1.00  0.00     0.075 C 
HETATM    9  C11 UNL     1      24.119   1.576  51.443  1.00  0.00     0.062 C 
HETATM   10  C12 UNL     1      25.109   2.464  51.230  1.00  0.00     0.018 C 
HETATM   11  C13 UNL     1      26.538   2.498  51.627  1.00  0.00     0.083 C 
HETATM   12  C14 UNL     1      26.920   1.080  52.106  1.00  0.00     0.177 C 
HETATM   13  O1  UNL     1      26.513   0.983  53.415  1.00  0.00    -0.361 OA
HETATM   14  C15 UNL     1      25.779  -0.143  53.727  1.00  0.00     0.262 C 
HETATM   15  C16 UNL     1      26.390  -1.330  53.015  1.00  0.00     0.071 C 
HETATM   16  O2  UNL     1      24.394  -0.029  53.441  1.00  0.00    -0.321 OA
ENDROOT
BRANCH   1  17
HETATM   17  C5  UNL     1      25.858   4.358  49.788  1.00  0.00     0.036 A 
HETATM   18  C4  UNL     1      27.021   4.065  49.130  1.00  0.00     0.030 A 
HETATM   19  C3  UNL     1      27.778   5.033  48.513  1.00  0.00     0.009 A 
HETATM   20  C2  UNL     1      27.418   6.364  48.513  1.00  0.00    -0.062 A 
HETATM   21  C1  UNL     1      28.323   7.307  47.810  1.00  0.00     0.048 C 
HETATM   22  C18 UNL     1      26.252   6.700  49.167  1.00  0.00     0.009 A 
HETATM   23  C17 UNL     1      25.485   5.713  49.793  1.00  0.00     0.030 A 
ENDBRANCH   1  17
TORSDOF 1
ENDMDL
MODEL 7
REMARK VINA RESULT:      -8.5      2.407      4.323
REMARK  1 active torsions:
REMARK  status: ('A' for Active; 'I' for Inactive)
REMARK    1  A    between atoms: C5_5  and  N1_6 
ROOT
HETATM    1  N1  UNL     1      25.244   2.784  51.447  1.00  0.00    -0.332 N 
HETATM    2  C6  UNL     1      26.361   2.305  52.277  1.00  0.00     0.280 C 
HETATM    3  N2  UNL     1      26.052   1.145  53.034  1.00  0.00    -0.263 NA
HETATM    4  C7  UNL     1      26.372   0.888  54.254  1.00  0.00     0.228 C 
HETATM    5  N3  UNL     1      25.831  -0.392  54.547  1.00  0.00    -0.254 NA
HETATM    6  C8  UNL     1      24.710  -0.852  54.193  1.00  0.00     0.120 C 
HETATM    7  C9  UNL     1      23.436  -0.790  53.536  1.00  0.00     0.056 C 
HETATM    8  C10 UNL     1      22.956   0.237  52.862  1.00  0.00     0.075 C 
HETATM    9  C11 UNL     1      23.623   1.517  52.651  1.00  0.00     0.062 C 
HETATM   10  C12 UNL     1      23.977   2.188  51.538  1.00  0.00     0.018 C 
HETATM   11  C13 UNL     1      23.268   2.483  50.269  1.00  0.00     0.083 C 
HETATM   12  C14 UNL     1      21.771   2.178  50.491  1.00  0.00     0.177 C 
HETATM   13  O1  UNL     1      21.614   0.824  50.315  1.00  0.00    -0.361 OA
HETATM   14  C15 UNL     1      20.917   0.171  51.312  1.00  0.00     0.262 C 
HETATM   15  C16 UNL     1      19.751   1.039  51.732  1.00  0.00     0.071 C 
HETATM   16  O2  UNL     1      21.711  -0.197  52.428  1.00  0.00    -0.321 OA
ENDROOT
BRANCH   1  17
HETATM   17  C5  UNL     1      25.556   3.882  50.607  1.00  0.00     0.036 A 
HETATM   18  C4  UNL     1      25.036   5.126  50.373  1.00  0.00     0.030 A 
HETATM   19  C3  UNL     1      25.604   6.000  49.477  1.00  0.00     0.009 A 
HETATM   20  C2  UNL     1      26.736   5.687  48.755  1.00  0.00    -0.062 A 
HETATM   21  C1  UNL     1      27.248   6.721  47.821  1.00  0.00     0.048 C 
HETATM   22  C18 UNL     1      27.290   4.441  48.963  1.00  0.00     0.009 A 
HETATM   23  C17 UNL     1      26.709   3.555  49.874  1.00  0.00     0.030 A 
ENDBRANCH   1  17
TORSDOF 1
ENDMDL
MODEL 8
REMARK VINA RESULT:      -8.4      2.624      6.241
REMARK  1 active torsions:
REMARK  status: ('A' for Active; 'I' for Inactive)
REMARK    1  A    between atoms: C5_5  and  N1_6 
ROOT
HETATM    1  N1  UNL     1      25.514   1.849  51.572  1.00  0.00    -0.332 N 
HETATM    2  C6  UNL     1      26.067   3.020  50.871  1.00  0.00     0.280 C 
HETATM    3  N2  UNL     1      25.077   3.933  50.420  1.00  0.00    -0.263 NA
HETATM    4  C7  UNL     1      25.031   4.558  49.296  1.00  0.00     0.228 C 
HETATM    5  N3  UNL     1      23.852   5.349  49.328  1.00  0.00    -0.254 NA
HETATM    6  C8  UNL     1      22.724   5.027  49.794  1.00  0.00     0.120 C 
HETATM    7  C9  UNL     1      21.793   4.140  50.429  1.00  0.00     0.056 C 
HETATM    8  C10 UNL     1      22.041   2.911  50.839  1.00  0.00     0.075 C 
HETATM    9  C11 UNL     1      23.314   2.207  50.727  1.00  0.00     0.062 C 
HETATM   10  C12 UNL     1      24.128   1.643  51.640  1.00  0.00     0.018 C 
HETATM   11  C13 UNL     1      23.878   0.762  52.807  1.00  0.00     0.083 C 
HETATM   12  C14 UNL     1      22.438   0.220  52.680  1.00  0.00     0.177 C 
HETATM   13  O1  UNL     1      21.606   1.192  53.181  1.00  0.00    -0.361 OA
HETATM   14  C15 UNL     1      20.533   1.527  52.379  1.00  0.00     0.262 C 
HETATM   15  C16 UNL     1      19.970   0.260  51.773  1.00  0.00     0.071 C 
HETATM   16  O2  UNL     1      20.836   2.485  51.378  1.00  0.00    -0.321 OA
ENDROOT
BRANCH   1  17
HETATM   17  C5  UNL     1      26.483   0.971  52.117  1.00  0.00     0.036 A 
HETATM   18  C4  UNL     1      26.665  -0.384  52.181  1.00  0.00     0.030 A 
HETATM   19  C3  UNL     1      27.764  -0.947  52.784  1.00  0.00     0.009 A 
HETATM   20  C2  UNL     1      28.760  -0.189  53.363  1.00  0.00    -0.062 A 
HETATM   21  C1  UNL     1      29.893  -0.923  53.980  1.00  0.00     0.048 C 
HETATM   22  C18 UNL     1      28.613   1.181  53.319  1.00  0.00     0.009 A 
HETATM   23  C17 UNL     1      27.493   1.751  52.706  1.00  0.00     0.030 A 
ENDBRANCH   1  17
TORSDOF 1
ENDMDL
MODEL 9
REMARK VINA RESULT:      -8.4      2.458      5.872
REMARK  1 active torsions:
REMARK  status: ('A' for Active; 'I' for Inactive)
REMARK    1  A    between atoms: C5_5  and  N1_6 
ROOT
HETATM    1  N1  UNL     1      23.361   0.458  52.587  1.00  0.00    -0.332 N 
HETATM    2  C6  UNL     1      23.811  -0.346  53.736  1.00  0.00     0.280 C 
HETATM    3  N2  UNL     1      25.166  -0.116  54.095  1.00  0.00    -0.263 NA
HETATM    4  C7  UNL     1      26.049  -0.985  54.442  1.00  0.00     0.228 C 
HETATM    5  N3  UNL     1      27.242  -0.259  54.701  1.00  0.00    -0.254 NA
HETATM    6  C8  UNL     1      27.700   0.722  54.053  1.00  0.00     0.120 C 
HETATM    7  C9  UNL     1      27.685   1.697  53.001  1.00  0.00     0.056 C 
HETATM    8  C10 UNL     1      26.767   1.816  52.061  1.00  0.00     0.075 C 
HETATM    9  C11 UNL     1      25.584   0.978  51.901  1.00  0.00     0.062 C 
HETATM   10  C12 UNL     1      24.266   1.256  51.872  1.00  0.00     0.018 C 
HETATM   11  C13 UNL     1      23.471   2.304  51.186  1.00  0.00     0.083 C 
HETATM   12  C14 UNL     1      24.376   2.945  50.112  1.00  0.00     0.177 C 
HETATM   13  O1  UNL     1      25.144   3.887  50.754  1.00  0.00    -0.361 OA
HETATM   14  C15 UNL     1      26.498   3.826  50.495  1.00  0.00     0.262 C 
HETATM   15  C16 UNL     1      26.695   3.536  49.023  1.00  0.00     0.071 C 
HETATM   16  O2  UNL     1      27.200   2.893  51.301  1.00  0.00    -0.321 OA
ENDROOT
BRANCH   1  17
HETATM   17  C5  UNL     1      21.987   0.321  52.269  1.00  0.00     0.036 A 
HETATM   18  C4  UNL     1      21.216   0.439  51.145  1.00  0.00     0.030 A 
HETATM   19  C3  UNL     1      19.860   0.211  51.159  1.00  0.00     0.009 A 
HETATM   20  C2  UNL     1      19.184  -0.152  52.305  1.00  0.00    -0.062 A 
HETATM   21  C1  UNL     1      17.720  -0.369  52.183  1.00  0.00     0.048 C 
HETATM   22  C18 UNL     1      19.926  -0.281  53.459  1.00  0.00     0.009 A 
HETATM   23  C17 UNL     1      21.305  -0.048  53.441  1.00  0.00     0.030 A 
ENDBRANCH   1  17
TORSDOF 1
ENDMDL
