MODEL 1
REMARK VINA RESULT:      -7.2      0.000      0.000
REMARK  7 active torsions:
REMARK  status: ('A' for Active; 'I' for Inactive)
REMARK    1  A    between atoms: S1_2  and  C2_5 
REMARK    2  A    between atoms: C2_5  and  C3_6 
REMARK    3  A    between atoms: C3_6  and  N1_7 
REMARK    4  A    between atoms: C12_17  and  N2_18 
REMARK    5  A    between atoms: N2_18  and  C13_19 
REMARK    6  A    between atoms: C13_19  and  C14_20 
REMARK    7  A    between atoms: C15_21  and  C16_22 
ROOT
HETATM    1  N1  UNL     1      24.220   2.290  52.179  1.00  0.00    -0.371 N 
HETATM    2  C4  UNL     1      24.400   3.566  52.938  1.00  0.00     0.188 C 
HETATM    3  C5  UNL     1      23.288   4.489  52.652  1.00  0.00     0.071 A 
HETATM    4  C6  UNL     1      22.256   5.340  52.423  1.00  0.00     0.044 A 
HETATM    5  C7  UNL     1      22.037   5.622  51.134  1.00  0.00    -0.025 A 
HETATM    6  C8  UNL     1      23.042   4.890  50.477  1.00  0.00     0.063 A 
HETATM    7  O3  UNL     1      23.544   4.397  51.448  1.00  0.00    -0.317 OA
HETATM    8  C9  UNL     1      23.903   4.312  49.384  1.00  0.00     0.095 C 
HETATM    9  C10 UNL     1      24.070   2.845  49.503  1.00  0.00     0.013 C 
HETATM   10  C11 UNL     1      23.849   2.317  50.742  1.00  0.00     0.073 C 
HETATM   11  C12 UNL     1      22.680   1.394  50.542  1.00  0.00     0.151 C 
HETATM   12  N3  UNL     1      21.802   1.050  49.734  1.00  0.00    -0.223 NA
HETATM   13  C17 UNL     1      21.430   1.416  48.448  1.00  0.00     0.229 C 
HETATM   14  N4  UNL     1      20.927   2.626  48.162  1.00  0.00    -0.282 NA
HETATM   15  C18 UNL     1      20.795   3.547  49.282  1.00  0.00     0.094 C 
HETATM   16  C19 UNL     1      21.357   4.773  48.990  1.00  0.00     0.076 C 
HETATM   17  C20 UNL     1      21.524   6.084  49.799  1.00  0.00     0.048 C 
ENDROOT
BRANCH  11  18
HETATM   18  N2  UNL     1      22.311   0.682  51.779  1.00  0.00    -0.369 N 
HETATM   19  H14 UNL     1      23.119   0.531  52.517  1.00  0.00     0.161 HD
BRANCH  18  20
HETATM   20  C13 UNL     1      20.940   0.256  52.199  1.00  0.00     0.148 C 
BRANCH  20  21
HETATM   21  C14 UNL     1      20.732   0.574  53.633  1.00  0.00    -0.010 C 
HETATM   22  C15 UNL     1      21.088  -0.244  54.617  1.00  0.00    -0.014 C 
BRANCH  22  23
HETATM   23  C16 UNL     1      21.718  -1.560  54.656  1.00  0.00     0.141 C 
HETATM   24 CL1  UNL     1      23.245  -1.403  55.595  1.00  0.00    -0.126 Cl
ENDBRANCH  22  23
ENDBRANCH  20  21
ENDBRANCH  18  20
ENDBRANCH  11  18
BRANCH   1  25
HETATM   25  C3  UNL     1      24.254   0.908  52.455  1.00  0.00     0.138 C 
BRANCH  25  26
HETATM   26  C2  UNL     1      25.790   0.661  52.224  1.00  0.00     0.159 C 
BRANCH  26  27
HETATM   27  S1  UNL     1      26.624   0.177  53.679  1.00  0.00     0.142 S 
HETATM   28  C1  UNL     1      28.407   0.162  53.403  1.00  0.00     0.161 C 
HETATM   29  O1  UNL     1      26.401   1.107  54.829  1.00  0.00    -0.228 OA
HETATM   30  O2  UNL     1      26.342  -1.218  54.153  1.00  0.00    -0.228 OA
ENDBRANCH  26  27
ENDBRANCH  25  26
ENDBRANCH   1  25
TORSDOF 7
ENDMDL
MODEL 2
REMARK VINA RESULT:      -7.2      2.583      4.579
REMARK  7 active torsions:
REMARK  status: ('A' for Active; 'I' for Inactive)
REMARK    1  A    between atoms: S1_2  and  C2_5 
REMARK    2  A    between atoms: C2_5  and  C3_6 
REMARK    3  A    between atoms: C3_6  and  N1_7 
REMARK    4  A    between atoms: C12_17  and  N2_18 
REMARK    5  A    between atoms: N2_18  and  C13_19 
REMARK    6  A    between atoms: C13_19  and  C14_20 
REMARK    7  A    between atoms: C15_21  and  C16_22 
ROOT
HETATM    1  N1  UNL     1      21.989   1.364  51.434  1.00  0.00    -0.371 N 
HETATM    2  C4  UNL     1      21.405   0.635  50.266  1.00  0.00     0.188 C 
HETATM    3  C5  UNL     1      21.860   1.247  49.006  1.00  0.00     0.071 A 
HETATM    4  C6  UNL     1      22.292   1.779  47.835  1.00  0.00     0.044 A 
HETATM    5  C7  UNL     1      22.062   3.090  47.696  1.00  0.00    -0.025 A 
HETATM    6  C8  UNL     1      21.401   3.422  48.891  1.00  0.00     0.063 A 
HETATM    7  O3  UNL     1      21.418   2.332  49.393  1.00  0.00    -0.317 OA
HETATM    8  C9  UNL     1      20.693   4.218  49.957  1.00  0.00     0.095 C 
HETATM    9  C10 UNL     1      21.265   4.001  51.306  1.00  0.00     0.013 C 
HETATM   10  C11 UNL     1      21.976   2.848  51.476  1.00  0.00     0.073 C 
HETATM   11  C12 UNL     1      23.364   3.321  51.805  1.00  0.00     0.151 C 
HETATM   12  N3  UNL     1      24.097   4.322  51.850  1.00  0.00    -0.223 NA
HETATM   13  C17 UNL     1      23.958   5.674  51.568  1.00  0.00     0.229 C 
HETATM   14  N4  UNL     1      23.758   6.132  50.323  1.00  0.00    -0.282 NA
HETATM   15  C18 UNL     1      23.687   5.126  49.273  1.00  0.00     0.094 C 
HETATM   16  C19 UNL     1      22.567   5.303  48.487  1.00  0.00     0.076 C 
HETATM   17  C20 UNL     1      21.989   4.530  47.274  1.00  0.00     0.048 C 
ENDROOT
BRANCH  11  18
HETATM   18  N2  UNL     1      24.287   2.203  52.072  1.00  0.00    -0.369 N 
HETATM   19  H14 UNL     1      23.842   1.192  52.085  1.00  0.00     0.161 HD
BRANCH  18  20
HETATM   20  C13 UNL     1      25.776   2.274  52.201  1.00  0.00     0.148 C 
BRANCH  20  21
HETATM   21  C14 UNL     1      26.386   1.034  51.665  1.00  0.00    -0.010 C 
HETATM   22  C15 UNL     1      26.426  -0.108  52.342  1.00  0.00    -0.014 C 
BRANCH  22  23
HETATM   23  C16 UNL     1      25.958  -0.512  53.664  1.00  0.00     0.141 C 
HETATM   24 CL1  UNL     1      27.055   0.232  54.881  1.00  0.00    -0.126 Cl
ENDBRANCH  22  23
ENDBRANCH  20  21
ENDBRANCH  18  20
ENDBRANCH  11  18
BRANCH   1  25
HETATM   25  C3  UNL     1      22.669   1.036  52.625  1.00  0.00     0.138 C 
BRANCH  25  26
HETATM   26  C2  UNL     1      22.158  -0.443  52.785  1.00  0.00     0.159 C 
BRANCH  26  27
HETATM   27  S1  UNL     1      20.985  -0.617  54.067  1.00  0.00     0.142 S 
HETATM   28  C1  UNL     1      19.341  -0.890  53.377  1.00  0.00     0.161 C 
HETATM   29  O1  UNL     1      21.249  -1.789  54.957  1.00  0.00    -0.228 OA
HETATM   30  O2  UNL     1      20.793   0.589  54.937  1.00  0.00    -0.228 OA
ENDBRANCH  26  27
ENDBRANCH  25  26
ENDBRANCH   1  25
TORSDOF 7
ENDMDL
MODEL 3
REMARK VINA RESULT:      -7.1      3.513      5.635
REMARK  7 active torsions:
REMARK  status: ('A' for Active; 'I' for Inactive)
REMARK    1  A    between atoms: S1_2  and  C2_5 
REMARK    2  A    between atoms: C2_5  and  C3_6 
REMARK    3  A    between atoms: C3_6  and  N1_7 
REMARK    4  A    between atoms: C12_17  and  N2_18 
REMARK    5  A    between atoms: N2_18  and  C13_19 
REMARK    6  A    between atoms: C13_19  and  C14_20 
REMARK    7  A    between atoms: C15_21  and  C16_22 
ROOT
HETATM    1  N1  UNL     1      24.737   2.793  51.574  1.00  0.00    -0.371 N 
HETATM    2  C4  UNL     1      23.947   1.570  51.233  1.00  0.00     0.188 C 
HETATM    3  C5  UNL     1      22.877   1.906  50.279  1.00  0.00     0.071 A 
HETATM    4  C6  UNL     1      21.904   2.191  49.377  1.00  0.00     0.044 A 
HETATM    5  C7  UNL     1      21.067   3.168  49.746  1.00  0.00    -0.025 A 
HETATM    6  C8  UNL     1      21.545   3.528  51.018  1.00  0.00     0.063 A 
HETATM    7  O3  UNL     1      22.463   2.758  51.070  1.00  0.00    -0.317 OA
HETATM    8  C9  UNL     1      21.679   4.225  52.347  1.00  0.00     0.095 C 
HETATM    9  C10 UNL     1      23.060   4.691  52.611  1.00  0.00     0.013 C 
HETATM   10  C11 UNL     1      24.048   4.064  51.906  1.00  0.00     0.073 C 
HETATM   11  C12 UNL     1      24.657   5.160  51.079  1.00  0.00     0.151 C 
HETATM   12  N3  UNL     1      24.517   6.340  50.719  1.00  0.00    -0.223 NA
HETATM   13  C17 UNL     1      23.589   7.348  50.942  1.00  0.00     0.229 C 
HETATM   14  N4  UNL     1      22.329   7.278  50.489  1.00  0.00    -0.282 NA
HETATM   15  C18 UNL     1      21.979   6.073  49.749  1.00  0.00     0.094 C 
HETATM   16  C19 UNL     1      20.818   5.508  50.235  1.00  0.00     0.076 C 
HETATM   17  C20 UNL     1      20.016   4.237  49.856  1.00  0.00     0.048 C 
ENDROOT
BRANCH  11  18
HETATM   18  N2  UNL     1      25.792   4.682  50.267  1.00  0.00    -0.369 N 
HETATM   19  H14 UNL     1      26.239   3.719  50.569  1.00  0.00     0.161 HD
BRANCH  18  20
HETATM   20  C13 UNL     1      26.320   5.294  49.008  1.00  0.00     0.148 C 
BRANCH  20  21
HETATM   21  C14 UNL     1      27.647   4.715  48.687  1.00  0.00    -0.010 C 
HETATM   22  C15 UNL     1      28.676   5.445  48.271  1.00  0.00    -0.014 C 
BRANCH  22  23
HETATM   23  C16 UNL     1      28.863   6.869  48.012  1.00  0.00     0.141 C 
HETATM   24 CL1  UNL     1      30.447   7.347  48.719  1.00  0.00    -0.126 Cl
ENDBRANCH  22  23
ENDBRANCH  20  21
ENDBRANCH  18  20
ENDBRANCH  11  18
BRANCH   1  25
HETATM   25  C3  UNL     1      26.097   3.162  51.639  1.00  0.00     0.138 C 
BRANCH  25  26
HETATM   26  C2  UNL     1      26.709   1.747  51.946  1.00  0.00     0.159 C 
BRANCH  26  27
HETATM   27  S1  UNL     1      27.354   1.627  53.565  1.00  0.00     0.142 S 
HETATM   28  C1  UNL     1      28.274   0.087  53.758  1.00  0.00     0.161 C 
HETATM   29  O1  UNL     1      28.319   2.719  53.902  1.00  0.00    -0.228 OA
HETATM   30  O2  UNL     1      26.337   1.555  54.663  1.00  0.00    -0.228 OA
ENDBRANCH  26  27
ENDBRANCH  25  26
ENDBRANCH   1  25
TORSDOF 7
ENDMDL
MODEL 4
REMARK VINA RESULT:      -6.9      1.101      1.295
REMARK  7 active torsions:
REMARK  status: ('A' for Active; 'I' for Inactive)
REMARK    1  A    between atoms: S1_2  and  C2_5 
REMARK    2  A    between atoms: C2_5  and  C3_6 
REMARK    3  A    between atoms: C3_6  and  N1_7 
REMARK    4  A    between atoms: C12_17  and  N2_18 
REMARK    5  A    between atoms: N2_18  and  C13_19 
REMARK    6  A    between atoms: C13_19  and  C14_20 
REMARK    7  A    between atoms: C15_21  and  C16_22 
ROOT
HETATM    1  N1  UNL     1      23.801   3.385  52.001  1.00  0.00    -0.371 N 
HETATM    2  C4  UNL     1      23.658   4.763  52.562  1.00  0.00     0.188 C 
HETATM    3  C5  UNL     1      22.594   5.494  51.853  1.00  0.00     0.071 A 
HETATM    4  C6  UNL     1      21.598   6.172  51.230  1.00  0.00     0.044 A 
HETATM    5  C7  UNL     1      21.718   6.249  49.900  1.00  0.00    -0.025 A 
HETATM    6  C8  UNL     1      22.922   5.566  49.653  1.00  0.00     0.063 A 
HETATM    7  O3  UNL     1      23.178   5.274  50.787  1.00  0.00    -0.317 OA
HETATM    8  C9  UNL     1      24.095   4.959  48.928  1.00  0.00     0.095 C 
HETATM    9  C10 UNL     1      24.345   3.553  49.323  1.00  0.00     0.013 C 
HETATM   10  C11 UNL     1      23.837   3.172  50.532  1.00  0.00     0.073 C 
HETATM   11  C12 UNL     1      22.849   2.093  50.189  1.00  0.00     0.151 C 
HETATM   12  N3  UNL     1      22.258   1.538  49.249  1.00  0.00    -0.223 NA
HETATM   13  C17 UNL     1      22.224   1.680  47.868  1.00  0.00     0.229 C 
HETATM   14  N4  UNL     1      21.719   2.768  47.269  1.00  0.00    -0.282 NA
HETATM   15  C18 UNL     1      21.209   3.808  48.152  1.00  0.00     0.094 C 
HETATM   16  C19 UNL     1      21.726   5.043  47.821  1.00  0.00     0.076 C 
HETATM   17  C20 UNL     1      21.554   6.462  48.421  1.00  0.00     0.048 C 
ENDROOT
BRANCH  11  18
HETATM   18  N2  UNL     1      22.215   1.513  51.387  1.00  0.00    -0.369 N 
HETATM   19  H14 UNL     1      22.383   2.049  52.338  1.00  0.00     0.161 HD
BRANCH  18  20
HETATM   20  C13 UNL     1      21.269   0.355  51.436  1.00  0.00     0.148 C 
BRANCH  20  21
HETATM   21  C14 UNL     1      20.207   0.616  52.437  1.00  0.00    -0.010 C 
HETATM   22  C15 UNL     1      20.375   0.422  53.740  1.00  0.00    -0.014 C 
BRANCH  22  23
HETATM   23  C16 UNL     1      21.491  -0.047  54.555  1.00  0.00     0.141 C 
HETATM   24 CL1  UNL     1      21.529  -1.842  54.444  1.00  0.00    -0.126 Cl
ENDBRANCH  22  23
ENDBRANCH  20  21
ENDBRANCH  18  20
ENDBRANCH  11  18
BRANCH   1  25
HETATM   25  C3  UNL     1      23.873   2.067  52.497  1.00  0.00     0.138 C 
BRANCH  25  26
HETATM   26  C2  UNL     1      25.136   2.233  53.418  1.00  0.00     0.159 C 
BRANCH  26  27
HETATM   27  S1  UNL     1      25.905   0.711  53.793  1.00  0.00     0.142 S 
HETATM   28  C1  UNL     1      26.806   0.094  52.357  1.00  0.00     0.161 C 
HETATM   29  O1  UNL     1      26.914   0.810  54.892  1.00  0.00    -0.228 OA
HETATM   30  O2  UNL     1      24.976  -0.420  54.122  1.00  0.00    -0.228 OA
ENDBRANCH  26  27
ENDBRANCH  25  26
ENDBRANCH   1  25
TORSDOF 7
ENDMDL
MODEL 5
REMARK VINA RESULT:      -6.9      3.127      6.063
REMARK  7 active torsions:
REMARK  status: ('A' for Active; 'I' for Inactive)
REMARK    1  A    between atoms: S1_2  and  C2_5 
REMARK    2  A    between atoms: C2_5  and  C3_6 
REMARK    3  A    between atoms: C3_6  and  N1_7 
REMARK    4  A    between atoms: C12_17  and  N2_18 
REMARK    5  A    between atoms: N2_18  and  C13_19 
REMARK    6  A    between atoms: C13_19  and  C14_20 
REMARK    7  A    between atoms: C15_21  and  C16_22 
ROOT
HETATM    1  N1  UNL     1      25.369   3.668  50.399  1.00  0.00    -0.371 N 
HETATM    2  C4  UNL     1      26.720   3.105  50.705  1.00  0.00     0.188 C 
HETATM    3  C5  UNL     1      26.595   1.728  51.211  1.00  0.00     0.071 A 
HETATM    4  C6  UNL     1      26.501   0.448  51.651  1.00  0.00     0.044 A 
HETATM    5  C7  UNL     1      25.703   0.276  52.711  1.00  0.00    -0.025 A 
HETATM    6  C8  UNL     1      25.258   1.581  52.984  1.00  0.00     0.063 A 
HETATM    7  O3  UNL     1      25.838   2.139  52.095  1.00  0.00    -0.317 OA
HETATM    8  C9  UNL     1      24.548   2.740  53.635  1.00  0.00     0.095 C 
HETATM    9  C10 UNL     1      23.826   3.589  52.659  1.00  0.00     0.013 C 
HETATM   10  C11 UNL     1      24.253   3.507  51.365  1.00  0.00     0.073 C 
HETATM   11  C12 UNL     1      23.061   2.975  50.621  1.00  0.00     0.151 C 
HETATM   12  N3  UNL     1      21.929   2.483  50.761  1.00  0.00    -0.223 NA
HETATM   13  C17 UNL     1      21.118   2.138  51.833  1.00  0.00     0.229 C 
HETATM   14  N4  UNL     1      21.427   1.145  52.679  1.00  0.00    -0.282 NA
HETATM   15  C18 UNL     1      22.677   0.444  52.416  1.00  0.00     0.094 C 
HETATM   16  C19 UNL     1      23.453   0.364  53.553  1.00  0.00     0.076 C 
HETATM   17  C20 UNL     1      24.854  -0.233  53.842  1.00  0.00     0.048 C 
ENDROOT
BRANCH  11  18
HETATM   18  N2  UNL     1      23.312   2.856  49.172  1.00  0.00    -0.369 N 
HETATM   19  H14 UNL     1      24.291   3.220  48.814  1.00  0.00     0.161 HD
BRANCH  18  20
HETATM   20  C13 UNL     1      22.442   2.183  48.158  1.00  0.00     0.148 C 
BRANCH  20  21
HETATM   21  C14 UNL     1      22.133   3.125  47.057  1.00  0.00    -0.010 C 
HETATM   22  C15 UNL     1      21.241   4.103  47.167  1.00  0.00    -0.014 C 
BRANCH  22  23
HETATM   23  C16 UNL     1      20.363   4.551  48.244  1.00  0.00     0.141 C 
HETATM   24 CL1  UNL     1      21.262   5.780  49.203  1.00  0.00    -0.126 Cl
ENDBRANCH  22  23
ENDBRANCH  20  21
ENDBRANCH  18  20
ENDBRANCH  11  18
BRANCH   1  25
HETATM   25  C3  UNL     1      24.746   4.341  49.329  1.00  0.00     0.138 C 
BRANCH  25  26
HETATM   26  C2  UNL     1      25.763   5.531  49.178  1.00  0.00     0.159 C 
BRANCH  26  27
HETATM   27  S1  UNL     1      25.141   7.036  49.810  1.00  0.00     0.142 S 
HETATM   28  C1  UNL     1      26.481   8.225  50.024  1.00  0.00     0.161 C 
HETATM   29  O1  UNL     1      24.155   7.698  48.902  1.00  0.00    -0.228 OA
HETATM   30  O2  UNL     1      24.531   6.961  51.177  1.00  0.00    -0.228 OA
ENDBRANCH  26  27
ENDBRANCH  25  26
ENDBRANCH   1  25
TORSDOF 7
ENDMDL
MODEL 6
REMARK VINA RESULT:      -6.7      3.255      5.399
REMARK  7 active torsions:
REMARK  status: ('A' for Active; 'I' for Inactive)
REMARK    1  A    between atoms: S1_2  and  C2_5 
REMARK    2  A    between atoms: C2_5  and  C3_6 
REMARK    3  A    between atoms: C3_6  and  N1_7 
REMARK    4  A    between atoms: C12_17  and  N2_18 
REMARK    5  A    between atoms: N2_18  and  C13_19 
REMARK    6  A    between atoms: C13_19  and  C14_20 
REMARK    7  A    between atoms: C15_21  and  C16_22 
ROOT
HETATM    1  N1  UNL     1      23.354   2.882  51.341  1.00  0.00    -0.371 N 
HETATM    2  C4  UNL     1      22.994   1.677  50.532  1.00  0.00     0.188 C 
HETATM    3  C5  UNL     1      22.524   2.082  49.196  1.00  0.00     0.071 A 
HETATM    4  C6  UNL     1      22.115   2.437  47.952  1.00  0.00     0.044 A 
HETATM    5  C7  UNL     1      21.100   3.307  47.921  1.00  0.00    -0.025 A 
HETATM    6  C8  UNL     1      20.822   3.515  49.283  1.00  0.00     0.063 A 
HETATM    7  O3  UNL     1      21.670   2.795  49.732  1.00  0.00    -0.317 OA
HETATM    8  C9  UNL     1      20.182   4.029  50.547  1.00  0.00     0.095 C 
HETATM    9  C10 UNL     1      21.175   4.528  51.527  1.00  0.00     0.013 C 
HETATM   10  C11 UNL     1      22.448   4.057  51.381  1.00  0.00     0.073 C 
HETATM   11  C12 UNL     1      23.261   5.287  51.091  1.00  0.00     0.151 C 
HETATM   12  N3  UNL     1      23.186   6.496  50.818  1.00  0.00    -0.223 NA
HETATM   13  C17 UNL     1      22.163   7.412  50.619  1.00  0.00     0.229 C 
HETATM   14  N4  UNL     1      21.323   7.338  49.576  1.00  0.00    -0.282 NA
HETATM   15  C18 UNL     1      21.539   6.229  48.656  1.00  0.00     0.094 C 
HETATM   16  C19 UNL     1      20.367   5.542  48.420  1.00  0.00     0.076 C 
HETATM   17  C20 UNL     1      20.022   4.294  47.567  1.00  0.00     0.048 C 
ENDROOT
BRANCH  11  18
HETATM   18  N2  UNL     1      24.697   4.986  50.943  1.00  0.00    -0.369 N 
HETATM   19  H14 UNL     1      25.093   4.167  51.569  1.00  0.00     0.161 HD
BRANCH  18  20
HETATM   20  C13 UNL     1      25.645   5.581  49.950  1.00  0.00     0.148 C 
BRANCH  20  21
HETATM   21  C14 UNL     1      26.463   4.510  49.333  1.00  0.00    -0.010 C 
HETATM   22  C15 UNL     1      27.573   4.750  48.643  1.00  0.00    -0.014 C 
BRANCH  22  23
HETATM   23  C16 UNL     1      28.295   5.967  48.286  1.00  0.00     0.141 C 
HETATM   24 CL1  UNL     1      30.029   5.533  48.086  1.00  0.00    -0.126 Cl
ENDBRANCH  22  23
ENDBRANCH  20  21
ENDBRANCH  18  20
ENDBRANCH  11  18
BRANCH   1  25
HETATM   25  C3  UNL     1      24.440   3.311  52.131  1.00  0.00     0.138 C 
BRANCH  25  26
HETATM   26  C2  UNL     1      24.484   2.106  53.141  1.00  0.00     0.159 C 
BRANCH  26  27
HETATM   27  S1  UNL     1      26.096   1.478  53.373  1.00  0.00     0.142 S 
HETATM   28  C1  UNL     1      26.046  -0.015  54.386  1.00  0.00     0.161 C 
HETATM   29  O1  UNL     1      26.768   1.079  52.098  1.00  0.00    -0.228 OA
HETATM   30  O2  UNL     1      27.036   2.370  54.129  1.00  0.00    -0.228 OA
ENDBRANCH  26  27
ENDBRANCH  25  26
ENDBRANCH   1  25
TORSDOF 7
ENDMDL
MODEL 7
REMARK VINA RESULT:      -6.7      2.013      2.467
REMARK  7 active torsions:
REMARK  status: ('A' for Active; 'I' for Inactive)
REMARK    1  A    between atoms: S1_2  and  C2_5 
REMARK    2  A    between atoms: C2_5  and  C3_6 
REMARK    3  A    between atoms: C3_6  and  N1_7 
REMARK    4  A    between atoms: C12_17  and  N2_18 
REMARK    5  A    between atoms: N2_18  and  C13_19 
REMARK    6  A    between atoms: C13_19  and  C14_20 
REMARK    7  A    between atoms: C15_21  and  C16_22 
ROOT
HETATM    1  N1  UNL     1      24.109   2.308  52.146  1.00  0.00    -0.371 N 
HETATM    2  C4  UNL     1      24.286   3.556  52.951  1.00  0.00     0.188 C 
HETATM    3  C5  UNL     1      23.268   4.552  52.576  1.00  0.00     0.071 A 
HETATM    4  C6  UNL     1      22.320   5.470  52.264  1.00  0.00     0.044 A 
HETATM    5  C7  UNL     1      22.253   5.789  50.966  1.00  0.00    -0.025 A 
HETATM    6  C8  UNL     1      23.274   5.008  50.397  1.00  0.00     0.063 A 
HETATM    7  O3  UNL     1      23.642   4.466  51.402  1.00  0.00    -0.317 OA
HETATM    8  C9  UNL     1      24.208   4.398  49.384  1.00  0.00     0.095 C 
HETATM    9  C10 UNL     1      24.272   2.921  49.483  1.00  0.00     0.013 C 
HETATM   10  C11 UNL     1      23.891   2.385  50.680  1.00  0.00     0.073 C 
HETATM   11  C12 UNL     1      22.696   1.541  50.338  1.00  0.00     0.151 C 
HETATM   12  N3  UNL     1      21.887   1.268  49.436  1.00  0.00    -0.223 NA
HETATM   13  C17 UNL     1      21.674   1.681  48.128  1.00  0.00     0.229 C 
HETATM   14  N4  UNL     1      21.277   2.925  47.822  1.00  0.00    -0.282 NA
HETATM   15  C18 UNL     1      21.086   3.832  48.946  1.00  0.00     0.094 C 
HETATM   16  C19 UNL     1      21.749   5.024  48.743  1.00  0.00     0.076 C 
HETATM   17  C20 UNL     1      21.910   6.308  49.598  1.00  0.00     0.048 C 
ENDROOT
BRANCH  11  18
HETATM   18  N2  UNL     1      22.158   0.831  51.513  1.00  0.00    -0.369 N 
HETATM   19  H14 UNL     1      22.889   0.277  52.128  1.00  0.00     0.161 HD
BRANCH  18  20
HETATM   20  C13 UNL     1      20.756   0.883  52.034  1.00  0.00     0.148 C 
BRANCH  20  21
HETATM   21  C14 UNL     1      20.456   2.247  52.532  1.00  0.00    -0.010 C 
HETATM   22  C15 UNL     1      19.421   2.963  52.107  1.00  0.00    -0.014 C 
BRANCH  22  23
HETATM   23  C16 UNL     1      18.355   2.720  51.141  1.00  0.00     0.141 C 
HETATM   24 CL1  UNL     1      16.895   3.608  51.706  1.00  0.00    -0.126 Cl
ENDBRANCH  22  23
ENDBRANCH  20  21
ENDBRANCH  18  20
ENDBRANCH  11  18
BRANCH   1  25
HETATM   25  C3  UNL     1      24.031   0.922  52.390  1.00  0.00     0.138 C 
BRANCH  25  26
HETATM   26  C2  UNL     1      25.569   0.595  52.382  1.00  0.00     0.159 C 
BRANCH  26  27
HETATM   27  S1  UNL     1      26.154   0.059  53.938  1.00  0.00     0.142 S 
HETATM   28  C1  UNL     1      24.858  -0.834  54.820  1.00  0.00     0.161 C 
HETATM   29  O1  UNL     1      27.306  -0.889  53.844  1.00  0.00    -0.228 OA
HETATM   30  O2  UNL     1      26.530   1.148  54.898  1.00  0.00    -0.228 OA
ENDBRANCH  26  27
ENDBRANCH  25  26
ENDBRANCH   1  25
TORSDOF 7
ENDMDL
MODEL 8
REMARK VINA RESULT:      -6.3      3.659      6.527
REMARK  7 active torsions:
REMARK  status: ('A' for Active; 'I' for Inactive)
REMARK    1  A    between atoms: S1_2  and  C2_5 
REMARK    2  A    between atoms: C2_5  and  C3_6 
REMARK    3  A    between atoms: C3_6  and  N1_7 
REMARK    4  A    between atoms: C12_17  and  N2_18 
REMARK    5  A    between atoms: N2_18  and  C13_19 
REMARK    6  A    between atoms: C13_19  and  C14_20 
REMARK    7  A    between atoms: C15_21  and  C16_22 
ROOT
HETATM    1  N1  UNL     1      22.571   5.304  51.500  1.00  0.00    -0.371 N 
HETATM    2  C4  UNL     1      23.311   4.985  52.759  1.00  0.00     0.188 C 
HETATM    3  C5  UNL     1      23.683   3.560  52.783  1.00  0.00     0.071 A 
HETATM    4  C6  UNL     1      24.059   2.256  52.808  1.00  0.00     0.044 A 
HETATM    5  C7  UNL     1      23.060   1.381  52.650  1.00  0.00    -0.025 A 
HETATM    6  C8  UNL     1      21.931   2.211  52.530  1.00  0.00     0.063 A 
HETATM    7  O3  UNL     1      22.495   3.265  52.624  1.00  0.00    -0.317 OA
HETATM    8  C9  UNL     1      20.503   2.662  52.363  1.00  0.00     0.095 C 
HETATM    9  C10 UNL     1      20.353   3.710  51.327  1.00  0.00     0.013 C 
HETATM   10  C11 UNL     1      21.481   4.417  51.024  1.00  0.00     0.073 C 
HETATM   11  C12 UNL     1      21.729   4.103  49.576  1.00  0.00     0.151 C 
HETATM   12  N3  UNL     1      21.381   3.372  48.635  1.00  0.00    -0.223 NA
HETATM   13  C17 UNL     1      20.465   2.345  48.455  1.00  0.00     0.229 C 
HETATM   14  N4  UNL     1      20.591   1.154  49.060  1.00  0.00    -0.282 NA
HETATM   15  C18 UNL     1      21.750   0.996  49.929  1.00  0.00     0.094 C 
HETATM   16  C19 UNL     1      21.383   0.508  51.165  1.00  0.00     0.076 C 
HETATM   17  C20 UNL     1      22.177   0.180  52.455  1.00  0.00     0.048 C 
ENDROOT
BRANCH  11  18
HETATM   18  N2  UNL     1      22.902   4.821  49.041  1.00  0.00    -0.369 N 
HETATM   19  H14 UNL     1      22.918   5.915  49.193  1.00  0.00     0.161 HD
BRANCH  18  20
HETATM   20  C13 UNL     1      24.126   4.218  48.429  1.00  0.00     0.148 C 
BRANCH  20  21
HETATM   21  C14 UNL     1      24.957   3.589  49.484  1.00  0.00    -0.010 C 
HETATM   22  C15 UNL     1      26.264   3.793  49.597  1.00  0.00    -0.014 C 
BRANCH  22  23
HETATM   23  C16 UNL     1      27.229   4.590  48.845  1.00  0.00     0.141 C 
HETATM   24 CL1  UNL     1      26.737   6.315  48.984  1.00  0.00    -0.126 Cl
ENDBRANCH  22  23
ENDBRANCH  20  21
ENDBRANCH  18  20
ENDBRANCH  11  18
BRANCH   1  25
HETATM   25  C3  UNL     1      22.631   6.280  50.484  1.00  0.00     0.138 C 
BRANCH  25  26
HETATM   26  C2  UNL     1      21.560   7.279  51.057  1.00  0.00     0.159 C 
BRANCH  26  27
HETATM   27  S1  UNL     1      20.440   7.841  49.840  1.00  0.00     0.142 S 
HETATM   28  C1  UNL     1      21.313   8.198  48.303  1.00  0.00     0.161 C 
HETATM   29  O1  UNL     1      19.394   6.833  49.486  1.00  0.00    -0.228 OA
HETATM   30  O2  UNL     1      19.748   9.135  50.147  1.00  0.00    -0.228 OA
ENDBRANCH  26  27
ENDBRANCH  25  26
ENDBRANCH   1  25
TORSDOF 7
ENDMDL
MODEL 9
REMARK VINA RESULT:      -6.3     10.593     13.093
REMARK  7 active torsions:
REMARK  status: ('A' for Active; 'I' for Inactive)
REMARK    1  A    between atoms: S1_2  and  C2_5 
REMARK    2  A    between atoms: C2_5  and  C3_6 
REMARK    3  A    between atoms: C3_6  and  N1_7 
REMARK    4  A    between atoms: C12_17  and  N2_18 
REMARK    5  A    between atoms: N2_18  and  C13_19 
REMARK    6  A    between atoms: C13_19  and  C14_20 
REMARK    7  A    between atoms: C15_21  and  C16_22 
ROOT
HETATM    1  N1  UNL     1      33.910   8.392  45.856  1.00  0.00    -0.371 N 
HETATM    2  C4  UNL     1      34.285   7.693  44.588  1.00  0.00     0.188 C 
HETATM    3  C5  UNL     1      33.541   6.428  44.466  1.00  0.00     0.071 A 
HETATM    4  C6  UNL     1      32.844   5.272  44.323  1.00  0.00     0.044 A 
HETATM    5  C7  UNL     1      32.957   4.418  45.347  1.00  0.00    -0.025 A 
HETATM    6  C8  UNL     1      33.829   5.090  46.222  1.00  0.00     0.063 A 
HETATM    7  O3  UNL     1      33.985   6.081  45.565  1.00  0.00    -0.317 OA
HETATM    8  C9  UNL     1      34.689   5.400  47.419  1.00  0.00     0.095 C 
HETATM    9  C10 UNL     1      34.424   6.745  47.981  1.00  0.00     0.013 C 
HETATM   10  C11 UNL     1      33.837   7.641  47.134  1.00  0.00     0.073 C 
HETATM   11  C12 UNL     1      32.520   7.952  47.788  1.00  0.00     0.151 C 
HETATM   12  N3  UNL     1      31.750   7.613  48.701  1.00  0.00    -0.223 NA
HETATM   13  C17 UNL     1      31.742   6.639  49.689  1.00  0.00     0.229 C 
HETATM   14  N4  UNL     1      31.651   5.330  49.409  1.00  0.00    -0.282 NA
HETATM   15  C18 UNL     1      31.567   4.981  47.997  1.00  0.00     0.094 C 
HETATM   16  C19 UNL     1      32.488   4.008  47.668  1.00  0.00     0.076 C 
HETATM   17  C20 UNL     1      32.851   3.295  46.340  1.00  0.00     0.048 C 
ENDROOT
BRANCH  11  18
HETATM   18  N2  UNL     1      31.744   8.954  47.034  1.00  0.00    -0.369 N 
HETATM   19  H14 UNL     1      32.271   9.459  46.205  1.00  0.00     0.161 HD
BRANCH  18  20
HETATM   20  C13 UNL     1      30.290   9.269  47.186  1.00  0.00     0.148 C 
BRANCH  20  21
HETATM   21  C14 UNL     1      29.484   8.319  46.383  1.00  0.00    -0.010 C 
HETATM   22  C15 UNL     1      28.646   7.441  46.922  1.00  0.00    -0.014 C 
BRANCH  22  23
HETATM   23  C16 UNL     1      28.261   7.126  48.294  1.00  0.00     0.141 C 
HETATM   24 CL1  UNL     1      28.030   5.345  48.400  1.00  0.00    -0.126 Cl
ENDBRANCH  22  23
ENDBRANCH  20  21
ENDBRANCH  18  20
ENDBRANCH  11  18
BRANCH   1  25
HETATM   25  C3  UNL     1      33.512   9.688  46.245  1.00  0.00     0.138 C 
BRANCH  25  26
HETATM   26  C2  UNL     1      33.982  10.470  44.965  1.00  0.00     0.159 C 
BRANCH  26  27
HETATM   27  S1  UNL     1      32.650  11.136  44.053  1.00  0.00     0.142 S 
HETATM   28  C1  UNL     1      33.118  11.344  42.323  1.00  0.00     0.161 C 
HETATM   29  O1  UNL     1      31.440  10.258  44.042  1.00  0.00    -0.228 OA
HETATM   30  O2  UNL     1      32.216  12.514  44.455  1.00  0.00    -0.228 OA
ENDBRANCH  26  27
ENDBRANCH  25  26
ENDBRANCH   1  25
TORSDOF 7
ENDMDL
