MODEL 1
REMARK VINA RESULT:      -8.3      0.000      0.000
REMARK  9 active torsions:
REMARK  status: ('A' for Active; 'I' for Inactive)
REMARK    1  A    between atoms: O1_1  and  C1_2 
REMARK    2  A    between atoms: C2_4  and  C3_5 
REMARK    3  A    between atoms: C3_5  and  N1_6 
REMARK    4  A    between atoms: N1_6  and  C4_7 
REMARK    5  A    between atoms: C9_14  and  O2_15 
REMARK    6  A    between atoms: O2_15  and  C10_16 
REMARK    7  A    between atoms: C10_16  and  C11_17 
REMARK    8  A    between atoms: C11_17  and  C12_18 
REMARK    9  A    between atoms: C12_18  and  N4_19 
ROOT
HETATM    1  C4  UNL     1      24.998  -0.300  54.043  1.00  0.00     0.137 A 
HETATM    2  N2  UNL     1      25.238  -0.967  55.177  1.00  0.00    -0.224 NA
HETATM    3  C5  UNL     1      24.295  -1.539  55.932  1.00  0.00     0.235 A 
HETATM    4  N3  UNL     1      23.007  -1.469  55.575  1.00  0.00    -0.241 NA
HETATM    5  C6  UNL     1      22.649  -0.826  54.458  1.00  0.00     0.074 A 
HETATM    6  C7  UNL     1      23.678  -0.257  53.724  1.00  0.00     0.041 A 
HETATM    7  C8  UNL     1      23.627   0.495  52.481  1.00  0.00     0.052 C 
HETATM    8  C9  UNL     1      22.780   1.229  51.753  1.00  0.00     0.071 C 
HETATM    9  C17 UNL     1      21.367   1.574  52.025  1.00  0.00     0.239 C 
HETATM   10  O4  UNL     1      20.572   0.473  52.395  1.00  0.00    -0.357 OA
HETATM   11  C18 UNL     1      20.348  -0.364  53.466  1.00  0.00     0.137 C 
HETATM   12  C19 UNL     1      21.179  -0.917  54.335  1.00  0.00     0.057 C 
ENDROOT
BRANCH   8  13
HETATM   13  O2  UNL     1      23.192   1.775  50.583  1.00  0.00    -0.353 OA
BRANCH  13  14
HETATM   14  C10 UNL     1      22.505   2.035  49.413  1.00  0.00     0.177 C 
BRANCH  14  15
HETATM   15  C11 UNL     1      22.923   3.365  48.774  1.00  0.00     0.046 C 
BRANCH  15  16
HETATM   16  C12 UNL     1      23.867   4.028  49.752  1.00  0.00     0.119 C 
BRANCH  16  17
HETATM   17  N4  UNL     1      25.048   4.568  49.175  1.00  0.00    -0.408 N 
HETATM   18  C13 UNL     1      26.288   4.158  49.741  1.00  0.00     0.143 C 
HETATM   19  C14 UNL     1      27.388   4.634  48.784  1.00  0.00     0.187 C 
HETATM   20  O3  UNL     1      27.340   5.990  48.555  1.00  0.00    -0.388 OA
HETATM   21  C15 UNL     1      26.290   6.624  49.189  1.00  0.00     0.187 C 
HETATM   22  C16 UNL     1      24.956   5.977  48.862  1.00  0.00     0.143 C 
ENDBRANCH  16  17
ENDBRANCH  15  16
ENDBRANCH  14  15
ENDBRANCH  13  14
ENDBRANCH   8  13
BRANCH   1  23
HETATM   23  N1  UNL     1      26.055   0.284  53.308  1.00  0.00    -0.370 N 
HETATM   24  H5  UNL     1      26.646   1.121  53.274  1.00  0.00     0.161 HD
BRANCH  23  25
HETATM   25  C3  UNL     1      26.552  -0.510  52.207  1.00  0.00     0.152 C 
BRANCH  25  26
HETATM   26  C2  UNL     1      26.873  -1.906  52.533  1.00  0.00     0.042 C 
HETATM   27  C1  UNL     1      28.033  -2.306  53.005  1.00  0.00     0.134 C 
HETATM   28 CL1  UNL     1      29.287  -1.118  53.267  1.00  0.00    -0.057 Cl
BRANCH  27  29
HETATM   29  O1  UNL     1      28.589  -3.519  53.386  1.00  0.00    -0.351 OA
HETATM   30  H1  UNL     1      28.989  -3.606  54.316  1.00  0.00     0.218 HD
ENDBRANCH  27  29
ENDBRANCH  25  26
ENDBRANCH  23  25
ENDBRANCH   1  23
TORSDOF 9
ENDMDL
MODEL 2
REMARK VINA RESULT:      -8.1      1.611      1.930
REMARK  9 active torsions:
REMARK  status: ('A' for Active; 'I' for Inactive)
REMARK    1  A    between atoms: O1_1  and  C1_2 
REMARK    2  A    between atoms: C2_4  and  C3_5 
REMARK    3  A    between atoms: C3_5  and  N1_6 
REMARK    4  A    between atoms: N1_6  and  C4_7 
REMARK    5  A    between atoms: C9_14  and  O2_15 
REMARK    6  A    between atoms: O2_15  and  C10_16 
REMARK    7  A    between atoms: C10_16  and  C11_17 
REMARK    8  A    between atoms: C11_17  and  C12_18 
REMARK    9  A    between atoms: C12_18  and  N4_19 
ROOT
HETATM    1  C4  UNL     1      24.738  -0.152  53.568  1.00  0.00     0.137 A 
HETATM    2  N2  UNL     1      25.264  -0.686  54.675  1.00  0.00    -0.224 NA
HETATM    3  C5  UNL     1      24.560  -1.326  55.614  1.00  0.00     0.235 A 
HETATM    4  N3  UNL     1      23.236  -1.469  55.487  1.00  0.00    -0.241 NA
HETATM    5  C6  UNL     1      22.601  -0.974  54.419  1.00  0.00     0.074 A 
HETATM    6  C7  UNL     1      23.393  -0.323  53.486  1.00  0.00     0.041 A 
HETATM    7  C8  UNL     1      23.020   0.313  52.234  1.00  0.00     0.052 C 
HETATM    8  C9  UNL     1      21.960   0.859  51.628  1.00  0.00     0.071 C 
HETATM    9  C17 UNL     1      20.575   1.018  52.128  1.00  0.00     0.239 C 
HETATM   10  O4  UNL     1      20.033  -0.153  52.690  1.00  0.00    -0.357 OA
HETATM   11  C18 UNL     1      20.124  -0.926  53.826  1.00  0.00     0.137 C 
HETATM   12  C19 UNL     1      21.164  -1.284  54.563  1.00  0.00     0.057 C 
ENDROOT
BRANCH   8  13
HETATM   13  O2  UNL     1      22.081   1.364  50.378  1.00  0.00    -0.353 OA
BRANCH  13  14
HETATM   14  C10 UNL     1      22.158   2.669  49.930  1.00  0.00     0.177 C 
BRANCH  14  15
HETATM   15  C11 UNL     1      23.441   2.939  49.136  1.00  0.00     0.046 C 
BRANCH  15  16
HETATM   16  C12 UNL     1      24.539   3.135  50.156  1.00  0.00     0.119 C 
BRANCH  16  17
HETATM   17  N4  UNL     1      25.385   4.254  49.922  1.00  0.00    -0.408 N 
HETATM   18  C13 UNL     1      24.910   5.241  49.012  1.00  0.00     0.143 C 
HETATM   19  C14 UNL     1      25.843   6.451  49.150  1.00  0.00     0.187 C 
HETATM   20  O3  UNL     1      27.163   6.130  48.932  1.00  0.00    -0.388 OA
HETATM   21  C15 UNL     1      27.375   4.788  48.688  1.00  0.00     0.187 C 
HETATM   22  C16 UNL     1      26.782   3.911  49.777  1.00  0.00     0.143 C 
ENDBRANCH  16  17
ENDBRANCH  15  16
ENDBRANCH  14  15
ENDBRANCH  13  14
ENDBRANCH   8  13
BRANCH   1  23
HETATM   23  N1  UNL     1      25.555   0.518  52.628  1.00  0.00    -0.370 N 
HETATM   24  H5  UNL     1      25.502   1.114  51.795  1.00  0.00     0.161 HD
BRANCH  23  25
HETATM   25  C3  UNL     1      26.978   0.384  52.844  1.00  0.00     0.152 C 
BRANCH  25  26
HETATM   26  C2  UNL     1      27.622   1.523  53.511  1.00  0.00     0.042 C 
HETATM   27  C1  UNL     1      28.868   1.524  53.930  1.00  0.00     0.134 C 
HETATM   28 CL1  UNL     1      29.837   0.091  53.687  1.00  0.00    -0.057 Cl
BRANCH  27  29
HETATM   29  O1  UNL     1      29.703   2.429  54.570  1.00  0.00    -0.351 OA
HETATM   30  H1  UNL     1      30.142   3.165  54.023  1.00  0.00     0.218 HD
ENDBRANCH  27  29
ENDBRANCH  25  26
ENDBRANCH  23  25
ENDBRANCH   1  23
TORSDOF 9
ENDMDL
MODEL 3
REMARK VINA RESULT:      -8.0      2.184      2.656
REMARK  9 active torsions:
REMARK  status: ('A' for Active; 'I' for Inactive)
REMARK    1  A    between atoms: O1_1  and  C1_2 
REMARK    2  A    between atoms: C2_4  and  C3_5 
REMARK    3  A    between atoms: C3_5  and  N1_6 
REMARK    4  A    between atoms: N1_6  and  C4_7 
REMARK    5  A    between atoms: C9_14  and  O2_15 
REMARK    6  A    between atoms: O2_15  and  C10_16 
REMARK    7  A    between atoms: C10_16  and  C11_17 
REMARK    8  A    between atoms: C11_17  and  C12_18 
REMARK    9  A    between atoms: C12_18  and  N4_19 
ROOT
HETATM    1  C4  UNL     1      24.700  -0.358  54.228  1.00  0.00     0.137 A 
HETATM    2  N2  UNL     1      24.596  -1.198  55.263  1.00  0.00    -0.224 NA
HETATM    3  C5  UNL     1      23.441  -1.678  55.734  1.00  0.00     0.235 A 
HETATM    4  N3  UNL     1      22.281  -1.326  55.168  1.00  0.00    -0.241 NA
HETATM    5  C6  UNL     1      22.263  -0.490  54.125  1.00  0.00     0.074 A 
HETATM    6  C7  UNL     1      23.496  -0.031  53.689  1.00  0.00     0.041 A 
HETATM    7  C8  UNL     1      23.819   0.870  52.595  1.00  0.00     0.052 C 
HETATM    8  C9  UNL     1      23.265   1.836  51.855  1.00  0.00     0.071 C 
HETATM    9  C17 UNL     1      21.896   2.398  51.922  1.00  0.00     0.239 C 
HETATM   10  O4  UNL     1      20.881   1.425  51.960  1.00  0.00    -0.357 OA
HETATM   11  C18 UNL     1      20.315   0.513  52.824  1.00  0.00     0.137 C 
HETATM   12  C19 UNL     1      20.854  -0.291  53.727  1.00  0.00     0.057 C 
ENDROOT
BRANCH   8  13
HETATM   13  O2  UNL     1      23.986   2.442  50.883  1.00  0.00    -0.353 OA
BRANCH  13  14
HETATM   14  C10 UNL     1      25.339   2.703  50.787  1.00  0.00     0.177 C 
BRANCH  14  15
HETATM   15  C11 UNL     1      25.626   4.088  50.194  1.00  0.00     0.046 C 
BRANCH  15  16
HETATM   16  C12 UNL     1      24.450   4.422  49.304  1.00  0.00     0.119 C 
BRANCH  16  17
HETATM   17  N4  UNL     1      23.732   5.592  49.671  1.00  0.00    -0.408 N 
HETATM   18  C13 UNL     1      24.277   6.379  50.725  1.00  0.00     0.143 C 
HETATM   19  C14 UNL     1      23.500   7.702  50.733  1.00  0.00     0.187 C 
HETATM   20  O3  UNL     1      22.143   7.518  50.864  1.00  0.00    -0.388 OA
HETATM   21  C15 UNL     1      21.764   6.192  50.909  1.00  0.00     0.187 C 
HETATM   22  C16 UNL     1      22.299   5.408  49.724  1.00  0.00     0.143 C 
ENDBRANCH  16  17
ENDBRANCH  15  16
ENDBRANCH  14  15
ENDBRANCH  13  14
ENDBRANCH   8  13
BRANCH   1  23
HETATM   23  N1  UNL     1      25.963   0.111  53.799  1.00  0.00    -0.370 N 
HETATM   24  H5  UNL     1      26.466   0.419  52.960  1.00  0.00     0.161 HD
BRANCH  23  25
HETATM   25  C3  UNL     1      26.955   0.249  54.842  1.00  0.00     0.152 C 
BRANCH  25  26
HETATM   26  C2  UNL     1      28.320  -0.143  54.467  1.00  0.00     0.042 C 
HETATM   27  C1  UNL     1      29.185   0.658  53.888  1.00  0.00     0.134 C 
HETATM   28 CL1  UNL     1      28.702   2.298  53.530  1.00  0.00    -0.057 Cl
BRANCH  27  29
HETATM   29  O1  UNL     1      30.495   0.554  53.440  1.00  0.00    -0.351 OA
HETATM   30  H1  UNL     1      30.794   1.131  52.659  1.00  0.00     0.218 HD
ENDBRANCH  27  29
ENDBRANCH  25  26
ENDBRANCH  23  25
ENDBRANCH   1  23
TORSDOF 9
ENDMDL
MODEL 4
REMARK VINA RESULT:      -7.8      2.263      3.736
REMARK  9 active torsions:
REMARK  status: ('A' for Active; 'I' for Inactive)
REMARK    1  A    between atoms: O1_1  and  C1_2 
REMARK    2  A    between atoms: C2_4  and  C3_5 
REMARK    3  A    between atoms: C3_5  and  N1_6 
REMARK    4  A    between atoms: N1_6  and  C4_7 
REMARK    5  A    between atoms: C9_14  and  O2_15 
REMARK    6  A    between atoms: O2_15  and  C10_16 
REMARK    7  A    between atoms: C10_16  and  C11_17 
REMARK    8  A    between atoms: C11_17  and  C12_18 
REMARK    9  A    between atoms: C12_18  and  N4_19 
ROOT
HETATM    1  C4  UNL     1      23.416   0.009  53.149  1.00  0.00     0.137 A 
HETATM    2  N2  UNL     1      22.784  -1.053  53.660  1.00  0.00    -0.224 NA
HETATM    3  C5  UNL     1      21.459  -1.144  53.811  1.00  0.00     0.235 A 
HETATM    4  N3  UNL     1      20.665  -0.132  53.442  1.00  0.00    -0.241 NA
HETATM    5  C6  UNL     1      21.187   0.981  52.918  1.00  0.00     0.074 A 
HETATM    6  C7  UNL     1      22.567   1.007  52.790  1.00  0.00     0.041 A 
HETATM    7  C8  UNL     1      23.432   2.050  52.264  1.00  0.00     0.052 C 
HETATM    8  C9  UNL     1      23.447   3.370  52.051  1.00  0.00     0.071 C 
HETATM    9  C17 UNL     1      22.396   4.375  52.332  1.00  0.00     0.239 C 
HETATM   10  O4  UNL     1      21.118   4.008  51.873  1.00  0.00    -0.357 OA
HETATM   11  C18 UNL     1      20.081   3.156  52.184  1.00  0.00     0.137 C 
HETATM   12  C19 UNL     1      20.074   1.905  52.616  1.00  0.00     0.057 C 
ENDROOT
BRANCH   8  13
HETATM   13  O2  UNL     1      24.539   3.955  51.504  1.00  0.00    -0.353 OA
BRANCH  13  14
HETATM   14  C10 UNL     1      24.654   4.954  50.558  1.00  0.00     0.177 C 
BRANCH  14  15
HETATM   15  C11 UNL     1      24.663   4.405  49.126  1.00  0.00     0.046 C 
BRANCH  15  16
HETATM   16  C12 UNL     1      23.304   4.718  48.542  1.00  0.00     0.119 C 
BRANCH  16  17
HETATM   17  N4  UNL     1      22.309   3.730  48.771  1.00  0.00    -0.408 N 
HETATM   18  C13 UNL     1      22.666   2.379  48.499  1.00  0.00     0.143 C 
HETATM   19  C14 UNL     1      21.554   1.502  49.087  1.00  0.00     0.187 C 
HETATM   20  O3  UNL     1      20.310   1.824  48.595  1.00  0.00    -0.388 OA
HETATM   21  C15 UNL     1      20.317   2.893  47.721  1.00  0.00     0.187 C 
HETATM   22  C16 UNL     1      20.988   4.115  48.324  1.00  0.00     0.143 C 
ENDBRANCH  16  17
ENDBRANCH  15  16
ENDBRANCH  14  15
ENDBRANCH  13  14
ENDBRANCH   8  13
BRANCH   1  23
HETATM   23  N1  UNL     1      24.825   0.027  53.033  1.00  0.00    -0.370 N 
HETATM   24  H5  UNL     1      25.579   0.349  52.417  1.00  0.00     0.161 HD
BRANCH  23  25
HETATM   25  C3  UNL     1      25.540  -0.589  54.128  1.00  0.00     0.152 C 
BRANCH  25  26
HETATM   26  C2  UNL     1      26.477   0.289  54.841  1.00  0.00     0.042 C 
HETATM   27  C1  UNL     1      27.776   0.299  54.642  1.00  0.00     0.134 C 
HETATM   28 CL1  UNL     1      28.453  -0.794  53.460  1.00  0.00    -0.057 Cl
BRANCH  27  29
HETATM   29  O1  UNL     1      28.858   1.000  55.157  1.00  0.00    -0.351 OA
HETATM   30  H1  UNL     1      29.683   0.484  55.449  1.00  0.00     0.218 HD
ENDBRANCH  27  29
ENDBRANCH  25  26
ENDBRANCH  23  25
ENDBRANCH   1  23
TORSDOF 9
ENDMDL
MODEL 5
REMARK VINA RESULT:      -7.6      1.738      1.969
REMARK  9 active torsions:
REMARK  status: ('A' for Active; 'I' for Inactive)
REMARK    1  A    between atoms: O1_1  and  C1_2 
REMARK    2  A    between atoms: C2_4  and  C3_5 
REMARK    3  A    between atoms: C3_5  and  N1_6 
REMARK    4  A    between atoms: N1_6  and  C4_7 
REMARK    5  A    between atoms: C9_14  and  O2_15 
REMARK    6  A    between atoms: O2_15  and  C10_16 
REMARK    7  A    between atoms: C10_16  and  C11_17 
REMARK    8  A    between atoms: C11_17  and  C12_18 
REMARK    9  A    between atoms: C12_18  and  N4_19 
ROOT
HETATM    1  C4  UNL     1      24.286  -0.117  53.942  1.00  0.00     0.137 A 
HETATM    2  N2  UNL     1      24.336  -0.962  54.978  1.00  0.00    -0.224 NA
HETATM    3  C5  UNL     1      23.272  -1.569  55.511  1.00  0.00     0.235 A 
HETATM    4  N3  UNL     1      22.049  -1.352  55.012  1.00  0.00    -0.241 NA
HETATM    5  C6  UNL     1      21.878  -0.526  53.975  1.00  0.00     0.074 A 
HETATM    6  C7  UNL     1      23.025   0.069  53.472  1.00  0.00     0.041 A 
HETATM    7  C8  UNL     1      23.182   0.999  52.367  1.00  0.00     0.052 C 
HETATM    8  C9  UNL     1      22.480   1.894  51.663  1.00  0.00     0.071 C 
HETATM    9  C17 UNL     1      21.063   2.297  51.809  1.00  0.00     0.239 C 
HETATM   10  O4  UNL     1      20.168   1.214  51.899  1.00  0.00    -0.357 OA
HETATM   11  C18 UNL     1      19.759   0.246  52.789  1.00  0.00     0.137 C 
HETATM   12  C19 UNL     1      20.436  -0.490  53.657  1.00  0.00     0.057 C 
ENDROOT
BRANCH   8  13
HETATM   13  O2  UNL     1      23.073   2.576  50.655  1.00  0.00    -0.353 OA
BRANCH  13  14
HETATM   14  C10 UNL     1      24.406   2.778  50.357  1.00  0.00     0.177 C 
BRANCH  14  15
HETATM   15  C11 UNL     1      24.706   4.231  49.973  1.00  0.00     0.046 C 
BRANCH  15  16
HETATM   16  C12 UNL     1      26.083   4.230  49.346  1.00  0.00     0.119 C 
BRANCH  16  17
HETATM   17  N4  UNL     1      26.487   5.470  48.781  1.00  0.00    -0.408 N 
HETATM   18  C13 UNL     1      27.880   5.648  48.546  1.00  0.00     0.143 C 
HETATM   19  C14 UNL     1      28.023   6.911  47.686  1.00  0.00     0.187 C 
HETATM   20  O3  UNL     1      27.445   8.015  48.268  1.00  0.00    -0.388 OA
HETATM   21  C15 UNL     1      26.818   7.747  49.468  1.00  0.00     0.187 C 
HETATM   22  C16 UNL     1      25.810   6.618  49.343  1.00  0.00     0.143 C 
ENDBRANCH  16  17
ENDBRANCH  15  16
ENDBRANCH  14  15
ENDBRANCH  13  14
ENDBRANCH   8  13
BRANCH   1  23
HETATM   23  N1  UNL     1      25.462   0.491  53.445  1.00  0.00    -0.370 N 
HETATM   24  H5  UNL     1      25.875   0.862  52.583  1.00  0.00     0.161 HD
BRANCH  23  25
HETATM   25  C3  UNL     1      26.497   0.722  54.427  1.00  0.00     0.152 C 
BRANCH  25  26
HETATM   26  C2  UNL     1      27.806   0.135  54.112  1.00  0.00     0.042 C 
HETATM   27  C1  UNL     1      28.866   0.834  53.771  1.00  0.00     0.134 C 
HETATM   28 CL1  UNL     1      28.731   2.573  53.680  1.00  0.00    -0.057 Cl
BRANCH  27  29
HETATM   29  O1  UNL     1      30.181   0.549  53.431  1.00  0.00    -0.351 OA
HETATM   30  H1  UNL     1      30.371   0.089  52.545  1.00  0.00     0.218 HD
ENDBRANCH  27  29
ENDBRANCH  25  26
ENDBRANCH  23  25
ENDBRANCH   1  23
TORSDOF 9
ENDMDL
MODEL 6
REMARK VINA RESULT:      -7.6      3.137      6.703
REMARK  9 active torsions:
REMARK  status: ('A' for Active; 'I' for Inactive)
REMARK    1  A    between atoms: O1_1  and  C1_2 
REMARK    2  A    between atoms: C2_4  and  C3_5 
REMARK    3  A    between atoms: C3_5  and  N1_6 
REMARK    4  A    between atoms: N1_6  and  C4_7 
REMARK    5  A    between atoms: C9_14  and  O2_15 
REMARK    6  A    between atoms: O2_15  and  C10_16 
REMARK    7  A    between atoms: C10_16  and  C11_17 
REMARK    8  A    between atoms: C11_17  and  C12_18 
REMARK    9  A    between atoms: C12_18  and  N4_19 
ROOT
HETATM    1  C4  UNL     1      21.427   1.185  49.823  1.00  0.00     0.137 A 
HETATM    2  N2  UNL     1      20.728   1.456  48.716  1.00  0.00    -0.224 NA
HETATM    3  C5  UNL     1      21.019   2.441  47.861  1.00  0.00     0.235 A 
HETATM    4  N3  UNL     1      22.069   3.241  48.081  1.00  0.00    -0.241 NA
HETATM    5  C6  UNL     1      22.840   3.063  49.159  1.00  0.00     0.074 A 
HETATM    6  C7  UNL     1      22.481   2.023  50.002  1.00  0.00     0.041 A 
HETATM    7  C8  UNL     1      23.102   1.570  51.235  1.00  0.00     0.052 C 
HETATM    8  C9  UNL     1      23.892   2.015  52.218  1.00  0.00     0.071 C 
HETATM    9  C17 UNL     1      24.500   3.353  52.397  1.00  0.00     0.239 C 
HETATM   10  O4  UNL     1      25.140   3.848  51.245  1.00  0.00    -0.357 OA
HETATM   11  C18 UNL     1      24.842   4.387  50.014  1.00  0.00     0.137 C 
HETATM   12  C19 UNL     1      23.904   4.088  49.129  1.00  0.00     0.057 C 
ENDROOT
BRANCH   8  13
HETATM   13  O2  UNL     1      24.236   1.190  53.235  1.00  0.00    -0.353 OA
BRANCH  13  14
HETATM   14  C10 UNL     1      24.013  -0.160  53.424  1.00  0.00     0.177 C 
BRANCH  14  15
HETATM   15  C11 UNL     1      25.243  -0.882  53.986  1.00  0.00     0.046 C 
BRANCH  15  16
HETATM   16  C12 UNL     1      26.331  -0.741  52.945  1.00  0.00     0.119 C 
BRANCH  16  17
HETATM   17  N4  UNL     1      27.438   0.059  53.337  1.00  0.00    -0.408 N 
HETATM   18  C13 UNL     1      27.676   0.189  54.735  1.00  0.00     0.143 C 
HETATM   19  C14 UNL     1      29.057   0.841  54.887  1.00  0.00     0.187 C 
HETATM   20  O3  UNL     1      29.150   2.044  54.226  1.00  0.00    -0.388 OA
HETATM   21  C15 UNL     1      28.009   2.384  53.528  1.00  0.00     0.187 C 
HETATM   22  C16 UNL     1      27.574   1.282  52.578  1.00  0.00     0.143 C 
ENDBRANCH  16  17
ENDBRANCH  15  16
ENDBRANCH  14  15
ENDBRANCH  13  14
ENDBRANCH   8  13
BRANCH   1  23
HETATM   23  N1  UNL     1      21.044   0.127  50.681  1.00  0.00    -0.370 N 
HETATM   24  H5  UNL     1      21.326  -0.814  50.974  1.00  0.00     0.161 HD
BRANCH  23  25
HETATM   25  C3  UNL     1      19.858   0.374  51.470  1.00  0.00     0.152 C 
BRANCH  25  26
HETATM   26  C2  UNL     1      20.098   0.946  52.802  1.00  0.00     0.042 C 
HETATM   27  C1  UNL     1      20.343   0.234  53.878  1.00  0.00     0.134 C 
HETATM   28 CL1  UNL     1      20.392  -1.507  53.740  1.00  0.00    -0.057 Cl
BRANCH  27  29
HETATM   29  O1  UNL     1      20.596   0.504  55.216  1.00  0.00    -0.351 OA
HETATM   30  H1  UNL     1      20.802  -0.268  55.843  1.00  0.00     0.218 HD
ENDBRANCH  27  29
ENDBRANCH  25  26
ENDBRANCH  23  25
ENDBRANCH   1  23
TORSDOF 9
ENDMDL
MODEL 7
REMARK VINA RESULT:      -7.5      2.771      5.072
REMARK  9 active torsions:
REMARK  status: ('A' for Active; 'I' for Inactive)
REMARK    1  A    between atoms: O1_1  and  C1_2 
REMARK    2  A    between atoms: C2_4  and  C3_5 
REMARK    3  A    between atoms: C3_5  and  N1_6 
REMARK    4  A    between atoms: N1_6  and  C4_7 
REMARK    5  A    between atoms: C9_14  and  O2_15 
REMARK    6  A    between atoms: O2_15  and  C10_16 
REMARK    7  A    between atoms: C10_16  and  C11_17 
REMARK    8  A    between atoms: C11_17  and  C12_18 
REMARK    9  A    between atoms: C12_18  and  N4_19 
ROOT
HETATM    1  C4  UNL     1      26.251   2.214  51.676  1.00  0.00     0.137 A 
HETATM    2  N2  UNL     1      27.517   2.447  52.038  1.00  0.00    -0.224 NA
HETATM    3  C5  UNL     1      28.127   1.863  53.073  1.00  0.00     0.235 A 
HETATM    4  N3  UNL     1      27.472   0.978  53.833  1.00  0.00    -0.241 NA
HETATM    5  C6  UNL     1      26.200   0.666  53.565  1.00  0.00     0.074 A 
HETATM    6  C7  UNL     1      25.630   1.309  52.477  1.00  0.00     0.041 A 
HETATM    7  C8  UNL     1      24.290   1.193  51.927  1.00  0.00     0.052 C 
HETATM    8  C9  UNL     1      23.054   0.832  52.286  1.00  0.00     0.071 C 
HETATM    9  C17 UNL     1      22.564   0.345  53.595  1.00  0.00     0.239 C 
HETATM   10  O4  UNL     1      23.353  -0.678  54.156  1.00  0.00    -0.357 OA
HETATM   11  C18 UNL     1      24.565  -0.860  54.784  1.00  0.00     0.137 C 
HETATM   12  C19 UNL     1      25.755  -0.324  54.567  1.00  0.00     0.057 C 
ENDROOT
BRANCH   8  13
HETATM   13  O2  UNL     1      22.044   0.890  51.386  1.00  0.00    -0.353 OA
BRANCH  13  14
HETATM   14  C10 UNL     1      22.036   1.251  50.053  1.00  0.00     0.177 C 
BRANCH  14  15
HETATM   15  C11 UNL     1      20.974   2.312  49.741  1.00  0.00     0.046 C 
BRANCH  15  16
HETATM   16  C12 UNL     1      20.777   3.104  51.014  1.00  0.00     0.119 C 
BRANCH  16  17
HETATM   17  N4  UNL     1      21.453   4.353  51.055  1.00  0.00    -0.408 N 
HETATM   18  C13 UNL     1      22.096   4.778  49.858  1.00  0.00     0.143 C 
HETATM   19  C14 UNL     1      22.491   6.246  50.068  1.00  0.00     0.187 C 
HETATM   20  O3  UNL     1      23.281   6.428  51.179  1.00  0.00    -0.388 OA
HETATM   21  C15 UNL     1      23.509   5.269  51.895  1.00  0.00     0.187 C 
HETATM   22  C16 UNL     1      22.214   4.568  52.266  1.00  0.00     0.143 C 
ENDBRANCH  16  17
ENDBRANCH  15  16
ENDBRANCH  14  15
ENDBRANCH  13  14
ENDBRANCH   8  13
BRANCH   1  23
HETATM   23  N1  UNL     1      25.678   2.883  50.570  1.00  0.00    -0.370 N 
HETATM   24  H5  UNL     1      24.773   3.086  50.131  1.00  0.00     0.161 HD
BRANCH  23  25
HETATM   25  C3  UNL     1      26.619   3.560  49.705  1.00  0.00     0.152 C 
BRANCH  25  26
HETATM   26  C2  UNL     1      26.214   4.901  49.264  1.00  0.00     0.042 C 
HETATM   27  C1  UNL     1      27.011   5.746  48.648  1.00  0.00     0.134 C 
HETATM   28 CL1  UNL     1      28.659   5.265  48.326  1.00  0.00    -0.057 Cl
BRANCH  27  29
HETATM   29  O1  UNL     1      26.896   7.032  48.138  1.00  0.00    -0.351 OA
HETATM   30  H1  UNL     1      27.117   7.821  48.738  1.00  0.00     0.218 HD
ENDBRANCH  27  29
ENDBRANCH  25  26
ENDBRANCH  23  25
ENDBRANCH   1  23
TORSDOF 9
ENDMDL
MODEL 8
REMARK VINA RESULT:      -7.4      4.081      7.098
REMARK  9 active torsions:
REMARK  status: ('A' for Active; 'I' for Inactive)
REMARK    1  A    between atoms: O1_1  and  C1_2 
REMARK    2  A    between atoms: C2_4  and  C3_5 
REMARK    3  A    between atoms: C3_5  and  N1_6 
REMARK    4  A    between atoms: N1_6  and  C4_7 
REMARK    5  A    between atoms: C9_14  and  O2_15 
REMARK    6  A    between atoms: O2_15  and  C10_16 
REMARK    7  A    between atoms: C10_16  and  C11_17 
REMARK    8  A    between atoms: C11_17  and  C12_18 
REMARK    9  A    between atoms: C12_18  and  N4_19 
ROOT
HETATM    1  C4  UNL     1      19.911   1.441  51.807  1.00  0.00     0.137 A 
HETATM    2  N2  UNL     1      18.660   1.013  51.605  1.00  0.00    -0.224 NA
HETATM    3  C5  UNL     1      18.130  -0.070  52.180  1.00  0.00     0.235 A 
HETATM    4  N3  UNL     1      18.856  -0.814  53.022  1.00  0.00    -0.241 NA
HETATM    5  C6  UNL     1      20.121  -0.481  53.300  1.00  0.00     0.074 A 
HETATM    6  C7  UNL     1      20.607   0.654  52.669  1.00  0.00     0.041 A 
HETATM    7  C8  UNL     1      21.917   1.277  52.756  1.00  0.00     0.052 C 
HETATM    8  C9  UNL     1      23.183   0.981  53.066  1.00  0.00     0.071 C 
HETATM    9  C17 UNL     1      23.762  -0.311  53.501  1.00  0.00     0.239 C 
HETATM   10  O4  UNL     1      23.042  -0.941  54.532  1.00  0.00    -0.357 OA
HETATM   11  C18 UNL     1      21.875  -1.643  54.737  1.00  0.00     0.137 C 
HETATM   12  C19 UNL     1      20.656  -1.481  54.247  1.00  0.00     0.057 C 
ENDROOT
BRANCH   8  13
HETATM   13  O2  UNL     1      24.138   1.938  53.000  1.00  0.00    -0.353 OA
BRANCH  13  14
HETATM   14  C10 UNL     1      24.657   2.628  51.922  1.00  0.00     0.177 C 
BRANCH  14  15
HETATM   15  C11 UNL     1      25.868   1.919  51.303  1.00  0.00     0.046 C 
BRANCH  15  16
HETATM   16  C12 UNL     1      27.058   2.283  52.163  1.00  0.00     0.119 C 
BRANCH  16  17
HETATM   17  N4  UNL     1      27.452   1.287  53.097  1.00  0.00    -0.408 N 
HETATM   18  C13 UNL     1      28.708   1.470  53.743  1.00  0.00     0.143 C 
HETATM   19  C14 UNL     1      28.768   0.447  54.885  1.00  0.00     0.187 C 
HETATM   20  O3  UNL     1      28.586  -0.845  54.448  1.00  0.00    -0.388 OA
HETATM   21  C15 UNL     1      28.339  -0.945  53.094  1.00  0.00     0.187 C 
HETATM   22  C16 UNL     1      27.180  -0.065  52.662  1.00  0.00     0.143 C 
ENDBRANCH  16  17
ENDBRANCH  15  16
ENDBRANCH  14  15
ENDBRANCH  13  14
ENDBRANCH   8  13
BRANCH   1  23
HETATM   23  N1  UNL     1      20.397   2.595  51.150  1.00  0.00    -0.370 N 
HETATM   24  H5  UNL     1      21.114   2.901  50.483  1.00  0.00     0.161 HD
BRANCH  23  25
HETATM   25  C3  UNL     1      19.690   3.819  51.452  1.00  0.00     0.152 C 
BRANCH  25  26
HETATM   26  C2  UNL     1      18.882   4.366  50.354  1.00  0.00     0.042 C 
HETATM   27  C1  UNL     1      17.575   4.503  50.397  1.00  0.00     0.134 C 
HETATM   28 CL1  UNL     1      16.726   4.009  51.841  1.00  0.00    -0.057 Cl
BRANCH  27  29
HETATM   29  O1  UNL     1      16.594   4.973  49.535  1.00  0.00    -0.351 OA
HETATM   30  H1  UNL     1      16.545   4.595  48.593  1.00  0.00     0.218 HD
ENDBRANCH  27  29
ENDBRANCH  25  26
ENDBRANCH  23  25
ENDBRANCH   1  23
TORSDOF 9
ENDMDL
MODEL 9
REMARK VINA RESULT:      -7.4      2.668      4.690
REMARK  9 active torsions:
REMARK  status: ('A' for Active; 'I' for Inactive)
REMARK    1  A    between atoms: O1_1  and  C1_2 
REMARK    2  A    between atoms: C2_4  and  C3_5 
REMARK    3  A    between atoms: C3_5  and  N1_6 
REMARK    4  A    between atoms: N1_6  and  C4_7 
REMARK    5  A    between atoms: C9_14  and  O2_15 
REMARK    6  A    between atoms: O2_15  and  C10_16 
REMARK    7  A    between atoms: C10_16  and  C11_17 
REMARK    8  A    between atoms: C11_17  and  C12_18 
REMARK    9  A    between atoms: C12_18  and  N4_19 
ROOT
HETATM    1  C4  UNL     1      26.069   0.749  52.538  1.00  0.00     0.137 A 
HETATM    2  N2  UNL     1      27.290   0.673  53.078  1.00  0.00    -0.224 NA
HETATM    3  C5  UNL     1      27.568   0.071  54.239  1.00  0.00     0.235 A 
HETATM    4  N3  UNL     1      26.594  -0.509  54.950  1.00  0.00    -0.241 NA
HETATM    5  C6  UNL     1      25.332  -0.495  54.507  1.00  0.00     0.074 A 
HETATM    6  C7  UNL     1      25.117   0.146  53.296  1.00  0.00     0.041 A 
HETATM    7  C8  UNL     1      23.884   0.333  52.550  1.00  0.00     0.052 C 
HETATM    8  C9  UNL     1      22.560   0.363  52.734  1.00  0.00     0.071 C 
HETATM    9  C17 UNL     1      21.784   0.183  53.982  1.00  0.00     0.239 C 
HETATM   10  O4  UNL     1      22.169  -0.941  54.737  1.00  0.00    -0.357 OA
HETATM   11  C18 UNL     1      23.184  -1.369  55.563  1.00  0.00     0.137 C 
HETATM   12  C19 UNL     1      24.496  -1.204  55.497  1.00  0.00     0.057 C 
ENDROOT
BRANCH   8  13
HETATM   13  O2  UNL     1      21.736   0.586  51.683  1.00  0.00    -0.353 OA
BRANCH  13  14
HETATM   14  C10 UNL     1      20.373   0.405  51.545  1.00  0.00     0.177 C 
BRANCH  14  15
HETATM   15  C11 UNL     1      19.847   0.933  50.206  1.00  0.00     0.046 C 
BRANCH  15  16
HETATM   16  C12 UNL     1      19.253   2.295  50.489  1.00  0.00     0.119 C 
BRANCH  16  17
HETATM   17  N4  UNL     1      20.123   3.392  50.247  1.00  0.00    -0.408 N 
HETATM   18  C13 UNL     1      21.169   3.190  49.302  1.00  0.00     0.143 C 
HETATM   19  C14 UNL     1      21.770   4.570  49.008  1.00  0.00     0.187 C 
HETATM   20  O3  UNL     1      22.208   5.209  50.145  1.00  0.00    -0.388 OA
HETATM   21  C15 UNL     1      21.970   4.503  51.307  1.00  0.00     0.187 C 
HETATM   22  C16 UNL     1      20.510   4.108  51.442  1.00  0.00     0.143 C 
ENDBRANCH  16  17
ENDBRANCH  15  16
ENDBRANCH  14  15
ENDBRANCH  13  14
ENDBRANCH   8  13
BRANCH   1  23
HETATM   23  N1  UNL     1      25.861   1.414  51.307  1.00  0.00    -0.370 N 
HETATM   24  H5  UNL     1      25.434   1.285  50.384  1.00  0.00     0.161 HD
BRANCH  23  25
HETATM   25  C3  UNL     1      26.391   2.757  51.237  1.00  0.00     0.152 C 
BRANCH  25  26
HETATM   26  C2  UNL     1      25.475   3.766  50.690  1.00  0.00     0.042 C 
HETATM   27  C1  UNL     1      25.757   4.544  49.668  1.00  0.00     0.134 C 
HETATM   28 CL1  UNL     1      27.317   4.384  48.898  1.00  0.00    -0.057 Cl
BRANCH  27  29
HETATM   29  O1  UNL     1      25.103   5.548  48.969  1.00  0.00    -0.351 OA
HETATM   30  H1  UNL     1      24.580   5.304  48.133  1.00  0.00     0.218 HD
ENDBRANCH  27  29
ENDBRANCH  25  26
ENDBRANCH  23  25
ENDBRANCH   1  23
TORSDOF 9
ENDMDL
