MODEL 1
REMARK VINA RESULT:      -8.0      0.000      0.000
REMARK  1 active torsions:
REMARK  status: ('A' for Active; 'I' for Inactive)
REMARK    1  A    between atoms: O1_2  and  C2_3 
ROOT
HETATM    1  C2  UNL     1      25.665  -0.419  54.221  1.00  0.00     0.069 C 
HETATM    2  C3  UNL     1      26.541   0.634  54.466  1.00  0.00     0.038 C 
HETATM    3  C4  UNL     1      26.942   1.805  53.832  1.00  0.00     0.022 C 
HETATM    4  C5  UNL     1      27.491   2.092  52.580  1.00  0.00     0.118 C 
HETATM    5  N1  UNL     1      26.555   2.808  51.867  1.00  0.00    -0.254 NA
HETATM    6  C6  UNL     1      25.549   2.023  51.415  1.00  0.00     0.234 C 
HETATM    7  N2  UNL     1      25.097   0.922  52.078  1.00  0.00    -0.223 NA
HETATM    8  C7  UNL     1      23.828   0.634  52.286  1.00  0.00     0.142 A 
HETATM    9  C8  UNL     1      23.429  -0.148  53.314  1.00  0.00     0.025 A 
HETATM   10  C9  UNL     1      24.317  -0.701  54.217  1.00  0.00     0.053 C 
HETATM   11  C10 UNL     1      22.053  -0.297  53.313  1.00  0.00     0.005 A 
HETATM   12  C11 UNL     1      21.142  -0.966  54.106  1.00  0.00     0.014 A 
HETATM   13  C12 UNL     1      19.797  -0.893  53.801  1.00  0.00     0.001 A 
HETATM   14  C13 UNL     1      19.392  -0.150  52.707  1.00  0.00     0.002 A 
HETATM   15  C14 UNL     1      20.263   0.537  51.883  1.00  0.00     0.030 A 
HETATM   16  C15 UNL     1      21.601   0.444  52.215  1.00  0.00     0.046 A 
HETATM   17  N3  UNL     1      22.694   0.982  51.632  1.00  0.00    -0.335 N 
HETATM   18  C16 UNL     1      22.705   1.840  50.438  1.00  0.00     0.158 C 
ENDROOT
BRANCH   1  19
HETATM   19  O1  UNL     1      26.454  -1.493  53.878  1.00  0.00    -0.356 OA
HETATM   20  C1  UNL     1      27.166  -1.687  52.703  1.00  0.00     0.210 C 
ENDBRANCH   1  19
TORSDOF 1
ENDMDL
MODEL 2
REMARK VINA RESULT:      -7.9      1.916      3.370
REMARK  1 active torsions:
REMARK  status: ('A' for Active; 'I' for Inactive)
REMARK    1  A    between atoms: O1_2  and  C2_3 
ROOT
HETATM    1  C2  UNL     1      24.691   1.758  51.601  1.00  0.00     0.069 C 
HETATM    2  C3  UNL     1      25.908   1.120  51.378  1.00  0.00     0.038 C 
HETATM    3  C4  UNL     1      26.713   0.190  52.026  1.00  0.00     0.022 C 
HETATM    4  C5  UNL     1      27.304   0.129  53.289  1.00  0.00     0.118 C 
HETATM    5  N1  UNL     1      26.698  -0.893  53.987  1.00  0.00    -0.254 NA
HETATM    6  C6  UNL     1      25.459  -0.554  54.415  1.00  0.00     0.234 C 
HETATM    7  N2  UNL     1      24.635   0.294  53.738  1.00  0.00    -0.223 NA
HETATM    8  C7  UNL     1      23.357   0.076  53.502  1.00  0.00     0.142 A 
HETATM    9  C8  UNL     1      22.711   0.650  52.463  1.00  0.00     0.025 A 
HETATM   10  C9  UNL     1      23.338   1.504  51.577  1.00  0.00     0.053 C 
HETATM   11  C10 UNL     1      21.383   0.262  52.436  1.00  0.00     0.005 A 
HETATM   12  C11 UNL     1      20.301   0.536  51.621  1.00  0.00     0.014 A 
HETATM   13  C12 UNL     1      19.080  -0.048  51.899  1.00  0.00     0.001 A 
HETATM   14  C13 UNL     1      18.968  -0.892  52.987  1.00  0.00     0.002 A 
HETATM   15  C14 UNL     1      20.018  -1.198  53.833  1.00  0.00     0.030 A 
HETATM   16  C15 UNL     1      21.225  -0.600  53.528  1.00  0.00     0.046 A 
HETATM   17  N3  UNL     1      22.428  -0.681  54.135  1.00  0.00    -0.335 N 
HETATM   18  C16 UNL     1      22.742  -1.475  55.332  1.00  0.00     0.158 C 
ENDROOT
BRANCH   1  19
HETATM   19  O1  UNL     1      25.003   3.051  51.956  1.00  0.00    -0.356 OA
HETATM   20  C1  UNL     1      24.148   4.140  52.046  1.00  0.00     0.210 C 
ENDBRANCH   1  19
TORSDOF 1
ENDMDL
MODEL 3
REMARK VINA RESULT:      -7.6      1.962      5.489
REMARK  1 active torsions:
REMARK  status: ('A' for Active; 'I' for Inactive)
REMARK    1  A    between atoms: O1_2  and  C2_3 
ROOT
HETATM    1  C2  UNL     1      23.473  -0.264  53.069  1.00  0.00     0.069 C 
HETATM    2  C3  UNL     1      22.796   0.608  52.221  1.00  0.00     0.038 C 
HETATM    3  C4  UNL     1      22.891   1.938  51.827  1.00  0.00     0.022 C 
HETATM    4  C5  UNL     1      22.897   3.155  52.511  1.00  0.00     0.118 C 
HETATM    5  N1  UNL     1      24.149   3.710  52.366  1.00  0.00    -0.254 NA
HETATM    6  C6  UNL     1      25.072   3.096  53.143  1.00  0.00     0.234 C 
HETATM    7  N2  UNL     1      25.027   1.772  53.461  1.00  0.00    -0.223 NA
HETATM    8  C7  UNL     1      26.052   0.946  53.402  1.00  0.00     0.142 A 
HETATM    9  C8  UNL     1      25.891  -0.387  53.248  1.00  0.00     0.025 A 
HETATM   10  C9  UNL     1      24.647  -0.979  53.141  1.00  0.00     0.053 C 
HETATM   11  C10 UNL     1      27.117  -1.029  53.216  1.00  0.00     0.005 A 
HETATM   12  C11 UNL     1      27.529  -2.341  53.082  1.00  0.00     0.014 A 
HETATM   13  C12 UNL     1      28.880  -2.629  53.094  1.00  0.00     0.001 A 
HETATM   14  C13 UNL     1      29.789  -1.598  53.240  1.00  0.00     0.002 A 
HETATM   15  C14 UNL     1      29.428  -0.271  53.377  1.00  0.00     0.030 A 
HETATM   16  C15 UNL     1      28.071  -0.015  53.361  1.00  0.00     0.046 A 
HETATM   17  N3  UNL     1      27.390   1.146  53.468  1.00  0.00    -0.335 N 
HETATM   18  C16 UNL     1      27.980   2.483  53.638  1.00  0.00     0.158 C 
ENDROOT
BRANCH   1  19
HETATM   19  O1  UNL     1      22.663  -0.423  54.171  1.00  0.00    -0.356 OA
HETATM   20  C1  UNL     1      21.921  -1.539  54.529  1.00  0.00     0.210 C 
ENDBRANCH   1  19
TORSDOF 1
ENDMDL
MODEL 4
REMARK VINA RESULT:      -7.6      2.540      4.344
REMARK  1 active torsions:
REMARK  status: ('A' for Active; 'I' for Inactive)
REMARK    1  A    between atoms: O1_2  and  C2_3 
ROOT
HETATM    1  C2  UNL     1      22.892   3.874  50.907  1.00  0.00     0.069 C 
HETATM    2  C3  UNL     1      23.652   3.966  49.746  1.00  0.00     0.038 C 
HETATM    3  C4  UNL     1      24.940   3.641  49.332  1.00  0.00     0.022 C 
HETATM    4  C5  UNL     1      26.218   3.974  49.785  1.00  0.00     0.118 C 
HETATM    5  N1  UNL     1      26.798   2.828  50.282  1.00  0.00    -0.254 NA
HETATM    6  C6  UNL     1      26.295   2.484  51.490  1.00  0.00     0.234 C 
HETATM    7  N2  UNL     1      25.008   2.727  51.866  1.00  0.00    -0.223 NA
HETATM    8  C7  UNL     1      24.216   1.852  52.452  1.00  0.00     0.142 A 
HETATM    9  C8  UNL     1      22.869   1.937  52.371  1.00  0.00     0.025 A 
HETATM   10  C9  UNL     1      22.227   2.941  51.672  1.00  0.00     0.053 C 
HETATM   11  C10 UNL     1      22.268   0.903  53.068  1.00  0.00     0.005 A 
HETATM   12  C11 UNL     1      20.965   0.516  53.311  1.00  0.00     0.014 A 
HETATM   13  C12 UNL     1      20.725  -0.608  54.077  1.00  0.00     0.001 A 
HETATM   14  C13 UNL     1      21.796  -1.321  54.584  1.00  0.00     0.002 A 
HETATM   15  C14 UNL     1      23.117  -0.976  54.370  1.00  0.00     0.030 A 
HETATM   16  C15 UNL     1      23.324   0.153  53.601  1.00  0.00     0.046 A 
HETATM   17  N3  UNL     1      24.466   0.755  53.207  1.00  0.00    -0.335 N 
HETATM   18  C16 UNL     1      25.832   0.317  53.531  1.00  0.00     0.158 C 
ENDROOT
BRANCH   1  19
HETATM   19  O1  UNL     1      22.814   5.154  51.409  1.00  0.00    -0.356 OA
HETATM   20  C1  UNL     1      21.809   6.088  51.209  1.00  0.00     0.210 C 
ENDBRANCH   1  19
TORSDOF 1
ENDMDL
MODEL 5
REMARK VINA RESULT:      -7.5      2.124      5.980
REMARK  1 active torsions:
REMARK  status: ('A' for Active; 'I' for Inactive)
REMARK    1  A    between atoms: O1_2  and  C2_3 
ROOT
HETATM    1  C2  UNL     1      22.647   1.618  51.406  1.00  0.00     0.069 C 
HETATM    2  C3  UNL     1      21.428   1.917  52.007  1.00  0.00     0.038 C 
HETATM    3  C4  UNL     1      20.666   1.450  53.072  1.00  0.00     0.022 C 
HETATM    4  C5  UNL     1      20.140   0.204  53.417  1.00  0.00     0.118 C 
HETATM    5  N1  UNL     1      20.791  -0.228  54.551  1.00  0.00    -0.254 NA
HETATM    6  C6  UNL     1      22.045  -0.662  54.285  1.00  0.00     0.234 C 
HETATM    7  N2  UNL     1      22.825  -0.148  53.293  1.00  0.00    -0.223 NA
HETATM    8  C7  UNL     1      24.092   0.187  53.428  1.00  0.00     0.142 A 
HETATM    9  C8  UNL     1      24.680   1.106  52.629  1.00  0.00     0.025 A 
HETATM   10  C9  UNL     1      24.000   1.758  51.619  1.00  0.00     0.053 C 
HETATM   11  C10 UNL     1      26.010   1.277  52.974  1.00  0.00     0.005 A 
HETATM   12  C11 UNL     1      27.046   2.062  52.507  1.00  0.00     0.014 A 
HETATM   13  C12 UNL     1      28.286   1.972  53.110  1.00  0.00     0.001 A 
HETATM   14  C13 UNL     1      28.462   1.098  54.166  1.00  0.00     0.002 A 
HETATM   15  C14 UNL     1      27.458   0.292  54.670  1.00  0.00     0.030 A 
HETATM   16  C15 UNL     1      26.231   0.405  54.046  1.00  0.00     0.046 A 
HETATM   17  N3  UNL     1      25.059  -0.224  54.283  1.00  0.00    -0.335 N 
HETATM   18  C16 UNL     1      24.814  -1.235  55.323  1.00  0.00     0.158 C 
ENDROOT
BRANCH   1  19
HETATM   19  O1  UNL     1      22.338   0.978  50.226  1.00  0.00    -0.356 OA
HETATM   20  C1  UNL     1      21.305   1.265  49.346  1.00  0.00     0.210 C 
ENDBRANCH   1  19
TORSDOF 1
ENDMDL
MODEL 6
REMARK VINA RESULT:      -7.5      2.965      6.073
REMARK  1 active torsions:
REMARK  status: ('A' for Active; 'I' for Inactive)
REMARK    1  A    between atoms: O1_2  and  C2_3 
ROOT
HETATM    1  C2  UNL     1      23.646   1.213  52.092  1.00  0.00     0.069 C 
HETATM    2  C3  UNL     1      22.329   0.789  51.943  1.00  0.00     0.038 C 
HETATM    3  C4  UNL     1      21.063   1.363  51.908  1.00  0.00     0.022 C 
HETATM    4  C5  UNL     1      20.341   2.176  52.784  1.00  0.00     0.118 C 
HETATM    5  N1  UNL     1      20.194   3.409  52.187  1.00  0.00    -0.254 NA
HETATM    6  C6  UNL     1      21.339   4.130  52.220  1.00  0.00     0.234 C 
HETATM    7  N2  UNL     1      22.582   3.574  52.170  1.00  0.00    -0.223 NA
HETATM    8  C7  UNL     1      23.567   3.996  51.405  1.00  0.00     0.142 A 
HETATM    9  C8  UNL     1      24.573   3.181  51.016  1.00  0.00     0.025 A 
HETATM   10  C9  UNL     1      24.642   1.853  51.390  1.00  0.00     0.053 C 
HETATM   11  C10 UNL     1      25.478   3.862  50.220  1.00  0.00     0.005 A 
HETATM   12  C11 UNL     1      26.652   3.531  49.572  1.00  0.00     0.014 A 
HETATM   13  C12 UNL     1      27.316   4.497  48.841  1.00  0.00     0.001 A 
HETATM   14  C13 UNL     1      26.792   5.774  48.776  1.00  0.00     0.002 A 
HETATM   15  C14 UNL     1      25.622   6.156  49.406  1.00  0.00     0.030 A 
HETATM   16  C15 UNL     1      24.981   5.168  50.128  1.00  0.00     0.046 A 
HETATM   17  N3  UNL     1      23.841   5.201  50.850  1.00  0.00    -0.335 N 
HETATM   18  C16 UNL     1      22.971   6.372  51.040  1.00  0.00     0.158 C 
ENDROOT
BRANCH   1  19
HETATM   19  O1  UNL     1      24.016   0.850  53.368  1.00  0.00    -0.356 OA
HETATM   20  C1  UNL     1      24.769  -0.249  53.757  1.00  0.00     0.210 C 
ENDBRANCH   1  19
TORSDOF 1
ENDMDL
MODEL 7
REMARK VINA RESULT:      -7.4      2.223      5.488
REMARK  1 active torsions:
REMARK  status: ('A' for Active; 'I' for Inactive)
REMARK    1  A    between atoms: O1_2  and  C2_3 
ROOT
HETATM    1  C2  UNL     1      21.772   0.822  51.917  1.00  0.00     0.069 C 
HETATM    2  C3  UNL     1      21.267   0.515  50.658  1.00  0.00     0.038 C 
HETATM    3  C4  UNL     1      21.466   0.924  49.344  1.00  0.00     0.022 C 
HETATM    4  C5  UNL     1      21.403   2.157  48.691  1.00  0.00     0.118 C 
HETATM    5  N1  UNL     1      22.680   2.485  48.290  1.00  0.00    -0.254 NA
HETATM    6  C6  UNL     1      23.448   2.900  49.325  1.00  0.00     0.234 C 
HETATM    7  N2  UNL     1      23.310   2.437  50.598  1.00  0.00    -0.223 NA
HETATM    8  C7  UNL     1      24.304   2.056  51.374  1.00  0.00     0.142 A 
HETATM    9  C8  UNL     1      24.126   1.182  52.390  1.00  0.00     0.025 A 
HETATM   10  C9  UNL     1      22.897   0.626  52.688  1.00  0.00     0.053 C 
HETATM   11  C10 UNL     1      25.320   0.946  53.050  1.00  0.00     0.005 A 
HETATM   12  C11 UNL     1      25.706   0.167  54.124  1.00  0.00     0.014 A 
HETATM   13  C12 UNL     1      27.027   0.176  54.525  1.00  0.00     0.001 A 
HETATM   14  C13 UNL     1      27.935   0.964  53.842  1.00  0.00     0.002 A 
HETATM   15  C14 UNL     1      27.600   1.760  52.763  1.00  0.00     0.030 A 
HETATM   16  C15 UNL     1      26.271   1.729  52.386  1.00  0.00     0.046 A 
HETATM   17  N3  UNL     1      25.620   2.374  51.394  1.00  0.00    -0.335 N 
HETATM   18  C16 UNL     1      26.219   3.312  50.433  1.00  0.00     0.158 C 
ENDROOT
BRANCH   1  19
HETATM   19  O1  UNL     1      20.793   1.555  52.548  1.00  0.00    -0.356 OA
HETATM   20  C1  UNL     1      20.465   2.888  52.349  1.00  0.00     0.210 C 
ENDBRANCH   1  19
TORSDOF 1
ENDMDL
MODEL 8
REMARK VINA RESULT:      -7.3      2.678      5.773
REMARK  1 active torsions:
REMARK  status: ('A' for Active; 'I' for Inactive)
REMARK    1  A    between atoms: O1_2  and  C2_3 
ROOT
HETATM    1  C2  UNL     1      23.445   3.726  50.351  1.00  0.00     0.069 C 
HETATM    2  C3  UNL     1      22.545   4.653  50.867  1.00  0.00     0.038 C 
HETATM    3  C4  UNL     1      21.415   4.646  51.677  1.00  0.00     0.022 C 
HETATM    4  C5  UNL     1      20.181   3.995  51.616  1.00  0.00     0.118 C 
HETATM    5  N1  UNL     1      20.127   3.100  52.661  1.00  0.00    -0.254 NA
HETATM    6  C6  UNL     1      20.887   2.004  52.433  1.00  0.00     0.234 C 
HETATM    7  N2  UNL     1      22.041   2.025  51.709  1.00  0.00    -0.223 NA
HETATM    8  C7  UNL     1      23.169   1.448  52.071  1.00  0.00     0.142 A 
HETATM    9  C8  UNL     1      24.370   1.873  51.617  1.00  0.00     0.025 A 
HETATM   10  C9  UNL     1      24.502   2.937  50.746  1.00  0.00     0.053 C 
HETATM   11  C10 UNL     1      25.394   1.105  52.143  1.00  0.00     0.005 A 
HETATM   12  C11 UNL     1      26.769   1.096  52.023  1.00  0.00     0.014 A 
HETATM   13  C12 UNL     1      27.503   0.153  52.716  1.00  0.00     0.001 A 
HETATM   14  C13 UNL     1      26.843  -0.762  53.516  1.00  0.00     0.002 A 
HETATM   15  C14 UNL     1      25.470  -0.795  53.670  1.00  0.00     0.030 A 
HETATM   16  C15 UNL     1      24.765   0.160  52.963  1.00  0.00     0.046 A 
HETATM   17  N3  UNL     1      23.439   0.403  52.890  1.00  0.00    -0.335 N 
HETATM   18  C16 UNL     1      22.382  -0.343  53.589  1.00  0.00     0.158 C 
ENDROOT
BRANCH   1  19
HETATM   19  O1  UNL     1      23.130   3.598  49.016  1.00  0.00    -0.356 OA
HETATM   20  C1  UNL     1      22.765   4.598  48.127  1.00  0.00     0.210 C 
ENDBRANCH   1  19
TORSDOF 1
ENDMDL
MODEL 9
REMARK VINA RESULT:      -7.2      1.669      2.416
REMARK  1 active torsions:
REMARK  status: ('A' for Active; 'I' for Inactive)
REMARK    1  A    between atoms: O1_2  and  C2_3 
ROOT
HETATM    1  C2  UNL     1      23.749   0.517  53.223  1.00  0.00     0.069 C 
HETATM    2  C3  UNL     1      24.408   1.743  53.261  1.00  0.00     0.038 C 
HETATM    3  C4  UNL     1      24.552   2.857  52.441  1.00  0.00     0.022 C 
HETATM    4  C5  UNL     1      24.994   3.047  51.131  1.00  0.00     0.118 C 
HETATM    5  N1  UNL     1      23.915   3.454  50.379  1.00  0.00    -0.254 NA
HETATM    6  C6  UNL     1      23.070   2.432  50.106  1.00  0.00     0.234 C 
HETATM    7  N2  UNL     1      22.864   1.381  50.946  1.00  0.00    -0.223 NA
HETATM    8  C7  UNL     1      21.684   0.893  51.269  1.00  0.00     0.142 A 
HETATM    9  C8  UNL     1      21.478   0.216  52.421  1.00  0.00     0.025 A 
HETATM   10  C9  UNL     1      22.484  -0.013  53.340  1.00  0.00     0.053 C 
HETATM   11  C10 UNL     1      20.159  -0.190  52.523  1.00  0.00     0.005 A 
HETATM   12  C11 UNL     1      19.422  -0.891  53.458  1.00  0.00     0.014 A 
HETATM   13  C12 UNL     1      18.080  -1.122  53.226  1.00  0.00     0.001 A 
HETATM   14  C13 UNL     1      17.504  -0.647  52.062  1.00  0.00     0.002 A 
HETATM   15  C14 UNL     1      18.197   0.059  51.097  1.00  0.00     0.030 A 
HETATM   16  C15 UNL     1      19.536   0.274  51.358  1.00  0.00     0.046 A 
HETATM   17  N3  UNL     1      20.484   0.914  50.640  1.00  0.00    -0.335 N 
HETATM   18  C16 UNL     1      20.289   1.565  49.336  1.00  0.00     0.158 C 
ENDROOT
BRANCH   1  19
HETATM   19  O1  UNL     1      24.724  -0.427  52.992  1.00  0.00    -0.356 OA
HETATM   20  C1  UNL     1      25.951  -0.559  53.625  1.00  0.00     0.210 C 
ENDBRANCH   1  19
TORSDOF 1
ENDMDL
