MODEL 1
REMARK VINA RESULT:      -9.3      0.000      0.000
REMARK  4 active torsions:
REMARK  status: ('A' for Active; 'I' for Inactive)
REMARK    1  A    between atoms: C7_7  and  N1_8 
REMARK    2  A    between atoms: N1_8  and  C8_9 
REMARK    3  A    between atoms: N3_11  and  N4_12 
REMARK    4  A    between atoms: C11_16  and  C12_17 
ROOT
HETATM    1  C1  UNL     1      22.463  -1.675  55.325  1.00  0.00     0.018 C 
HETATM    2  C2  UNL     1      21.795  -1.145  54.447  1.00  0.00    -0.078 C 
HETATM    3  C3  UNL     1      21.028  -0.529  53.401  1.00  0.00     0.019 A 
HETATM    4  C4  UNL     1      19.671  -0.706  53.273  1.00  0.00     0.021 A 
HETATM    5  C5  UNL     1      18.967  -0.093  52.254  1.00  0.00     0.004 A 
HETATM    6  C6  UNL     1      19.693   0.708  51.367  1.00  0.00     0.029 A 
HETATM    7  C7  UNL     1      21.058   0.892  51.488  1.00  0.00     0.034 A 
HETATM    8  C20 UNL     1      21.737   0.261  52.527  1.00  0.00     0.050 A 
ENDROOT
BRANCH   7   9
HETATM    9  N1  UNL     1      21.609   1.758  50.474  1.00  0.00    -0.341 N 
HETATM   10  H5  UNL     1      21.642   1.715  49.425  1.00  0.00     0.167 HD
BRANCH   9  11
HETATM   11  C8  UNL     1      22.241   2.913  51.042  1.00  0.00     0.163 C 
HETATM   12  N2  UNL     1      21.639   4.013  51.402  1.00  0.00    -0.144 NA
HETATM   13  N3  UNL     1      22.438   5.029  51.938  1.00  0.00    -0.205 N 
HETATM   14  C9  UNL     1      23.378   4.618  52.998  1.00  0.00     0.438 C 
HETATM   15  N5  UNL     1      23.747   3.237  52.786  1.00  0.00     0.128 N 
HETATM   16  C10 UNL     1      25.120   2.921  53.009  1.00  0.00     0.315 C 
HETATM   17  C19 UNL     1      23.681   3.054  51.321  1.00  0.00     0.319 C 
HETATM   18  C11 UNL     1      25.357   1.707  52.184  1.00  0.00    -0.019 C 
HETATM   19  C18 UNL     1      24.482   1.837  51.206  1.00  0.00     0.026 C 
BRANCH  13  20
HETATM   20  N4  UNL     1      22.462   6.398  51.601  1.00  0.00    -0.229 NA
HETATM   21  H6  UNL     1      22.171   6.572  50.604  1.00  0.00     0.144 HD
HETATM   22  H7  UNL     1      23.417   6.754  51.700  1.00  0.00     0.144 HD
ENDBRANCH  13  20
BRANCH  18  23
HETATM   23  C12 UNL     1      26.355   0.705  52.510  1.00  0.00    -0.006 A 
HETATM   24  C13 UNL     1      26.081  -0.630  52.375  1.00  0.00     0.015 A 
HETATM   25  C14 UNL     1      26.942  -1.659  52.653  1.00  0.00     0.025 A 
HETATM   26  C15 UNL     1      28.207  -1.369  53.113  1.00  0.00     0.035 A 
HETATM   27 CL1  UNL     1      29.338  -2.651  53.480  1.00  0.00    -0.084 Cl
HETATM   28  C16 UNL     1      28.539  -0.046  53.268  1.00  0.00     0.048 A 
HETATM   29  C17 UNL     1      27.629   0.943  52.972  1.00  0.00     0.046 A 
HETATM   30 CL2  UNL     1      28.191   2.563  53.224  1.00  0.00    -0.083 Cl
ENDBRANCH  18  23
ENDBRANCH   9  11
ENDBRANCH   7   9
TORSDOF 4
ENDMDL
MODEL 2
REMARK VINA RESULT:      -9.2      2.845      5.557
REMARK  4 active torsions:
REMARK  status: ('A' for Active; 'I' for Inactive)
REMARK    1  A    between atoms: C7_7  and  N1_8 
REMARK    2  A    between atoms: N1_8  and  C8_9 
REMARK    3  A    between atoms: N3_11  and  N4_12 
REMARK    4  A    between atoms: C11_16  and  C12_17 
ROOT
HETATM    1  C1  UNL     1      27.582   4.805  48.640  1.00  0.00     0.018 C 
HETATM    2  C2  UNL     1      26.668   5.490  49.079  1.00  0.00    -0.078 C 
HETATM    3  C3  UNL     1      25.600   6.286  49.617  1.00  0.00     0.019 A 
HETATM    4  C4  UNL     1      25.386   7.590  49.241  1.00  0.00     0.021 A 
HETATM    5  C5  UNL     1      24.345   8.323  49.779  1.00  0.00     0.004 A 
HETATM    6  C6  UNL     1      23.528   7.681  50.715  1.00  0.00     0.029 A 
HETATM    7  C7  UNL     1      23.736   6.370  51.099  1.00  0.00     0.034 A 
HETATM    8  C20 UNL     1      24.793   5.659  50.537  1.00  0.00     0.050 A 
ENDROOT
BRANCH   7   9
HETATM    9  N1  UNL     1      22.778   5.901  52.071  1.00  0.00    -0.341 N 
HETATM   10  H5  UNL     1      22.592   6.137  53.077  1.00  0.00     0.167 HD
BRANCH   9  11
HETATM   11  C8  UNL     1      21.909   4.900  51.525  1.00  0.00     0.163 C 
HETATM   12  N2  UNL     1      20.916   5.115  50.706  1.00  0.00    -0.144 NA
HETATM   13  N3  UNL     1      20.184   3.999  50.287  1.00  0.00    -0.205 N 
HETATM   14  C9  UNL     1      20.977   2.853  49.802  1.00  0.00     0.438 C 
HETATM   15  N5  UNL     1      22.259   2.856  50.469  1.00  0.00     0.128 N 
HETATM   16  C10 UNL     1      22.751   1.579  50.872  1.00  0.00     0.315 C 
HETATM   17  C19 UNL     1      21.989   3.453  51.793  1.00  0.00     0.319 C 
HETATM   18  C11 UNL     1      23.680   1.882  51.993  1.00  0.00    -0.019 C 
HETATM   19  C18 UNL     1      23.184   2.994  52.498  1.00  0.00     0.026 C 
BRANCH  13  20
HETATM   20  N4  UNL     1      18.784   3.823  50.263  1.00  0.00    -0.229 NA
HETATM   21  H6  UNL     1      18.285   4.489  50.909  1.00  0.00     0.144 HD
HETATM   22  H7  UNL     1      18.557   2.875  50.576  1.00  0.00     0.144 HD
ENDBRANCH  13  20
BRANCH  18  23
HETATM   23  C12 UNL     1      24.820   1.049  52.329  1.00  0.00    -0.006 A 
HETATM   24  C13 UNL     1      26.071   1.348  51.860  1.00  0.00     0.015 A 
HETATM   25  C14 UNL     1      27.215   0.636  52.110  1.00  0.00     0.025 A 
HETATM   26  C15 UNL     1      27.143  -0.491  52.899  1.00  0.00     0.035 A 
HETATM   27 CL1  UNL     1      28.578  -1.430  53.243  1.00  0.00    -0.084 Cl
HETATM   28  C16 UNL     1      25.913  -0.841  53.399  1.00  0.00     0.048 A 
HETATM   29  C17 UNL     1      24.801  -0.083  53.111  1.00  0.00     0.046 A 
HETATM   30 CL2  UNL     1      23.319  -0.654  53.808  1.00  0.00    -0.083 Cl
ENDBRANCH  18  23
ENDBRANCH   9  11
ENDBRANCH   7   9
TORSDOF 4
ENDMDL
MODEL 3
REMARK VINA RESULT:      -9.2      1.544      2.010
REMARK  4 active torsions:
REMARK  status: ('A' for Active; 'I' for Inactive)
REMARK    1  A    between atoms: C7_7  and  N1_8 
REMARK    2  A    between atoms: N1_8  and  C8_9 
REMARK    3  A    between atoms: N3_11  and  N4_12 
REMARK    4  A    between atoms: C11_16  and  C12_17 
ROOT
HETATM    1  C1  UNL     1      22.046  -1.166  54.954  1.00  0.00     0.018 C 
HETATM    2  C2  UNL     1      21.187  -0.883  54.131  1.00  0.00    -0.078 C 
HETATM    3  C3  UNL     1      20.193  -0.557  53.146  1.00  0.00     0.019 A 
HETATM    4  C4  UNL     1      18.870  -0.904  53.285  1.00  0.00     0.021 A 
HETATM    5  C5  UNL     1      17.942  -0.570  52.316  1.00  0.00     0.004 A 
HETATM    6  C6  UNL     1      18.408   0.131  51.199  1.00  0.00     0.029 A 
HETATM    7  C7  UNL     1      19.736   0.483  51.052  1.00  0.00     0.034 A 
HETATM    8  C20 UNL     1      20.645   0.132  52.046  1.00  0.00     0.050 A 
ENDROOT
BRANCH   7   9
HETATM    9  N1  UNL     1      20.003   1.204  49.830  1.00  0.00    -0.341 N 
HETATM   10  H5  UNL     1      19.966   0.944  48.813  1.00  0.00     0.167 HD
BRANCH   9  11
HETATM   11  C8  UNL     1      20.403   2.557  50.084  1.00  0.00     0.163 C 
HETATM   12  N2  UNL     1      19.602   3.580  50.203  1.00  0.00    -0.144 NA
HETATM   13  N3  UNL     1      20.192   4.824  50.451  1.00  0.00    -0.205 N 
HETATM   14  C9  UNL     1      21.192   4.859  51.535  1.00  0.00     0.438 C 
HETATM   15  N5  UNL     1      21.818   3.561  51.635  1.00  0.00     0.128 N 
HETATM   16  C10 UNL     1      23.226   3.567  51.865  1.00  0.00     0.315 C 
HETATM   17  C19 UNL     1      21.790   3.025  50.258  1.00  0.00     0.319 C 
HETATM   18  C11 UNL     1      23.690   2.257  51.337  1.00  0.00    -0.019 C 
HETATM   19  C18 UNL     1      22.808   1.987  50.395  1.00  0.00     0.026 C 
BRANCH  13  20
HETATM   20  N4  UNL     1      19.955   6.055  49.802  1.00  0.00    -0.229 NA
HETATM   21  H6  UNL     1      19.453   6.744  50.419  1.00  0.00     0.144 HD
HETATM   22  H7  UNL     1      19.361   5.896  48.984  1.00  0.00     0.144 HD
ENDBRANCH  13  20
BRANCH  18  23
HETATM   23  C12 UNL     1      24.861   1.564  51.843  1.00  0.00    -0.006 A 
HETATM   24  C13 UNL     1      24.740   0.563  52.769  1.00  0.00     0.015 A 
HETATM   25  C14 UNL     1      25.770  -0.156  53.316  1.00  0.00     0.025 A 
HETATM   26  C15 UNL     1      27.061   0.123  52.927  1.00  0.00     0.035 A 
HETATM   27 CL1  UNL     1      28.407  -0.769  53.600  1.00  0.00    -0.084 Cl
HETATM   28  C16 UNL     1      27.245   1.118  51.999  1.00  0.00     0.048 A 
HETATM   29  C17 UNL     1      26.168   1.805  51.487  1.00  0.00     0.046 A 
HETATM   30 CL2  UNL     1      26.559   3.035  50.331  1.00  0.00    -0.083 Cl
ENDBRANCH  18  23
ENDBRANCH   9  11
ENDBRANCH   7   9
TORSDOF 4
ENDMDL
MODEL 4
REMARK VINA RESULT:      -8.9      1.570      2.594
REMARK  4 active torsions:
REMARK  status: ('A' for Active; 'I' for Inactive)
REMARK    1  A    between atoms: C7_7  and  N1_8 
REMARK    2  A    between atoms: N1_8  and  C8_9 
REMARK    3  A    between atoms: N3_11  and  N4_12 
REMARK    4  A    between atoms: C11_16  and  C12_17 
ROOT
HETATM    1  C1  UNL     1      15.845  -0.995  52.128  1.00  0.00     0.018 C 
HETATM    2  C2  UNL     1      17.044  -0.767  52.222  1.00  0.00    -0.078 C 
HETATM    3  C3  UNL     1      18.447  -0.477  52.324  1.00  0.00     0.019 A 
HETATM    4  C4  UNL     1      19.198  -0.826  53.422  1.00  0.00     0.021 A 
HETATM    5  C5  UNL     1      20.547  -0.532  53.481  1.00  0.00     0.004 A 
HETATM    6  C6  UNL     1      21.107   0.129  52.384  1.00  0.00     0.029 A 
HETATM    7  C7  UNL     1      20.360   0.484  51.277  1.00  0.00     0.034 A 
HETATM    8  C20 UNL     1      19.003   0.173  51.248  1.00  0.00     0.050 A 
ENDROOT
BRANCH   7   9
HETATM    9  N1  UNL     1      21.131   1.154  50.258  1.00  0.00    -0.341 N 
HETATM   10  H5  UNL     1      21.482   0.868  49.310  1.00  0.00     0.167 HD
BRANCH   9  11
HETATM   11  C8  UNL     1      21.480   2.490  50.644  1.00  0.00     0.163 C 
HETATM   12  N2  UNL     1      20.647   3.482  50.802  1.00  0.00    -0.144 NA
HETATM   13  N3  UNL     1      21.189   4.713  51.184  1.00  0.00    -0.205 N 
HETATM   14  C9  UNL     1      22.130   4.680  52.320  1.00  0.00     0.438 C 
HETATM   15  N5  UNL     1      22.784   3.392  52.347  1.00  0.00     0.128 N 
HETATM   16  C10 UNL     1      24.177   3.410  52.654  1.00  0.00     0.315 C 
HETATM   17  C19 UNL     1      22.842   2.972  50.931  1.00  0.00     0.319 C 
HETATM   18  C11 UNL     1      24.703   2.159  52.046  1.00  0.00    -0.019 C 
HETATM   19  C18 UNL     1      23.880   1.949  51.039  1.00  0.00     0.026 C 
BRANCH  13  20
HETATM   20  N4  UNL     1      20.954   5.988  50.626  1.00  0.00    -0.229 NA
HETATM   21  H6  UNL     1      20.785   6.723  51.361  1.00  0.00     0.144 HD
HETATM   22  H7  UNL     1      20.116   5.951  50.040  1.00  0.00     0.144 HD
ENDBRANCH  13  20
BRANCH  18  23
HETATM   23  C12 UNL     1      25.864   1.453  52.557  1.00  0.00    -0.006 A 
HETATM   24  C13 UNL     1      27.113   2.008  52.484  1.00  0.00     0.015 A 
HETATM   25  C14 UNL     1      28.275   1.435  52.930  1.00  0.00     0.025 A 
HETATM   26  C15 UNL     1      28.226   0.187  53.511  1.00  0.00     0.035 A 
HETATM   27 CL1  UNL     1      29.685  -0.582  54.094  1.00  0.00    -0.084 Cl
HETATM   28  C16 UNL     1      26.999  -0.420  53.612  1.00  0.00     0.048 A 
HETATM   29  C17 UNL     1      25.868   0.209  53.144  1.00  0.00     0.046 A 
HETATM   30 CL2  UNL     1      24.394  -0.685  53.337  1.00  0.00    -0.083 Cl
ENDBRANCH  18  23
ENDBRANCH   9  11
ENDBRANCH   7   9
TORSDOF 4
ENDMDL
MODEL 5
REMARK VINA RESULT:      -8.8      3.508      5.190
REMARK  4 active torsions:
REMARK  status: ('A' for Active; 'I' for Inactive)
REMARK    1  A    between atoms: C7_7  and  N1_8 
REMARK    2  A    between atoms: N1_8  and  C8_9 
REMARK    3  A    between atoms: N3_11  and  N4_12 
REMARK    4  A    between atoms: C11_16  and  C12_17 
ROOT
HETATM    1  C1  UNL     1      26.109   1.896  53.819  1.00  0.00     0.018 C 
HETATM    2  C2  UNL     1      25.065   1.550  53.282  1.00  0.00    -0.078 C 
HETATM    3  C3  UNL     1      23.851   1.143  52.631  1.00  0.00     0.019 A 
HETATM    4  C4  UNL     1      23.008   0.194  53.161  1.00  0.00     0.021 A 
HETATM    5  C5  UNL     1      21.847  -0.169  52.506  1.00  0.00     0.004 A 
HETATM    6  C6  UNL     1      21.573   0.467  51.291  1.00  0.00     0.029 A 
HETATM    7  C7  UNL     1      22.414   1.421  50.752  1.00  0.00     0.034 A 
HETATM    8  C20 UNL     1      23.576   1.765  51.437  1.00  0.00     0.050 A 
ENDROOT
BRANCH   7   9
HETATM    9  N1  UNL     1      21.943   1.953  49.495  1.00  0.00    -0.341 N 
HETATM   10  H5  UNL     1      21.885   1.566  48.521  1.00  0.00     0.167 HD
BRANCH   9  11
HETATM   11  C8  UNL     1      21.458   3.296  49.632  1.00  0.00     0.163 C 
HETATM   12  N2  UNL     1      20.363   3.653  50.244  1.00  0.00    -0.144 NA
HETATM   13  N3  UNL     1      20.064   5.020  50.266  1.00  0.00    -0.205 N 
HETATM   14  C9  UNL     1      21.165   5.914  50.673  1.00  0.00     0.438 C 
HETATM   15  N5  UNL     1      22.422   5.301  50.311  1.00  0.00     0.128 N 
HETATM   16  C10 UNL     1      23.410   6.182  49.778  1.00  0.00     0.315 C 
HETATM   17  C19 UNL     1      22.117   4.504  49.105  1.00  0.00     0.319 C 
HETATM   18  C11 UNL     1      24.288   5.299  48.966  1.00  0.00    -0.019 C 
HETATM   19  C18 UNL     1      23.475   4.329  48.597  1.00  0.00     0.026 C 
BRANCH  13  20
HETATM   20  N4  UNL     1      18.845   5.658  49.953  1.00  0.00    -0.229 NA
HETATM   21  H6  UNL     1      18.371   5.230  49.116  1.00  0.00     0.144 HD
HETATM   22  H7  UNL     1      19.027   6.640  49.726  1.00  0.00     0.144 HD
ENDBRANCH  13  20
BRANCH  18  23
HETATM   23  C12 UNL     1      25.692   5.577  48.724  1.00  0.00    -0.006 A 
HETATM   24  C13 UNL     1      26.094   6.788  48.228  1.00  0.00     0.015 A 
HETATM   25  C14 UNL     1      27.385   7.159  47.961  1.00  0.00     0.025 A 
HETATM   26  C15 UNL     1      28.403   6.261  48.197  1.00  0.00     0.035 A 
HETATM   27 CL1  UNL     1      30.066   6.692  47.870  1.00  0.00    -0.084 Cl
HETATM   28  C16 UNL     1      28.060   5.028  48.696  1.00  0.00     0.048 A 
HETATM   29  C17 UNL     1      26.743   4.716  48.944  1.00  0.00     0.046 A 
HETATM   30 CL2  UNL     1      26.467   3.122  49.566  1.00  0.00    -0.083 Cl
ENDBRANCH  18  23
ENDBRANCH   9  11
ENDBRANCH   7   9
TORSDOF 4
ENDMDL
MODEL 6
REMARK VINA RESULT:      -8.8      4.022      6.886
REMARK  4 active torsions:
REMARK  status: ('A' for Active; 'I' for Inactive)
REMARK    1  A    between atoms: C7_7  and  N1_8 
REMARK    2  A    between atoms: N1_8  and  C8_9 
REMARK    3  A    between atoms: N3_11  and  N4_12 
REMARK    4  A    between atoms: C11_16  and  C12_17 
ROOT
HETATM    1  C1  UNL     1      28.904   7.943  46.844  1.00  0.00     0.018 C 
HETATM    2  C2  UNL     1      28.235   7.122  47.457  1.00  0.00    -0.078 C 
HETATM    3  C3  UNL     1      27.431   6.162  48.161  1.00  0.00     0.019 A 
HETATM    4  C4  UNL     1      27.913   4.936  48.553  1.00  0.00     0.021 A 
HETATM    5  C5  UNL     1      27.109   4.041  49.232  1.00  0.00     0.004 A 
HETATM    6  C6  UNL     1      25.795   4.436  49.498  1.00  0.00     0.029 A 
HETATM    7  C7  UNL     1      25.301   5.667  49.108  1.00  0.00     0.034 A 
HETATM    8  C20 UNL     1      26.138   6.546  48.426  1.00  0.00     0.050 A 
ENDROOT
BRANCH   7   9
HETATM    9  N1  UNL     1      23.924   5.876  49.484  1.00  0.00    -0.341 N 
HETATM   10  H5  UNL     1      23.453   6.485  50.198  1.00  0.00     0.167 HD
BRANCH   9  11
HETATM   11  C8  UNL     1      23.029   5.070  48.706  1.00  0.00     0.163 C 
HETATM   12  N2  UNL     1      22.819   5.183  47.423  1.00  0.00    -0.144 NA
HETATM   13  N3  UNL     1      21.902   4.296  46.848  1.00  0.00    -0.205 N 
HETATM   14  C9  UNL     1      22.080   2.872  47.190  1.00  0.00     0.438 C 
HETATM   15  N5  UNL     1      22.682   2.778  48.501  1.00  0.00     0.128 N 
HETATM   16  C10 UNL     1      22.166   1.753  49.347  1.00  0.00     0.315 C 
HETATM   17  C19 UNL     1      22.193   3.971  49.223  1.00  0.00     0.319 C 
HETATM   18  C11 UNL     1      22.465   2.228  50.724  1.00  0.00    -0.019 C 
HETATM   19  C18 UNL     1      22.469   3.540  50.591  1.00  0.00     0.026 C 
BRANCH  13  20
HETATM   20  N4  UNL     1      20.827   4.584  45.981  1.00  0.00    -0.229 NA
HETATM   21  H6  UNL     1      20.800   3.939  45.148  1.00  0.00     0.144 HD
HETATM   22  H7  UNL     1      20.930   5.536  45.620  1.00  0.00     0.144 HD
ENDBRANCH  13  20
BRANCH  18  23
HETATM   23  C12 UNL     1      22.675   1.334  51.847  1.00  0.00    -0.006 A 
HETATM   24  C13 UNL     1      21.615   0.769  52.505  1.00  0.00     0.015 A 
HETATM   25  C14 UNL     1      21.694  -0.085  53.574  1.00  0.00     0.025 A 
HETATM   26  C15 UNL     1      22.933  -0.431  54.064  1.00  0.00     0.035 A 
HETATM   27 CL1  UNL     1      23.080  -1.517  55.427  1.00  0.00    -0.084 Cl
HETATM   28  C16 UNL     1      24.035   0.104  53.444  1.00  0.00     0.048 A 
HETATM   29  C17 UNL     1      23.889   0.957  52.373  1.00  0.00     0.046 A 
HETATM   30 CL2  UNL     1      25.371   1.556  51.701  1.00  0.00    -0.083 Cl
ENDBRANCH  18  23
ENDBRANCH   9  11
ENDBRANCH   7   9
TORSDOF 4
ENDMDL
MODEL 7
REMARK VINA RESULT:      -8.7      3.892      7.077
REMARK  4 active torsions:
REMARK  status: ('A' for Active; 'I' for Inactive)
REMARK    1  A    between atoms: C7_7  and  N1_8 
REMARK    2  A    between atoms: N1_8  and  C8_9 
REMARK    3  A    between atoms: N3_11  and  N4_12 
REMARK    4  A    between atoms: C11_16  and  C12_17 
ROOT
HETATM    1  C1  UNL     1      23.626   8.106  50.401  1.00  0.00     0.018 C 
HETATM    2  C2  UNL     1      24.469   7.289  50.056  1.00  0.00    -0.078 C 
HETATM    3  C3  UNL     1      25.441   6.314  49.644  1.00  0.00     0.019 A 
HETATM    4  C4  UNL     1      26.584   6.651  48.958  1.00  0.00     0.021 A 
HETATM    5  C5  UNL     1      27.497   5.685  48.581  1.00  0.00     0.004 A 
HETATM    6  C6  UNL     1      27.207   4.361  48.928  1.00  0.00     0.029 A 
HETATM    7  C7  UNL     1      26.061   4.014  49.617  1.00  0.00     0.034 A 
HETATM    8  C20 UNL     1      25.161   5.012  49.983  1.00  0.00     0.050 A 
ENDROOT
BRANCH   7   9
HETATM    9  N1  UNL     1      25.958   2.598  49.876  1.00  0.00    -0.341 N 
HETATM   10  H5  UNL     1      25.571   1.788  49.330  1.00  0.00     0.167 HD
BRANCH   9  11
HETATM   11  C8  UNL     1      26.503   2.247  51.155  1.00  0.00     0.163 C 
HETATM   12  N2  UNL     1      27.569   2.766  51.699  1.00  0.00    -0.144 NA
HETATM   13  N3  UNL     1      27.939   2.285  52.959  1.00  0.00    -0.205 N 
HETATM   14  C9  UNL     1      26.861   2.217  53.965  1.00  0.00     0.438 C 
HETATM   15  N5  UNL     1      25.602   2.013  53.287  1.00  0.00     0.128 N 
HETATM   16  C10 UNL     1      24.703   1.098  53.912  1.00  0.00     0.315 C 
HETATM   17  C19 UNL     1      25.950   1.240  52.077  1.00  0.00     0.319 C 
HETATM   18  C11 UNL     1      23.839   0.616  52.801  1.00  0.00    -0.019 C 
HETATM   19  C18 UNL     1      24.624   0.723  51.747  1.00  0.00     0.026 C 
BRANCH  13  20
HETATM   20  N4  UNL     1      29.209   1.856  53.399  1.00  0.00    -0.229 NA
HETATM   21  H6  UNL     1      29.887   2.654  53.508  1.00  0.00     0.144 HD
HETATM   22  H7  UNL     1      29.608   1.216  52.707  1.00  0.00     0.144 HD
ENDBRANCH  13  20
BRANCH  18  23
HETATM   23  C12 UNL     1      22.473   0.166  52.993  1.00  0.00    -0.006 A 
HETATM   24  C13 UNL     1      21.475   0.564  52.144  1.00  0.00     0.015 A 
HETATM   25  C14 UNL     1      20.156   0.205  52.229  1.00  0.00     0.025 A 
HETATM   26  C15 UNL     1      19.754  -0.631  53.247  1.00  0.00     0.035 A 
HETATM   27 CL1  UNL     1      18.079  -1.114  53.393  1.00  0.00    -0.084 Cl
HETATM   28  C16 UNL     1      20.711  -1.064  54.130  1.00  0.00     0.048 A 
HETATM   29  C17 UNL     1      22.021  -0.667  53.991  1.00  0.00     0.046 A 
HETATM   30 CL2  UNL     1      23.112  -1.291  55.185  1.00  0.00    -0.083 Cl
ENDBRANCH  18  23
ENDBRANCH   9  11
ENDBRANCH   7   9
TORSDOF 4
ENDMDL
MODEL 8
REMARK VINA RESULT:      -8.7      3.640      6.482
REMARK  4 active torsions:
REMARK  status: ('A' for Active; 'I' for Inactive)
REMARK    1  A    between atoms: C7_7  and  N1_8 
REMARK    2  A    between atoms: N1_8  and  C8_9 
REMARK    3  A    between atoms: N3_11  and  N4_12 
REMARK    4  A    between atoms: C11_16  and  C12_17 
ROOT
HETATM    1  C1  UNL     1      28.583   5.388  48.261  1.00  0.00     0.018 C 
HETATM    2  C2  UNL     1      27.719   6.218  48.511  1.00  0.00    -0.078 C 
HETATM    3  C3  UNL     1      26.709   7.188  48.829  1.00  0.00     0.019 A 
HETATM    4  C4  UNL     1      26.580   8.375  48.147  1.00  0.00     0.021 A 
HETATM    5  C5  UNL     1      25.593   9.283  48.481  1.00  0.00     0.004 A 
HETATM    6  C6  UNL     1      24.740   8.941  49.534  1.00  0.00     0.029 A 
HETATM    7  C7  UNL     1      24.862   7.750  50.226  1.00  0.00     0.034 A 
HETATM    8  C20 UNL     1      25.867   6.857  49.864  1.00  0.00     0.050 A 
ENDROOT
BRANCH   7   9
HETATM    9  N1  UNL     1      23.880   7.594  51.272  1.00  0.00    -0.341 N 
HETATM   10  H5  UNL     1      23.838   7.897  52.277  1.00  0.00     0.167 HD
BRANCH   9  11
HETATM   11  C8  UNL     1      22.729   6.868  50.820  1.00  0.00     0.163 C 
HETATM   12  N2  UNL     1      21.802   7.324  50.024  1.00  0.00    -0.144 NA
HETATM   13  N3  UNL     1      20.755   6.454  49.701  1.00  0.00    -0.205 N 
HETATM   14  C9  UNL     1      21.153   5.102  49.264  1.00  0.00     0.438 C 
HETATM   15  N5  UNL     1      22.412   4.761  49.885  1.00  0.00     0.128 N 
HETATM   16  C10 UNL     1      22.529   3.418  50.352  1.00  0.00     0.315 C 
HETATM   17  C19 UNL     1      22.397   5.477  51.178  1.00  0.00     0.319 C 
HETATM   18  C11 UNL     1      23.561   3.489  51.420  1.00  0.00    -0.019 C 
HETATM   19  C18 UNL     1      23.439   4.722  51.870  1.00  0.00     0.026 C 
BRANCH  13  20
HETATM   20  N4  UNL     1      19.366   6.698  49.736  1.00  0.00    -0.229 NA
HETATM   21  H6  UNL     1      18.965   6.873  48.779  1.00  0.00     0.144 HD
HETATM   22  H7  UNL     1      19.185   7.536  50.296  1.00  0.00     0.144 HD
ENDBRANCH  13  20
BRANCH  18  23
HETATM   23  C12 UNL     1      24.424   2.375  51.769  1.00  0.00    -0.006 A 
HETATM   24  C13 UNL     1      23.999   1.402  52.633  1.00  0.00     0.015 A 
HETATM   25  C14 UNL     1      24.724   0.310  53.034  1.00  0.00     0.025 A 
HETATM   26  C15 UNL     1      26.002   0.140  52.549  1.00  0.00     0.035 A 
HETATM   27 CL1  UNL     1      26.963  -1.238  53.034  1.00  0.00    -0.084 Cl
HETATM   28  C16 UNL     1      26.483   1.086  51.677  1.00  0.00     0.048 A 
HETATM   29  C17 UNL     1      25.704   2.161  51.313  1.00  0.00     0.046 A 
HETATM   30 CL2  UNL     1      26.449   3.272  50.211  1.00  0.00    -0.083 Cl
ENDBRANCH  18  23
ENDBRANCH   9  11
ENDBRANCH   7   9
TORSDOF 4
ENDMDL
MODEL 9
REMARK VINA RESULT:      -8.6      4.825      6.576
REMARK  4 active torsions:
REMARK  status: ('A' for Active; 'I' for Inactive)
REMARK    1  A    between atoms: C7_7  and  N1_8 
REMARK    2  A    between atoms: N1_8  and  C8_9 
REMARK    3  A    between atoms: N3_11  and  N4_12 
REMARK    4  A    between atoms: C11_16  and  C12_17 
ROOT
HETATM    1  C1  UNL     1      22.318  -1.024  54.240  1.00  0.00     0.018 C 
HETATM    2  C2  UNL     1      23.333  -0.594  53.707  1.00  0.00    -0.078 C 
HETATM    3  C3  UNL     1      24.522  -0.070  53.095  1.00  0.00     0.019 A 
HETATM    4  C4  UNL     1      25.634  -0.841  52.856  1.00  0.00     0.021 A 
HETATM    5  C5  UNL     1      26.759  -0.301  52.263  1.00  0.00     0.004 A 
HETATM    6  C6  UNL     1      26.713   1.054  51.920  1.00  0.00     0.029 A 
HETATM    7  C7  UNL     1      25.598   1.837  52.157  1.00  0.00     0.034 A 
HETATM    8  C20 UNL     1      24.481   1.261  52.756  1.00  0.00     0.050 A 
ENDROOT
BRANCH   7   9
HETATM    9  N1  UNL     1      25.759   3.204  51.724  1.00  0.00    -0.341 N 
HETATM   10  H5  UNL     1      26.353   4.004  52.056  1.00  0.00     0.167 HD
BRANCH   9  11
HETATM   11  C8  UNL     1      24.918   3.512  50.604  1.00  0.00     0.163 C 
HETATM   12  N2  UNL     1      23.637   3.280  50.523  1.00  0.00    -0.144 NA
HETATM   13  N3  UNL     1      22.996   3.657  49.338  1.00  0.00    -0.205 N 
HETATM   14  C9  UNL     1      23.275   5.025  48.861  1.00  0.00     0.438 C 
HETATM   15  N5  UNL     1      24.595   5.412  49.300  1.00  0.00     0.128 N 
HETATM   16  C10 UNL     1      25.378   6.133  48.350  1.00  0.00     0.315 C 
HETATM   17  C19 UNL     1      25.359   4.148  49.349  1.00  0.00     0.319 C 
HETATM   18  C11 UNL     1      26.783   5.878  48.763  1.00  0.00    -0.019 C 
HETATM   19  C18 UNL     1      26.712   4.698  49.346  1.00  0.00     0.026 C 
BRANCH  13  20
HETATM   20  N4  UNL     1      22.113   2.901  48.538  1.00  0.00    -0.229 NA
HETATM   21  H6  UNL     1      21.757   2.043  49.033  1.00  0.00     0.144 HD
HETATM   22  H7  UNL     1      22.606   2.582  47.700  1.00  0.00     0.144 HD
ENDBRANCH  13  20
BRANCH  18  23
HETATM   23  C12 UNL     1      27.869   6.808  48.509  1.00  0.00    -0.006 A 
HETATM   24  C13 UNL     1      28.902   6.473  47.676  1.00  0.00     0.015 A 
HETATM   25  C14 UNL     1      29.975   7.266  47.366  1.00  0.00     0.025 A 
HETATM   26  C15 UNL     1      30.062   8.522  47.923  1.00  0.00     0.035 A 
HETATM   27 CL1  UNL     1      31.415   9.568  47.556  1.00  0.00    -0.084 Cl
HETATM   28  C16 UNL     1      29.053   8.915  48.768  1.00  0.00     0.048 A 
HETATM   29  C17 UNL     1      28.001   8.071  49.039  1.00  0.00     0.046 A 
HETATM   30 CL2  UNL     1      26.809   8.705  50.127  1.00  0.00    -0.083 Cl
ENDBRANCH  18  23
ENDBRANCH   9  11
ENDBRANCH   7   9
TORSDOF 4
ENDMDL
