MODEL 1
REMARK VINA RESULT:      -9.8      0.000      0.000
REMARK  4 active torsions:
REMARK  status: ('A' for Active; 'I' for Inactive)
REMARK    1  A    between atoms: C14_17  and  O4_18 
REMARK    2  A    between atoms: O4_18  and  C15_19 
REMARK    3  A    between atoms: C15_19  and  C16_20 
REMARK    4  A    between atoms: C16_20  and  N1_21 
ROOT
HETATM    1  O1  UNL     1      20.271   6.773  49.952  1.00  0.00    -0.293 OA
HETATM    2  C1  UNL     1      21.232   5.983  50.099  1.00  0.00     0.158 C 
HETATM    3  C2  UNL     1      22.378   6.823  50.503  1.00  0.00     0.110 C 
HETATM    4  C3  UNL     1      23.538   5.880  50.445  1.00  0.00     0.187 C 
HETATM    5  O2  UNL     1      23.555   4.728  51.052  1.00  0.00    -0.317 OA
HETATM    6  C4  UNL     1      24.116   3.606  51.448  1.00  0.00     0.296 C 
HETATM    7  O3  UNL     1      25.291   3.474  51.141  1.00  0.00    -0.259 OA
HETATM    8  C5  UNL     1      23.200   2.680  52.195  1.00  0.00     0.076 A 
HETATM    9  C6  UNL     1      21.872   3.067  52.295  1.00  0.00     0.058 A 
HETATM   10  C7  UNL     1      20.947   2.184  52.780  1.00  0.00     0.081 A 
HETATM   11  C8  UNL     1      21.389   0.939  53.155  1.00  0.00     0.010 A 
HETATM   12  C9  UNL     1      20.312   0.219  53.587  1.00  0.00     0.015 A 
HETATM   13  C10 UNL     1      20.682  -1.080  53.962  1.00  0.00     0.001 A 
HETATM   14  C11 UNL     1      22.006  -1.508  53.875  1.00  0.00     0.001 A 
HETATM   15  C12 UNL     1      23.016  -0.667  53.415  1.00  0.00     0.015 A 
HETATM   16  C13 UNL     1      22.728   0.627  53.029  1.00  0.00     0.011 A 
HETATM   17  C14 UNL     1      23.718   1.462  52.548  1.00  0.00     0.096 A 
HETATM   18  O5  UNL     1      19.884   3.024  52.657  1.00  0.00    -0.350 OA
HETATM   19  C21 UNL     1      19.168   3.348  51.542  1.00  0.00     0.185 C 
HETATM   20  C22 UNL     1      19.481   3.906  50.279  1.00  0.00     0.050 A 
HETATM   21  C23 UNL     1      19.247   2.772  49.241  1.00  0.00     0.038 A 
HETATM   22  C24 UNL     1      19.922   2.843  47.993  1.00  0.00    -0.026 A 
HETATM   23  C25 UNL     1      20.804   3.673  47.471  1.00  0.00    -0.003 A 
HETATM   24  C26 UNL     1      21.032   4.684  48.528  1.00  0.00     0.011 A 
HETATM   25  C27 UNL     1      20.473   4.759  49.744  1.00  0.00    -0.006 A 
ENDROOT
BRANCH  17  26
HETATM   26  O4  UNL     1      25.047   1.161  52.425  1.00  0.00    -0.347 OA
BRANCH  26  27
HETATM   27  C15 UNL     1      25.885   1.211  53.555  1.00  0.00     0.206 C 
BRANCH  27  28
HETATM   28  C16 UNL     1      27.325   1.436  53.176  1.00  0.00     0.299 C 
BRANCH  28  29
HETATM   29  N1  UNL     1      28.085   0.369  53.843  1.00  0.00     0.090 N 
HETATM   30  C17 UNL     1      27.736  -0.938  53.366  1.00  0.00     0.272 C 
HETATM   31  C18 UNL     1      29.002  -1.693  53.095  1.00  0.00     0.032 C 
HETATM   32  C19 UNL     1      30.075  -0.884  53.771  1.00  0.00     0.032 C 
HETATM   33  C20 UNL     1      29.505   0.522  53.707  1.00  0.00     0.272 C 
ENDBRANCH  28  29
ENDBRANCH  27  28
ENDBRANCH  26  27
ENDBRANCH  17  26
TORSDOF 4
ENDMDL
MODEL 2
REMARK VINA RESULT:      -9.0      1.415      1.957
REMARK  4 active torsions:
REMARK  status: ('A' for Active; 'I' for Inactive)
REMARK    1  A    between atoms: C14_17  and  O4_18 
REMARK    2  A    between atoms: O4_18  and  C15_19 
REMARK    3  A    between atoms: C15_19  and  C16_20 
REMARK    4  A    between atoms: C16_20  and  N1_21 
ROOT
HETATM    1  O1  UNL     1      23.226   7.849  48.704  1.00  0.00    -0.293 OA
HETATM    2  C1  UNL     1      23.769   6.736  48.897  1.00  0.00     0.158 C 
HETATM    3  C2  UNL     1      25.190   7.031  49.173  1.00  0.00     0.110 C 
HETATM    4  C3  UNL     1      25.833   5.680  49.170  1.00  0.00     0.187 C 
HETATM    5  O2  UNL     1      25.405   4.683  49.891  1.00  0.00    -0.317 OA
HETATM    6  C4  UNL     1      25.465   3.462  50.379  1.00  0.00     0.296 C 
HETATM    7  O3  UNL     1      26.446   2.816  50.046  1.00  0.00    -0.259 OA
HETATM    8  C5  UNL     1      24.302   3.081  51.248  1.00  0.00     0.076 A 
HETATM    9  C6  UNL     1      23.275   4.006  51.355  1.00  0.00     0.058 A 
HETATM   10  C7  UNL     1      22.102   3.647  51.959  1.00  0.00     0.081 A 
HETATM   11  C8  UNL     1      22.001   2.366  52.444  1.00  0.00     0.010 A 
HETATM   12  C9  UNL     1      20.756   2.214  52.985  1.00  0.00     0.015 A 
HETATM   13  C10 UNL     1      20.567   0.915  53.477  1.00  0.00     0.001 A 
HETATM   14  C11 UNL     1      21.574  -0.045  53.387  1.00  0.00     0.001 A 
HETATM   15  C12 UNL     1      22.808   0.242  52.809  1.00  0.00     0.015 A 
HETATM   16  C13 UNL     1      23.067   1.500  52.303  1.00  0.00     0.011 A 
HETATM   17  C14 UNL     1      24.279   1.789  51.706  1.00  0.00     0.096 A 
HETATM   18  O5  UNL     1      21.490   4.850  51.789  1.00  0.00    -0.350 OA
HETATM   19  C21 UNL     1      20.897   5.363  50.672  1.00  0.00     0.185 C 
HETATM   20  C22 UNL     1      21.321   5.634  49.349  1.00  0.00     0.050 A 
HETATM   21  C23 UNL     1      20.551   4.633  48.440  1.00  0.00     0.038 A 
HETATM   22  C24 UNL     1      21.096   4.311  47.169  1.00  0.00    -0.026 A 
HETATM   23  C25 UNL     1      22.205   4.639  46.535  1.00  0.00    -0.003 A 
HETATM   24  C26 UNL     1      22.919   5.533  47.475  1.00  0.00     0.011 A 
HETATM   25  C27 UNL     1      22.538   5.934  48.696  1.00  0.00    -0.006 A 
ENDROOT
BRANCH  17  26
HETATM   26  O4  UNL     1      25.341   0.938  51.567  1.00  0.00    -0.347 OA
BRANCH  26  27
HETATM   27  C15 UNL     1      25.942   0.375  52.709  1.00  0.00     0.206 C 
BRANCH  27  28
HETATM   28  C16 UNL     1      26.892   1.336  53.374  1.00  0.00     0.299 C 
BRANCH  28  29
HETATM   29  N1  UNL     1      27.941   0.505  53.981  1.00  0.00     0.090 N 
HETATM   30  C17 UNL     1      27.801  -0.885  53.654  1.00  0.00     0.272 C 
HETATM   31  C18 UNL     1      29.142  -1.407  53.235  1.00  0.00     0.032 C 
HETATM   32  C19 UNL     1      30.113  -0.345  53.675  1.00  0.00     0.032 C 
HETATM   33  C20 UNL     1      29.266   0.912  53.609  1.00  0.00     0.272 C 
ENDBRANCH  28  29
ENDBRANCH  27  28
ENDBRANCH  26  27
ENDBRANCH  17  26
TORSDOF 4
ENDMDL
MODEL 3
REMARK VINA RESULT:      -8.8      2.678      6.162
REMARK  4 active torsions:
REMARK  status: ('A' for Active; 'I' for Inactive)
REMARK    1  A    between atoms: C14_17  and  O4_18 
REMARK    2  A    between atoms: O4_18  and  C15_19 
REMARK    3  A    between atoms: C15_19  and  C16_20 
REMARK    4  A    between atoms: C16_20  and  N1_21 
ROOT
HETATM    1  O1  UNL     1      23.526   6.888  46.620  1.00  0.00    -0.293 OA
HETATM    2  C1  UNL     1      23.009   6.068  47.413  1.00  0.00     0.158 C 
HETATM    3  C2  UNL     1      22.035   5.301  46.611  1.00  0.00     0.110 C 
HETATM    4  C3  UNL     1      21.292   4.503  47.636  1.00  0.00     0.187 C 
HETATM    5  O2  UNL     1      21.880   3.748  48.520  1.00  0.00    -0.317 OA
HETATM    6  C4  UNL     1      21.905   2.873  49.501  1.00  0.00     0.296 C 
HETATM    7  O3  UNL     1      20.814   2.447  49.848  1.00  0.00    -0.259 OA
HETATM    8  C5  UNL     1      23.276   2.567  50.029  1.00  0.00     0.076 A 
HETATM    9  C6  UNL     1      24.326   3.299  49.495  1.00  0.00     0.058 A 
HETATM   10  C7  UNL     1      25.566   3.219  50.068  1.00  0.00     0.081 A 
HETATM   11  C8  UNL     1      25.711   2.398  51.160  1.00  0.00     0.010 A 
HETATM   12  C9  UNL     1      27.008   2.480  51.581  1.00  0.00     0.015 A 
HETATM   13  C10 UNL     1      27.227   1.686  52.716  1.00  0.00     0.001 A 
HETATM   14  C11 UNL     1      26.198   0.937  53.284  1.00  0.00     0.001 A 
HETATM   15  C12 UNL     1      24.912   0.941  52.750  1.00  0.00     0.015 A 
HETATM   16  C13 UNL     1      24.620   1.697  51.633  1.00  0.00     0.011 A 
HETATM   17  C14 UNL     1      23.342   1.727  51.110  1.00  0.00     0.096 A 
HETATM   18  O5  UNL     1      26.166   4.087  49.210  1.00  0.00    -0.350 OA
HETATM   19  C21 UNL     1      26.127   5.451  49.198  1.00  0.00     0.185 C 
HETATM   20  C22 UNL     1      25.099   6.421  49.121  1.00  0.00     0.050 A 
HETATM   21  C23 UNL     1      25.083   7.136  50.503  1.00  0.00     0.038 A 
HETATM   22  C24 UNL     1      23.891   7.788  50.917  1.00  0.00    -0.026 A 
HETATM   23  C25 UNL     1      22.683   7.910  50.401  1.00  0.00    -0.003 A 
HETATM   24  C26 UNL     1      22.747   7.157  49.128  1.00  0.00     0.011 A 
HETATM   25  C27 UNL     1      23.788   6.499  48.599  1.00  0.00    -0.006 A 
ENDROOT
BRANCH  17  26
HETATM   26  O4  UNL     1      22.257   1.032  51.571  1.00  0.00    -0.347 OA
BRANCH  26  27
HETATM   27  C15 UNL     1      21.851   1.176  52.912  1.00  0.00     0.206 C 
BRANCH  27  28
HETATM   28  C16 UNL     1      20.371   1.433  53.025  1.00  0.00     0.299 C 
BRANCH  28  29
HETATM   29  N1  UNL     1      19.716   0.260  52.430  1.00  0.00     0.090 N 
HETATM   30  C17 UNL     1      19.420  -0.757  53.397  1.00  0.00     0.272 C 
HETATM   31  C18 UNL     1      18.009  -1.213  53.184  1.00  0.00     0.032 C 
HETATM   32  C19 UNL     1      17.636  -0.663  51.834  1.00  0.00     0.032 C 
HETATM   33  C20 UNL     1      18.497   0.583  51.746  1.00  0.00     0.272 C 
ENDBRANCH  28  29
ENDBRANCH  27  28
ENDBRANCH  26  27
ENDBRANCH  17  26
TORSDOF 4
ENDMDL
MODEL 4
REMARK VINA RESULT:      -8.6      2.922      4.528
REMARK  4 active torsions:
REMARK  status: ('A' for Active; 'I' for Inactive)
REMARK    1  A    between atoms: C14_17  and  O4_18 
REMARK    2  A    between atoms: O4_18  and  C15_19 
REMARK    3  A    between atoms: C15_19  and  C16_20 
REMARK    4  A    between atoms: C16_20  and  N1_21 
ROOT
HETATM    1  O1  UNL     1      25.850  10.021  48.031  1.00  0.00    -0.293 OA
HETATM    2  C1  UNL     1      26.050   8.788  48.124  1.00  0.00     0.158 C 
HETATM    3  C2  UNL     1      27.498   8.639  48.371  1.00  0.00     0.110 C 
HETATM    4  C3  UNL     1      27.723   7.165  48.250  1.00  0.00     0.187 C 
HETATM    5  O2  UNL     1      27.034   6.280  48.912  1.00  0.00    -0.317 OA
HETATM    6  C4  UNL     1      26.745   5.059  49.310  1.00  0.00     0.296 C 
HETATM    7  O3  UNL     1      27.493   4.186  48.898  1.00  0.00    -0.259 OA
HETATM    8  C5  UNL     1      25.532   4.961  50.189  1.00  0.00     0.076 A 
HETATM    9  C6  UNL     1      24.819   6.132  50.397  1.00  0.00     0.058 A 
HETATM   10  C7  UNL     1      23.599   6.079  51.015  1.00  0.00     0.081 A 
HETATM   11  C8  UNL     1      23.138   4.846  51.409  1.00  0.00     0.010 A 
HETATM   12  C9  UNL     1      21.910   5.017  51.981  1.00  0.00     0.015 A 
HETATM   13  C10 UNL     1      21.359   3.793  52.386  1.00  0.00     0.001 A 
HETATM   14  C11 UNL     1      22.044   2.593  52.193  1.00  0.00     0.001 A 
HETATM   15  C12 UNL     1      23.301   2.559  51.594  1.00  0.00     0.015 A 
HETATM   16  C13 UNL     1      23.907   3.725  51.171  1.00  0.00     0.011 A 
HETATM   17  C14 UNL     1      25.143   3.699  50.554  1.00  0.00     0.096 A 
HETATM   18  O5  UNL     1      23.359   7.416  50.952  1.00  0.00    -0.350 OA
HETATM   19  C21 UNL     1      22.926   8.163  49.896  1.00  0.00     0.185 C 
HETATM   20  C22 UNL     1      23.394   8.403  48.581  1.00  0.00     0.050 A 
HETATM   21  C23 UNL     1      22.356   7.741  47.631  1.00  0.00     0.038 A 
HETATM   22  C24 UNL     1      22.769   7.376  46.322  1.00  0.00    -0.026 A 
HETATM   23  C25 UNL     1      23.917   7.420  45.674  1.00  0.00    -0.003 A 
HETATM   24  C26 UNL     1      24.871   7.995  46.650  1.00  0.00     0.011 A 
HETATM   25  C27 UNL     1      24.637   8.391  47.909  1.00  0.00    -0.006 A 
ENDROOT
BRANCH  17  26
HETATM   26  O4  UNL     1      25.912   2.592  50.318  1.00  0.00    -0.347 OA
BRANCH  26  27
HETATM   27  C15 UNL     1      26.777   2.113  51.321  1.00  0.00     0.206 C 
BRANCH  27  28
HETATM   28  C16 UNL     1      26.378   0.741  51.796  1.00  0.00     0.299 C 
BRANCH  28  29
HETATM   29  N1  UNL     1      27.143   0.509  53.030  1.00  0.00     0.090 N 
HETATM   30  C17 UNL     1      27.806  -0.763  53.037  1.00  0.00     0.272 C 
HETATM   31  C18 UNL     1      29.220  -0.553  53.485  1.00  0.00     0.032 C 
HETATM   32  C19 UNL     1      29.229   0.834  54.067  1.00  0.00     0.032 C 
HETATM   33  C20 UNL     1      28.131   1.521  53.277  1.00  0.00     0.272 C 
ENDBRANCH  28  29
ENDBRANCH  27  28
ENDBRANCH  26  27
ENDBRANCH  17  26
TORSDOF 4
ENDMDL
MODEL 5
REMARK VINA RESULT:      -8.4      3.224      6.550
REMARK  4 active torsions:
REMARK  status: ('A' for Active; 'I' for Inactive)
REMARK    1  A    between atoms: C14_17  and  O4_18 
REMARK    2  A    between atoms: O4_18  and  C15_19 
REMARK    3  A    between atoms: C15_19  and  C16_20 
REMARK    4  A    between atoms: C16_20  and  N1_21 
ROOT
HETATM    1  O1  UNL     1      22.382  -0.238  52.289  1.00  0.00    -0.293 OA
HETATM    2  C1  UNL     1      22.540   0.994  52.127  1.00  0.00     0.158 C 
HETATM    3  C2  UNL     1      23.776   1.334  52.861  1.00  0.00     0.110 C 
HETATM    4  C3  UNL     1      23.799   2.830  52.830  1.00  0.00     0.187 C 
HETATM    5  O2  UNL     1      23.690   3.525  51.734  1.00  0.00    -0.317 OA
HETATM    6  C4  UNL     1      23.688   4.637  51.032  1.00  0.00     0.296 C 
HETATM    7  O3  UNL     1      23.932   5.653  51.664  1.00  0.00    -0.259 OA
HETATM    8  C5  UNL     1      23.369   4.455  49.576  1.00  0.00     0.076 A 
HETATM    9  C6  UNL     1      23.027   3.174  49.170  1.00  0.00     0.058 A 
HETATM   10  C7  UNL     1      22.531   2.975  47.911  1.00  0.00     0.081 A 
HETATM   11  C8  UNL     1      22.398   4.074  47.097  1.00  0.00     0.010 A 
HETATM   12  C9  UNL     1      21.874   3.658  45.906  1.00  0.00     0.015 A 
HETATM   13  C10 UNL     1      21.682   4.734  45.028  1.00  0.00     0.001 A 
HETATM   14  C11 UNL     1      22.011   6.037  45.399  1.00  0.00     0.001 A 
HETATM   15  C12 UNL     1      22.544   6.326  46.653  1.00  0.00     0.015 A 
HETATM   16  C13 UNL     1      22.762   5.318  47.570  1.00  0.00     0.011 A 
HETATM   17  C14 UNL     1      23.269   5.597  48.825  1.00  0.00     0.096 A 
HETATM   18  O5  UNL     1      22.367   1.631  48.043  1.00  0.00    -0.350 OA
HETATM   19  C21 UNL     1      21.373   0.943  48.674  1.00  0.00     0.185 C 
HETATM   20  C22 UNL     1      20.854   0.919  49.991  1.00  0.00     0.050 A 
HETATM   21  C23 UNL     1      19.419   1.513  49.896  1.00  0.00     0.038 A 
HETATM   22  C24 UNL     1      18.837   2.073  51.064  1.00  0.00    -0.026 A 
HETATM   23  C25 UNL     1      19.261   2.274  52.297  1.00  0.00    -0.003 A 
HETATM   24  C26 UNL     1      20.646   1.751  52.302  1.00  0.00     0.011 A 
HETATM   25  C27 UNL     1      21.330   1.191  51.294  1.00  0.00    -0.006 A 
ENDROOT
BRANCH  17  26
HETATM   26  O4  UNL     1      23.635   6.827  49.300  1.00  0.00    -0.347 OA
BRANCH  26  27
HETATM   27  C15 UNL     1      24.818   7.434  48.835  1.00  0.00     0.206 C 
BRANCH  27  28
HETATM   28  C16 UNL     1      26.035   6.916  49.556  1.00  0.00     0.299 C 
BRANCH  28  29
HETATM   29  N1  UNL     1      27.005   6.575  48.507  1.00  0.00     0.090 N 
HETATM   30  C17 UNL     1      28.076   7.526  48.415  1.00  0.00     0.272 C 
HETATM   31  C18 UNL     1      29.369   6.772  48.346  1.00  0.00     0.032 C 
HETATM   32  C19 UNL     1      28.964   5.354  48.048  1.00  0.00     0.032 C 
HETATM   33  C20 UNL     1      27.587   5.275  48.681  1.00  0.00     0.272 C 
ENDBRANCH  28  29
ENDBRANCH  27  28
ENDBRANCH  26  27
ENDBRANCH  17  26
TORSDOF 4
ENDMDL
MODEL 6
REMARK VINA RESULT:      -8.4      2.949      6.006
REMARK  4 active torsions:
REMARK  status: ('A' for Active; 'I' for Inactive)
REMARK    1  A    between atoms: C14_17  and  O4_18 
REMARK    2  A    between atoms: O4_18  and  C15_19 
REMARK    3  A    between atoms: C15_19  and  C16_20 
REMARK    4  A    between atoms: C16_20  and  N1_21 
ROOT
HETATM    1  O1  UNL     1      23.337   6.919  46.645  1.00  0.00    -0.293 OA
HETATM    2  C1  UNL     1      22.726   5.949  47.151  1.00  0.00     0.158 C 
HETATM    3  C2  UNL     1      22.232   5.153  46.009  1.00  0.00     0.110 C 
HETATM    4  C3  UNL     1      21.329   4.147  46.650  1.00  0.00     0.187 C 
HETATM    5  O2  UNL     1      21.697   3.384  47.640  1.00  0.00    -0.317 OA
HETATM    6  C4  UNL     1      21.531   2.412  48.511  1.00  0.00     0.296 C 
HETATM    7  O3  UNL     1      20.477   1.803  48.418  1.00  0.00    -0.259 OA
HETATM    8  C5  UNL     1      22.668   2.239  49.476  1.00  0.00     0.076 A 
HETATM    9  C6  UNL     1      23.696   3.167  49.398  1.00  0.00     0.058 A 
HETATM   10  C7  UNL     1      24.658   3.193  50.371  1.00  0.00     0.081 A 
HETATM   11  C8  UNL     1      24.556   2.279  51.391  1.00  0.00     0.010 A 
HETATM   12  C9  UNL     1      25.595   2.490  52.253  1.00  0.00     0.015 A 
HETATM   13  C10 UNL     1      25.542   1.608  53.342  1.00  0.00     0.001 A 
HETATM   14  C11 UNL     1      24.524   0.663  53.459  1.00  0.00     0.001 A 
HETATM   15  C12 UNL     1      23.519   0.551  52.501  1.00  0.00     0.015 A 
HETATM   16  C13 UNL     1      23.505   1.384  51.400  1.00  0.00     0.011 A 
HETATM   17  C14 UNL     1      22.499   1.298  50.457  1.00  0.00     0.096 A 
HETATM   18  O5  UNL     1      25.359   4.228  49.837  1.00  0.00    -0.350 OA
HETATM   19  C21 UNL     1      25.096   5.566  49.893  1.00  0.00     0.185 C 
HETATM   20  C22 UNL     1      24.008   6.388  49.511  1.00  0.00     0.050 A 
HETATM   21  C23 UNL     1      23.396   6.928  50.835  1.00  0.00     0.038 A 
HETATM   22  C24 UNL     1      22.042   7.357  50.833  1.00  0.00    -0.026 A 
HETATM   23  C25 UNL     1      21.084   7.370  49.927  1.00  0.00    -0.003 A 
HETATM   24  C26 UNL     1      21.708   6.786  48.719  1.00  0.00     0.011 A 
HETATM   25  C27 UNL     1      22.964   6.343  48.560  1.00  0.00    -0.006 A 
ENDROOT
BRANCH  17  26
HETATM   26  O4  UNL     1      21.457   0.411  50.457  1.00  0.00    -0.347 OA
BRANCH  26  27
HETATM   27  C15 UNL     1      20.607   0.329  51.577  1.00  0.00     0.206 C 
BRANCH  27  28
HETATM   28  C16 UNL     1      19.175   0.622  51.216  1.00  0.00     0.299 C 
BRANCH  28  29
HETATM   29  N1  UNL     1      18.918   1.991  51.685  1.00  0.00     0.090 N 
HETATM   30  C17 UNL     1      20.057   2.575  52.333  1.00  0.00     0.272 C 
HETATM   31  C18 UNL     1      20.251   3.957  51.787  1.00  0.00     0.032 C 
HETATM   32  C19 UNL     1      18.967   4.259  51.062  1.00  0.00     0.032 C 
HETATM   33  C20 UNL     1      18.508   2.878  50.633  1.00  0.00     0.272 C 
ENDBRANCH  28  29
ENDBRANCH  27  28
ENDBRANCH  26  27
ENDBRANCH  17  26
TORSDOF 4
ENDMDL
MODEL 7
REMARK VINA RESULT:      -8.1      3.611      6.957
REMARK  4 active torsions:
REMARK  status: ('A' for Active; 'I' for Inactive)
REMARK    1  A    between atoms: C14_17  and  O4_18 
REMARK    2  A    between atoms: O4_18  and  C15_19 
REMARK    3  A    between atoms: C15_19  and  C16_20 
REMARK    4  A    between atoms: C16_20  and  N1_21 
ROOT
HETATM    1  O1  UNL     1      23.789   4.887  47.967  1.00  0.00    -0.293 OA
HETATM    2  C1  UNL     1      22.742   4.317  48.351  1.00  0.00     0.158 C 
HETATM    3  C2  UNL     1      22.078   3.838  47.122  1.00  0.00     0.110 C 
HETATM    4  C3  UNL     1      20.741   3.371  47.608  1.00  0.00     0.187 C 
HETATM    5  O2  UNL     1      20.591   2.529  48.589  1.00  0.00    -0.317 OA
HETATM    6  C4  UNL     1      19.890   1.750  49.385  1.00  0.00     0.296 C 
HETATM    7  O3  UNL     1      18.693   1.703  49.146  1.00  0.00    -0.259 OA
HETATM    8  C5  UNL     1      20.691   1.071  50.457  1.00  0.00     0.076 A 
HETATM    9  C6  UNL     1      22.033   1.411  50.540  1.00  0.00     0.058 A 
HETATM   10  C7  UNL     1      22.771   0.989  51.612  1.00  0.00     0.081 A 
HETATM   11  C8  UNL     1      22.136   0.232  52.565  1.00  0.00     0.010 A 
HETATM   12  C9  UNL     1      23.041  -0.063  53.545  1.00  0.00     0.015 A 
HETATM   13  C10 UNL     1      22.455  -0.813  54.573  1.00  0.00     0.001 A 
HETATM   14  C11 UNL     1      21.109  -1.174  54.529  1.00  0.00     0.001 A 
HETATM   15  C12 UNL     1      20.290  -0.808  53.463  1.00  0.00     0.015 A 
HETATM   16  C13 UNL     1      20.797  -0.069  52.413  1.00  0.00     0.011 A 
HETATM   17  C14 UNL     1      19.988   0.320  51.363  1.00  0.00     0.096 A 
HETATM   18  O5  UNL     1      23.932   1.576  51.213  1.00  0.00    -0.350 OA
HETATM   19  C21 UNL     1      24.314   2.882  51.311  1.00  0.00     0.185 C 
HETATM   20  C22 UNL     1      23.786   4.115  50.857  1.00  0.00     0.050 A 
HETATM   21  C23 UNL     1      23.339   4.884  52.134  1.00  0.00     0.038 A 
HETATM   22  C24 UNL     1      22.350   5.895  52.007  1.00  0.00    -0.026 A 
HETATM   23  C25 UNL     1      21.624   6.350  51.004  1.00  0.00    -0.003 A 
HETATM   24  C26 UNL     1      22.047   5.537  49.842  1.00  0.00     0.011 A 
HETATM   25  C27 UNL     1      22.963   4.559  49.797  1.00  0.00    -0.006 A 
ENDROOT
BRANCH  17  26
HETATM   26  O4  UNL     1      18.662   0.022  51.203  1.00  0.00    -0.347 OA
BRANCH  26  27
HETATM   27  C15 UNL     1      17.694   0.702  51.966  1.00  0.00     0.206 C 
BRANCH  27  28
HETATM   28  C16 UNL     1      16.314   0.556  51.379  1.00  0.00     0.299 C 
BRANCH  28  29
HETATM   29  N1  UNL     1      15.763   1.917  51.313  1.00  0.00     0.090 N 
HETATM   30  C17 UNL     1      14.650   2.105  52.199  1.00  0.00     0.272 C 
HETATM   31  C18 UNL     1      14.854   3.389  52.944  1.00  0.00     0.032 C 
HETATM   32  C19 UNL     1      15.949   4.092  52.189  1.00  0.00     0.032 C 
HETATM   33  C20 UNL     1      16.734   2.931  51.607  1.00  0.00     0.272 C 
ENDBRANCH  28  29
ENDBRANCH  27  28
ENDBRANCH  26  27
ENDBRANCH  17  26
TORSDOF 4
ENDMDL
MODEL 8
REMARK VINA RESULT:      -8.1      3.588      6.701
REMARK  4 active torsions:
REMARK  status: ('A' for Active; 'I' for Inactive)
REMARK    1  A    between atoms: C14_17  and  O4_18 
REMARK    2  A    between atoms: O4_18  and  C15_19 
REMARK    3  A    between atoms: C15_19  and  C16_20 
REMARK    4  A    between atoms: C16_20  and  N1_21 
ROOT
HETATM    1  O1  UNL     1      23.092   4.860  47.693  1.00  0.00    -0.293 OA
HETATM    2  C1  UNL     1      22.092   4.354  48.254  1.00  0.00     0.158 C 
HETATM    3  C2  UNL     1      21.190   3.943  47.159  1.00  0.00     0.110 C 
HETATM    4  C3  UNL     1      19.930   3.560  47.871  1.00  0.00     0.187 C 
HETATM    5  O2  UNL     1      19.897   2.712  48.859  1.00  0.00    -0.317 OA
HETATM    6  C4  UNL     1      19.295   1.969  49.762  1.00  0.00     0.296 C 
HETATM    7  O3  UNL     1      18.074   2.006  49.738  1.00  0.00    -0.259 OA
HETATM    8  C5  UNL     1      20.223   1.217  50.671  1.00  0.00     0.076 A 
HETATM    9  C6  UNL     1      21.579   1.465  50.517  1.00  0.00     0.058 A 
HETATM   10  C7  UNL     1      22.464   0.975  51.439  1.00  0.00     0.081 A 
HETATM   11  C8  UNL     1      21.955   0.246  52.485  1.00  0.00     0.010 A 
HETATM   12  C9  UNL     1      22.996  -0.127  53.287  1.00  0.00     0.015 A 
HETATM   13  C10 UNL     1      22.549  -0.855  54.400  1.00  0.00     0.001 A 
HETATM   14  C11 UNL     1      21.195  -1.123  54.592  1.00  0.00     0.001 A 
HETATM   15  C12 UNL     1      20.229  -0.683  53.690  1.00  0.00     0.015 A 
HETATM   16  C13 UNL     1      20.593   0.038  52.571  1.00  0.00     0.011 A 
HETATM   17  C14 UNL     1      19.640   0.500  51.683  1.00  0.00     0.096 A 
HETATM   18  O5  UNL     1      23.574   1.489  50.844  1.00  0.00    -0.350 OA
HETATM   19  C21 UNL     1      24.057   2.765  50.880  1.00  0.00     0.185 C 
HETATM   20  C22 UNL     1      23.545   4.038  50.534  1.00  0.00     0.050 A 
HETATM   21  C23 UNL     1      23.384   4.812  51.874  1.00  0.00     0.038 A 
HETATM   22  C24 UNL     1      22.461   5.890  51.930  1.00  0.00    -0.026 A 
HETATM   23  C25 UNL     1      21.603   6.411  51.074  1.00  0.00    -0.003 A 
HETATM   24  C26 UNL     1      21.757   5.592  49.850  1.00  0.00     0.011 A 
HETATM   25  C27 UNL     1      22.581   4.556  49.639  1.00  0.00    -0.006 A 
ENDROOT
BRANCH  17  26
HETATM   26  O4  UNL     1      18.290   0.295  51.758  1.00  0.00    -0.347 OA
BRANCH  26  27
HETATM   27  C15 UNL     1      17.786  -1.013  51.893  1.00  0.00     0.206 C 
BRANCH  27  28
HETATM   28  C16 UNL     1      16.315  -1.016  52.219  1.00  0.00     0.299 C 
BRANCH  28  29
HETATM   29  N1  UNL     1      16.095  -2.206  53.053  1.00  0.00     0.090 N 
HETATM   30  C17 UNL     1      15.236  -3.169  52.426  1.00  0.00     0.272 C 
HETATM   31  C18 UNL     1      15.866  -4.521  52.565  1.00  0.00     0.032 C 
HETATM   32  C19 UNL     1      16.940  -4.332  53.601  1.00  0.00     0.032 C 
HETATM   33  C20 UNL     1      17.313  -2.873  53.413  1.00  0.00     0.272 C 
ENDBRANCH  28  29
ENDBRANCH  27  28
ENDBRANCH  26  27
ENDBRANCH  17  26
TORSDOF 4
ENDMDL
MODEL 9
REMARK VINA RESULT:      -8.0     10.654     13.195
REMARK  4 active torsions:
REMARK  status: ('A' for Active; 'I' for Inactive)
REMARK    1  A    between atoms: C14_17  and  O4_18 
REMARK    2  A    between atoms: O4_18  and  C15_19 
REMARK    3  A    between atoms: C15_19  and  C16_20 
REMARK    4  A    between atoms: C16_20  and  N1_21 
ROOT
HETATM    1  O1  UNL     1      30.394  10.823  48.532  1.00  0.00    -0.293 OA
HETATM    2  C1  UNL     1      30.749  10.250  47.476  1.00  0.00     0.158 C 
HETATM    3  C2  UNL     1      31.292  11.316  46.610  1.00  0.00     0.110 C 
HETATM    4  C3  UNL     1      31.489  10.630  45.294  1.00  0.00     0.187 C 
HETATM    5  O2  UNL     1      32.157   9.520  45.159  1.00  0.00    -0.317 OA
HETATM    6  C4  UNL     1      32.709   8.547  44.468  1.00  0.00     0.296 C 
HETATM    7  O3  UNL     1      32.616   8.651  43.255  1.00  0.00    -0.259 OA
HETATM    8  C5  UNL     1      33.343   7.471  45.302  1.00  0.00     0.076 A 
HETATM    9  C6  UNL     1      33.192   7.580  46.676  1.00  0.00     0.058 A 
HETATM   10  C7  UNL     1      33.564   6.538  47.481  1.00  0.00     0.081 A 
HETATM   11  C8  UNL     1      34.083   5.420  46.876  1.00  0.00     0.010 A 
HETATM   12  C9  UNL     1      34.368   4.505  47.850  1.00  0.00     0.015 A 
HETATM   13  C10 UNL     1      34.877   3.318  47.303  1.00  0.00     0.001 A 
HETATM   14  C11 UNL     1      35.042   3.169  45.927  1.00  0.00     0.001 A 
HETATM   15  C12 UNL     1      34.712   4.188  45.037  1.00  0.00     0.015 A 
HETATM   16  C13 UNL     1      34.206   5.385  45.501  1.00  0.00     0.011 A 
HETATM   17  C14 UNL     1      33.852   6.394  44.625  1.00  0.00     0.096 A 
HETATM   18  O5  UNL     1      33.212   7.140  48.649  1.00  0.00    -0.350 OA
HETATM   19  C21 UNL     1      31.974   7.283  49.204  1.00  0.00     0.185 C 
HETATM   20  C22 UNL     1      30.752   7.863  48.786  1.00  0.00     0.050 A 
HETATM   21  C23 UNL     1      29.759   6.681  48.601  1.00  0.00     0.038 A 
HETATM   22  C24 UNL     1      28.643   6.859  47.741  1.00  0.00    -0.026 A 
HETATM   23  C25 UNL     1      28.230   7.839  46.961  1.00  0.00    -0.003 A 
HETATM   24  C26 UNL     1      29.248   8.901  47.131  1.00  0.00     0.011 A 
HETATM   25  C27 UNL     1      30.344   8.889  47.902  1.00  0.00    -0.006 A 
ENDROOT
BRANCH  17  26
HETATM   26  O4  UNL     1      33.975   6.369  43.263  1.00  0.00    -0.347 OA
BRANCH  26  27
HETATM   27  C15 UNL     1      33.194   5.475  42.505  1.00  0.00     0.206 C 
BRANCH  27  28
HETATM   28  C16 UNL     1      33.948   4.942  41.315  1.00  0.00     0.299 C 
BRANCH  28  29
HETATM   29  N1  UNL     1      33.390   3.607  41.056  1.00  0.00     0.090 N 
HETATM   30  C17 UNL     1      32.156   3.658  40.327  1.00  0.00     0.272 C 
HETATM   31  C18 UNL     1      32.226   2.657  39.214  1.00  0.00     0.032 C 
HETATM   32  C19 UNL     1      33.409   1.793  39.557  1.00  0.00     0.032 C 
HETATM   33  C20 UNL     1      34.291   2.753  40.335  1.00  0.00     0.272 C 
ENDBRANCH  28  29
ENDBRANCH  27  28
ENDBRANCH  26  27
ENDBRANCH  17  26
TORSDOF 4
ENDMDL
