MODEL 1
REMARK VINA RESULT:      -8.5      0.000      0.000
REMARK  8 active torsions:
REMARK  status: ('A' for Active; 'I' for Inactive)
REMARK    1  A    between atoms: N1_2  and  C3_4 
REMARK    2  A    between atoms: C3_4  and  C4_5 
REMARK    3  A    between atoms: C5_6  and  C6_7 
REMARK       I    between atoms: C6_7  and  N2_9 
REMARK    4  A    between atoms: N2_9  and  C7_10 
REMARK    5  A    between atoms: C10_13  and  N3_14 
REMARK    6  A    between atoms: N3_14  and  C11_15 
REMARK    7  A    between atoms: C19_26  and  O2_27 
REMARK    8  A    between atoms: O2_27  and  C20_28 
ROOT
HETATM    1  C7  UNL     1      24.190   3.149  51.590  1.00  0.00     0.069 A 
HETATM    2  C8  UNL     1      25.075   2.537  52.480  1.00  0.00     0.050 A 
HETATM    3  C9  UNL     1      24.703   1.375  53.164  1.00  0.00     0.041 A 
HETATM    4  C10 UNL     1      25.560   0.747  54.049  1.00  0.00     0.142 A 
HETATM    5  N4  UNL     1      25.088  -0.380  54.655  1.00  0.00    -0.224 NA
HETATM    6  C16 UNL     1      23.863  -0.842  54.399  1.00  0.00     0.236 A 
HETATM    7  N5  UNL     1      23.035  -0.217  53.530  1.00  0.00    -0.241 NA
HETATM    8  C17 UNL     1      23.451   0.884  52.915  1.00  0.00     0.075 A 
HETATM    9  C18 UNL     1      22.570   1.472  52.045  1.00  0.00     0.071 A 
HETATM   10  C19 UNL     1      22.914   2.616  51.361  1.00  0.00     0.098 A 
ENDROOT
BRANCH   1  11
HETATM   11  N2  UNL     1      24.766   4.300  51.011  1.00  0.00    -0.321 N 
HETATM   12  C6  UNL     1      25.708   4.390  49.943  1.00  0.00     0.245 C 
HETATM   13  O1  UNL     1      26.153   3.372  49.364  1.00  0.00    -0.268 OA
HETATM   14  H11 UNL     1      24.379   5.150  51.512  1.00  0.00     0.169 HD
BRANCH  12  15
HETATM   15  C5  UNL     1      26.138   5.708  49.540  1.00  0.00     0.072 C 
HETATM   16  C4  UNL     1      27.047   5.790  48.591  1.00  0.00     0.008 C 
BRANCH  16  17
HETATM   17  C3  UNL     1      27.626   7.034  48.031  1.00  0.00     0.299 C 
BRANCH  17  18
HETATM   18  N1  UNL     1      29.035   6.883  47.719  1.00  0.00     0.083 N 
HETATM   19  C1  UNL     1      29.832   7.785  48.524  1.00  0.00     0.309 C 
HETATM   20  C2  UNL     1      29.418   5.531  48.119  1.00  0.00     0.309 C 
ENDBRANCH  17  18
ENDBRANCH  16  17
ENDBRANCH  12  15
ENDBRANCH   1  11
BRANCH  10  21
HETATM   21  O2  UNL     1      22.256   3.411  50.447  1.00  0.00    -0.341 OA
BRANCH  21  22
HETATM   22  C20 UNL     1      21.727   2.846  49.271  1.00  0.00     0.154 C 
HETATM   23  C21 UNL     1      22.770   2.800  48.154  1.00  0.00     0.061 C 
HETATM   24  C22 UNL     1      21.965   3.165  46.927  1.00  0.00     0.170 C 
HETATM   25  O3  UNL     1      20.675   3.469  47.353  1.00  0.00    -0.389 OA
HETATM   26  C23 UNL     1      20.761   3.868  48.666  1.00  0.00     0.200 C 
ENDBRANCH  21  22
ENDBRANCH  10  21
BRANCH   4  27
HETATM   27  N3  UNL     1      26.870   1.297  54.287  1.00  0.00    -0.340 N 
HETATM   28  H13 UNL     1      27.148   2.220  54.649  1.00  0.00     0.167 HD
BRANCH  27  29
HETATM   29  C11 UNL     1      27.888   0.364  53.943  1.00  0.00     0.032 A 
HETATM   30  C12 UNL     1      29.171   0.719  54.133  1.00  0.00     0.010 A 
HETATM   31  C13 UNL     1      30.091  -0.383  53.717  1.00  0.00     0.099 A 
HETATM   32  C14 UNL     1      29.117  -1.433  53.256  1.00  0.00     0.099 A 
HETATM   33  F1  UNL     1      29.449  -2.658  52.769  1.00  0.00    -0.210 F 
HETATM   34  C15 UNL     1      27.905  -0.974  53.400  1.00  0.00     0.067 A 
ENDBRANCH  27  29
ENDBRANCH   4  27
TORSDOF 8
ENDMDL
MODEL 2
REMARK VINA RESULT:      -8.3      2.379      3.297
REMARK  8 active torsions:
REMARK  status: ('A' for Active; 'I' for Inactive)
REMARK    1  A    between atoms: N1_2  and  C3_4 
REMARK    2  A    between atoms: C3_4  and  C4_5 
REMARK    3  A    between atoms: C5_6  and  C6_7 
REMARK       I    between atoms: C6_7  and  N2_9 
REMARK    4  A    between atoms: N2_9  and  C7_10 
REMARK    5  A    between atoms: C10_13  and  N3_14 
REMARK    6  A    between atoms: N3_14  and  C11_15 
REMARK    7  A    between atoms: C19_26  and  O2_27 
REMARK    8  A    between atoms: O2_27  and  C20_28 
ROOT
HETATM    1  C7  UNL     1      22.938   1.148  51.653  1.00  0.00     0.069 A 
HETATM    2  C8  UNL     1      24.178   0.985  52.272  1.00  0.00     0.050 A 
HETATM    3  C9  UNL     1      24.297   0.205  53.428  1.00  0.00     0.041 A 
HETATM    4  C10 UNL     1      25.513   0.024  54.061  1.00  0.00     0.142 A 
HETATM    5  N4  UNL     1      25.505  -0.758  55.178  1.00  0.00    -0.224 NA
HETATM    6  C16 UNL     1      24.378  -1.314  55.627  1.00  0.00     0.236 A 
HETATM    7  N5  UNL     1      23.195  -1.129  54.996  1.00  0.00    -0.241 NA
HETATM    8  C17 UNL     1      23.153  -0.374  53.904  1.00  0.00     0.075 A 
HETATM    9  C18 UNL     1      21.927  -0.224  53.308  1.00  0.00     0.071 A 
HETATM   10  C19 UNL     1      21.787   0.539  52.171  1.00  0.00     0.098 A 
ENDROOT
BRANCH   1  11
HETATM   11  N2  UNL     1      23.046   1.967  50.508  1.00  0.00    -0.321 N 
HETATM   12  C6  UNL     1      23.172   3.387  50.431  1.00  0.00     0.245 C 
HETATM   13  O1  UNL     1      23.200   4.106  51.457  1.00  0.00    -0.268 OA
HETATM   14  H11 UNL     1      23.020   1.343  49.653  1.00  0.00     0.169 HD
BRANCH  12  15
HETATM   15  C5  UNL     1      23.267   3.979  49.118  1.00  0.00     0.072 C 
HETATM   16  C4  UNL     1      23.155   5.288  49.029  1.00  0.00     0.008 C 
BRANCH  16  17
HETATM   17  C3  UNL     1      23.221   6.096  47.789  1.00  0.00     0.299 C 
BRANCH  17  18
HETATM   18  N1  UNL     1      23.899   7.361  48.002  1.00  0.00     0.083 N 
HETATM   19  C1  UNL     1      23.468   7.966  49.245  1.00  0.00     0.309 C 
HETATM   20  C2  UNL     1      25.320   7.061  48.164  1.00  0.00     0.309 C 
ENDBRANCH  17  18
ENDBRANCH  16  17
ENDBRANCH  12  15
ENDBRANCH   1  11
BRANCH  10  21
HETATM   21  O2  UNL     1      20.712   0.864  51.372  1.00  0.00    -0.341 OA
BRANCH  21  22
HETATM   22  C20 UNL     1      19.560   1.441  51.938  1.00  0.00     0.154 C 
HETATM   23  C21 UNL     1      18.356   1.320  51.002  1.00  0.00     0.061 C 
HETATM   24  C22 UNL     1      17.664   2.654  51.171  1.00  0.00     0.170 C 
HETATM   25  O3  UNL     1      18.458   3.430  52.011  1.00  0.00    -0.389 OA
HETATM   26  C23 UNL     1      19.745   2.961  51.906  1.00  0.00     0.200 C 
ENDBRANCH  21  22
ENDBRANCH  10  21
BRANCH   4  27
HETATM   27  N3  UNL     1      26.695   0.654  53.531  1.00  0.00    -0.340 N 
HETATM   28  H13 UNL     1      26.835   1.609  53.171  1.00  0.00     0.167 HD
BRANCH  27  29
HETATM   29  C11 UNL     1      27.800  -0.243  53.535  1.00  0.00     0.032 A 
HETATM   30  C12 UNL     1      27.687  -1.400  52.859  1.00  0.00     0.010 A 
HETATM   31  C13 UNL     1      28.940  -2.206  52.979  1.00  0.00     0.099 A 
HETATM   32  C14 UNL     1      29.793  -1.314  53.839  1.00  0.00     0.099 A 
HETATM   33  F1  UNL     1      31.058  -1.591  54.251  1.00  0.00    -0.210 F 
HETATM   34  C15 UNL     1      29.118  -0.235  54.124  1.00  0.00     0.067 A 
ENDBRANCH  27  29
ENDBRANCH   4  27
TORSDOF 8
ENDMDL
MODEL 3
REMARK VINA RESULT:      -8.1      3.138      4.200
REMARK  8 active torsions:
REMARK  status: ('A' for Active; 'I' for Inactive)
REMARK    1  A    between atoms: N1_2  and  C3_4 
REMARK    2  A    between atoms: C3_4  and  C4_5 
REMARK    3  A    between atoms: C5_6  and  C6_7 
REMARK       I    between atoms: C6_7  and  N2_9 
REMARK    4  A    between atoms: N2_9  and  C7_10 
REMARK    5  A    between atoms: C10_13  and  N3_14 
REMARK    6  A    between atoms: N3_14  and  C11_15 
REMARK    7  A    between atoms: C19_26  and  O2_27 
REMARK    8  A    between atoms: O2_27  and  C20_28 
ROOT
HETATM    1  C7  UNL     1      22.782   1.417  51.629  1.00  0.00     0.069 A 
HETATM    2  C8  UNL     1      24.034   1.169  52.194  1.00  0.00     0.050 A 
HETATM    3  C9  UNL     1      24.157   0.324  53.303  1.00  0.00     0.041 A 
HETATM    4  C10 UNL     1      25.384   0.059  53.882  1.00  0.00     0.142 A 
HETATM    5  N4  UNL     1      25.379  -0.781  54.956  1.00  0.00    -0.224 NA
HETATM    6  C16 UNL     1      24.245  -1.313  55.414  1.00  0.00     0.236 A 
HETATM    7  N5  UNL     1      23.051  -1.045  54.837  1.00  0.00    -0.241 NA
HETATM    8  C17 UNL     1      23.006  -0.232  53.788  1.00  0.00     0.075 A 
HETATM    9  C18 UNL     1      21.768   0.001  53.244  1.00  0.00     0.071 A 
HETATM   10  C19 UNL     1      21.623   0.828  52.155  1.00  0.00     0.098 A 
ENDROOT
BRANCH   1  11
HETATM   11  N2  UNL     1      22.887   2.291  50.525  1.00  0.00    -0.321 N 
HETATM   12  C6  UNL     1      22.977   3.715  50.516  1.00  0.00     0.245 C 
HETATM   13  O1  UNL     1      22.970   4.386  51.574  1.00  0.00    -0.268 OA
HETATM   14  H11 UNL     1      22.891   1.707  49.641  1.00  0.00     0.169 HD
BRANCH  12  15
HETATM   15  C5  UNL     1      23.078   4.371  49.234  1.00  0.00     0.072 C 
HETATM   16  C4  UNL     1      22.319   3.921  48.256  1.00  0.00     0.008 C 
BRANCH  16  17
HETATM   17  C3  UNL     1      22.264   4.443  46.871  1.00  0.00     0.299 C 
BRANCH  17  18
HETATM   18  N1  UNL     1      20.925   4.376  46.319  1.00  0.00     0.083 N 
HETATM   19  C1  UNL     1      20.965   3.931  44.941  1.00  0.00     0.309 C 
HETATM   20  C2  UNL     1      20.209   3.342  47.062  1.00  0.00     0.309 C 
ENDBRANCH  17  18
ENDBRANCH  16  17
ENDBRANCH  12  15
ENDBRANCH   1  11
BRANCH  10  21
HETATM   21  O2  UNL     1      20.537   1.241  51.412  1.00  0.00    -0.341 OA
BRANCH  21  22
HETATM   22  C20 UNL     1      19.439   1.852  52.046  1.00  0.00     0.154 C 
HETATM   23  C21 UNL     1      18.116   1.417  51.415  1.00  0.00     0.061 C 
HETATM   24  C22 UNL     1      17.310   2.696  51.408  1.00  0.00     0.170 C 
HETATM   25  O3  UNL     1      18.139   3.711  51.879  1.00  0.00    -0.389 OA
HETATM   26  C23 UNL     1      19.435   3.327  51.634  1.00  0.00     0.200 C 
ENDBRANCH  21  22
ENDBRANCH  10  21
BRANCH   4  27
HETATM   27  N3  UNL     1      26.574   0.667  53.343  1.00  0.00    -0.340 N 
HETATM   28  H13 UNL     1      26.720   1.607  52.948  1.00  0.00     0.167 HD
BRANCH  27  29
HETATM   29  C11 UNL     1      27.678  -0.230  53.399  1.00  0.00     0.032 A 
HETATM   30  C12 UNL     1      27.565  -1.421  52.785  1.00  0.00     0.010 A 
HETATM   31  C13 UNL     1      28.816  -2.221  52.951  1.00  0.00     0.099 A 
HETATM   32  C14 UNL     1      29.669  -1.285  53.764  1.00  0.00     0.099 A 
HETATM   33  F1  UNL     1      30.933  -1.541  54.193  1.00  0.00    -0.210 F 
HETATM   34  C15 UNL     1      28.995  -0.191  53.988  1.00  0.00     0.067 A 
ENDBRANCH  27  29
ENDBRANCH   4  27
TORSDOF 8
ENDMDL
MODEL 4
REMARK VINA RESULT:      -8.1      3.571      6.909
REMARK  8 active torsions:
REMARK  status: ('A' for Active; 'I' for Inactive)
REMARK    1  A    between atoms: N1_2  and  C3_4 
REMARK    2  A    between atoms: C3_4  and  C4_5 
REMARK    3  A    between atoms: C5_6  and  C6_7 
REMARK       I    between atoms: C6_7  and  N2_9 
REMARK    4  A    between atoms: N2_9  and  C7_10 
REMARK    5  A    between atoms: C10_13  and  N3_14 
REMARK    6  A    between atoms: N3_14  and  C11_15 
REMARK    7  A    between atoms: C19_26  and  O2_27 
REMARK    8  A    between atoms: O2_27  and  C20_28 
ROOT
HETATM    1  C7  UNL     1      25.000   0.964  52.187  1.00  0.00     0.069 A 
HETATM    2  C8  UNL     1      23.667   0.810  51.803  1.00  0.00     0.050 A 
HETATM    3  C9  UNL     1      22.753   0.175  52.652  1.00  0.00     0.041 A 
HETATM    4  C10 UNL     1      21.426   0.010  52.298  1.00  0.00     0.142 A 
HETATM    5  N4  UNL     1      20.630  -0.621  53.208  1.00  0.00    -0.224 NA
HETATM    6  C16 UNL     1      21.116  -1.052  54.373  1.00  0.00     0.236 A 
HETATM    7  N5  UNL     1      22.416  -0.884  54.706  1.00  0.00    -0.241 NA
HETATM    8  C17 UNL     1      23.231  -0.274  53.852  1.00  0.00     0.075 A 
HETATM    9  C18 UNL     1      24.537  -0.130  54.244  1.00  0.00     0.071 A 
HETATM   10  C19 UNL     1      25.453   0.490  53.426  1.00  0.00     0.098 A 
ENDROOT
BRANCH   1  11
HETATM   11  N2  UNL     1      25.742   1.629  51.187  1.00  0.00    -0.321 N 
HETATM   12  C6  UNL     1      25.655   2.988  50.762  1.00  0.00     0.245 C 
HETATM   13  O1  UNL     1      24.843   3.793  51.276  1.00  0.00    -0.268 OA
HETATM   14  H11 UNL     1      26.422   0.935  50.765  1.00  0.00     0.169 HD
BRANCH  12  15
HETATM   15  C5  UNL     1      26.542   3.417  49.707  1.00  0.00     0.072 C 
HETATM   16  C4  UNL     1      26.663   4.712  49.499  1.00  0.00     0.008 C 
BRANCH  16  17
HETATM   17  C3  UNL     1      27.513   5.364  48.476  1.00  0.00     0.299 C 
BRANCH  17  18
HETATM   18  N1  UNL     1      27.183   6.768  48.312  1.00  0.00     0.083 N 
HETATM   19  C1  UNL     1      26.383   7.235  49.424  1.00  0.00     0.309 C 
HETATM   20  C2  UNL     1      28.441   7.510  48.372  1.00  0.00     0.309 C 
ENDBRANCH  17  18
ENDBRANCH  16  17
ENDBRANCH  12  15
ENDBRANCH   1  11
BRANCH  10  21
HETATM   21  O2  UNL     1      26.797   0.772  53.546  1.00  0.00    -0.341 OA
BRANCH  21  22
HETATM   22  C20 UNL     1      27.673  -0.182  54.097  1.00  0.00     0.154 C 
HETATM   23  C21 UNL     1      29.118   0.316  54.092  1.00  0.00     0.061 C 
HETATM   24  C22 UNL     1      29.900  -0.924  53.720  1.00  0.00     0.170 C 
HETATM   25  O3  UNL     1      28.977  -1.932  53.457  1.00  0.00    -0.389 OA
HETATM   26  C23 UNL     1      27.802  -1.324  53.086  1.00  0.00     0.200 C 
ENDBRANCH  21  22
ENDBRANCH  10  21
BRANCH   4  27
HETATM   27  N3  UNL     1      20.962   0.494  51.023  1.00  0.00    -0.340 N 
HETATM   28  H13 UNL     1      21.388   0.422  50.089  1.00  0.00     0.167 HD
BRANCH  27  29
HETATM   29  C11 UNL     1      19.713   1.165  51.154  1.00  0.00     0.032 A 
HETATM   30  C12 UNL     1      18.611   0.564  50.672  1.00  0.00     0.010 A 
HETATM   31  C13 UNL     1      17.404   1.416  50.899  1.00  0.00     0.099 A 
HETATM   32  C14 UNL     1      18.001   2.609  51.595  1.00  0.00     0.099 A 
HETATM   33  F1  UNL     1      17.310   3.698  52.025  1.00  0.00    -0.210 F 
HETATM   34  C15 UNL     1      19.286   2.425  51.714  1.00  0.00     0.067 A 
ENDBRANCH  27  29
ENDBRANCH   4  27
TORSDOF 8
ENDMDL
MODEL 5
REMARK VINA RESULT:      -8.1      1.875      2.243
REMARK  8 active torsions:
REMARK  status: ('A' for Active; 'I' for Inactive)
REMARK    1  A    between atoms: N1_2  and  C3_4 
REMARK    2  A    between atoms: C3_4  and  C4_5 
REMARK    3  A    between atoms: C5_6  and  C6_7 
REMARK       I    between atoms: C6_7  and  N2_9 
REMARK    4  A    between atoms: N2_9  and  C7_10 
REMARK    5  A    between atoms: C10_13  and  N3_14 
REMARK    6  A    between atoms: N3_14  and  C11_15 
REMARK    7  A    between atoms: C19_26  and  O2_27 
REMARK    8  A    between atoms: O2_27  and  C20_28 
ROOT
HETATM    1  C7  UNL     1      25.606   3.678  49.737  1.00  0.00     0.069 A 
HETATM    2  C8  UNL     1      26.270   3.036  50.783  1.00  0.00     0.050 A 
HETATM    3  C9  UNL     1      25.575   2.176  51.642  1.00  0.00     0.041 A 
HETATM    4  C10 UNL     1      26.208   1.525  52.685  1.00  0.00     0.142 A 
HETATM    5  N4  UNL     1      25.429   0.712  53.454  1.00  0.00    -0.224 NA
HETATM    6  C16 UNL     1      24.128   0.559  53.203  1.00  0.00     0.236 A 
HETATM    7  N5  UNL     1      23.522   1.203  52.178  1.00  0.00    -0.241 NA
HETATM    8  C17 UNL     1      24.240   2.006  51.402  1.00  0.00     0.075 A 
HETATM    9  C18 UNL     1      23.573   2.630  50.378  1.00  0.00     0.071 A 
HETATM   10  C19 UNL     1      24.235   3.479  49.522  1.00  0.00     0.098 A 
ENDROOT
BRANCH   1  11
HETATM   11  N2  UNL     1      26.491   4.493  48.998  1.00  0.00    -0.321 N 
HETATM   12  C6  UNL     1      26.690   5.903  49.080  1.00  0.00     0.245 C 
HETATM   13  O1  UNL     1      26.045   6.618  49.881  1.00  0.00    -0.268 OA
HETATM   14  H11 UNL     1      27.027   3.873  48.326  1.00  0.00     0.169 HD
BRANCH  12  15
HETATM   15  C5  UNL     1      27.671   6.493  48.199  1.00  0.00     0.072 C 
HETATM   16  C4  UNL     1      28.892   6.001  48.229  1.00  0.00     0.008 C 
BRANCH  16  17
HETATM   17  C3  UNL     1      30.044   6.454  47.415  1.00  0.00     0.299 C 
BRANCH  17  18
HETATM   18  N1  UNL     1      31.306   5.983  47.953  1.00  0.00     0.083 N 
HETATM   19  C1  UNL     1      31.274   5.984  49.401  1.00  0.00     0.309 C 
HETATM   20  C2  UNL     1      31.447   4.585  47.548  1.00  0.00     0.309 C 
ENDBRANCH  17  18
ENDBRANCH  16  17
ENDBRANCH  12  15
ENDBRANCH   1  11
BRANCH  10  21
HETATM   21  O2  UNL     1      23.841   4.228  48.433  1.00  0.00    -0.341 OA
BRANCH  21  22
HETATM   22  C20 UNL     1      22.899   5.262  48.590  1.00  0.00     0.154 C 
HETATM   23  C21 UNL     1      21.535   4.866  48.024  1.00  0.00     0.061 C 
HETATM   24  C22 UNL     1      21.061   6.143  47.366  1.00  0.00     0.170 C 
HETATM   25  O3  UNL     1      22.091   7.073  47.477  1.00  0.00    -0.389 OA
HETATM   26  C23 UNL     1      23.266   6.371  47.600  1.00  0.00     0.200 C 
ENDBRANCH  21  22
ENDBRANCH  10  21
BRANCH   4  27
HETATM   27  N3  UNL     1      27.616   1.733  52.908  1.00  0.00    -0.340 N 
HETATM   28  H13 UNL     1      28.164   2.605  52.931  1.00  0.00     0.167 HD
BRANCH  27  29
HETATM   29  C11 UNL     1      28.289   0.498  53.123  1.00  0.00     0.032 A 
HETATM   30  C12 UNL     1      29.534   0.528  53.631  1.00  0.00     0.010 A 
HETATM   31  C13 UNL     1      30.075  -0.857  53.784  1.00  0.00     0.099 A 
HETATM   32  C14 UNL     1      28.928  -1.688  53.278  1.00  0.00     0.099 A 
HETATM   33  F1  UNL     1      28.909  -3.046  53.205  1.00  0.00    -0.210 F 
HETATM   34  C15 UNL     1      27.958  -0.893  52.922  1.00  0.00     0.067 A 
ENDBRANCH  27  29
ENDBRANCH   4  27
TORSDOF 8
ENDMDL
MODEL 6
REMARK VINA RESULT:      -8.0      3.831      5.086
REMARK  8 active torsions:
REMARK  status: ('A' for Active; 'I' for Inactive)
REMARK    1  A    between atoms: N1_2  and  C3_4 
REMARK    2  A    between atoms: C3_4  and  C4_5 
REMARK    3  A    between atoms: C5_6  and  C6_7 
REMARK       I    between atoms: C6_7  and  N2_9 
REMARK    4  A    between atoms: N2_9  and  C7_10 
REMARK    5  A    between atoms: C10_13  and  N3_14 
REMARK    6  A    between atoms: N3_14  and  C11_15 
REMARK    7  A    between atoms: C19_26  and  O2_27 
REMARK    8  A    between atoms: O2_27  and  C20_28 
ROOT
HETATM    1  C7  UNL     1      21.500   0.764  52.345  1.00  0.00     0.069 A 
HETATM    2  C8  UNL     1      22.876   0.644  52.543  1.00  0.00     0.050 A 
HETATM    3  C9  UNL     1      23.377  -0.104  53.615  1.00  0.00     0.041 A 
HETATM    4  C10 UNL     1      24.735  -0.241  53.833  1.00  0.00     0.142 A 
HETATM    5  N4  UNL     1      25.104  -0.995  54.908  1.00  0.00    -0.224 NA
HETATM    6  C16 UNL     1      24.194  -1.565  55.699  1.00  0.00     0.236 A 
HETATM    7  N5  UNL     1      22.867  -1.422  55.473  1.00  0.00    -0.241 NA
HETATM    8  C17 UNL     1      22.460  -0.696  54.437  1.00  0.00     0.075 A 
HETATM    9  C18 UNL     1      21.104  -0.589  54.258  1.00  0.00     0.071 A 
HETATM   10  C19 UNL     1      20.590   0.141  53.211  1.00  0.00     0.098 A 
ENDROOT
BRANCH   1  11
HETATM   11  N2  UNL     1      21.216   1.556  51.212  1.00  0.00    -0.321 N 
HETATM   12  C6  UNL     1      20.768   2.910  51.154  1.00  0.00     0.245 C 
HETATM   13  O1  UNL     1      20.563   3.585  52.190  1.00  0.00    -0.268 OA
HETATM   14  H11 UNL     1      21.394   0.970  50.347  1.00  0.00     0.169 HD
BRANCH  12  15
HETATM   15  C5  UNL     1      20.553   3.488  49.849  1.00  0.00     0.072 C 
HETATM   16  C4  UNL     1      21.607   3.931  49.197  1.00  0.00     0.008 C 
BRANCH  16  17
HETATM   17  C3  UNL     1      21.613   4.557  47.853  1.00  0.00     0.299 C 
BRANCH  17  18
HETATM   18  N1  UNL     1      20.967   3.718  46.862  1.00  0.00     0.083 N 
HETATM   19  C1  UNL     1      19.749   4.340  46.386  1.00  0.00     0.309 C 
HETATM   20  C2  UNL     1      21.867   3.647  45.712  1.00  0.00     0.309 C 
ENDBRANCH  17  18
ENDBRANCH  16  17
ENDBRANCH  12  15
ENDBRANCH   1  11
BRANCH  10  21
HETATM   21  O2  UNL     1      19.308   0.422  52.788  1.00  0.00    -0.341 OA
BRANCH  21  22
HETATM   22  C20 UNL     1      18.540  -0.572  52.153  1.00  0.00     0.154 C 
HETATM   23  C21 UNL     1      17.603   0.030  51.105  1.00  0.00     0.061 C 
HETATM   24  C22 UNL     1      16.337  -0.779  51.283  1.00  0.00     0.170 C 
HETATM   25  O3  UNL     1      16.540  -1.635  52.362  1.00  0.00    -0.389 OA
HETATM   26  C23 UNL     1      17.500  -1.063  53.163  1.00  0.00     0.200 C 
ENDBRANCH  21  22
ENDBRANCH  10  21
BRANCH   4  27
HETATM   27  N3  UNL     1      25.670   0.402  52.945  1.00  0.00    -0.340 N 
HETATM   28  H13 UNL     1      25.504   0.974  52.105  1.00  0.00     0.167 HD
BRANCH  27  29
HETATM   29  C11 UNL     1      27.013   0.167  53.356  1.00  0.00     0.032 A 
HETATM   30  C12 UNL     1      27.619   1.094  54.118  1.00  0.00     0.010 A 
HETATM   31  C13 UNL     1      29.015   0.674  54.448  1.00  0.00     0.099 A 
HETATM   32  C14 UNL     1      29.107  -0.653  53.745  1.00  0.00     0.099 A 
HETATM   33  F1  UNL     1      30.197  -1.465  53.731  1.00  0.00    -0.210 F 
HETATM   34  C15 UNL     1      27.971  -0.893  53.152  1.00  0.00     0.067 A 
ENDBRANCH  27  29
ENDBRANCH   4  27
TORSDOF 8
ENDMDL
MODEL 7
REMARK VINA RESULT:      -7.9      3.401      6.469
REMARK  8 active torsions:
REMARK  status: ('A' for Active; 'I' for Inactive)
REMARK    1  A    between atoms: N1_2  and  C3_4 
REMARK    2  A    between atoms: C3_4  and  C4_5 
REMARK    3  A    between atoms: C5_6  and  C6_7 
REMARK       I    between atoms: C6_7  and  N2_9 
REMARK    4  A    between atoms: N2_9  and  C7_10 
REMARK    5  A    between atoms: C10_13  and  N3_14 
REMARK    6  A    between atoms: N3_14  and  C11_15 
REMARK    7  A    between atoms: C19_26  and  O2_27 
REMARK    8  A    between atoms: O2_27  and  C20_28 
ROOT
HETATM    1  C7  UNL     1      24.248   1.716  51.831  1.00  0.00     0.069 A 
HETATM    2  C8  UNL     1      22.924   1.635  52.264  1.00  0.00     0.050 A 
HETATM    3  C9  UNL     1      22.532   0.638  53.166  1.00  0.00     0.041 A 
HETATM    4  C10 UNL     1      21.228   0.535  53.613  1.00  0.00     0.142 A 
HETATM    5  N4  UNL     1      20.966  -0.474  54.492  1.00  0.00    -0.224 NA
HETATM    6  C16 UNL     1      21.925  -1.311  54.891  1.00  0.00     0.236 A 
HETATM    7  N5  UNL     1      23.197  -1.198  54.444  1.00  0.00    -0.241 NA
HETATM    8  C17 UNL     1      23.501  -0.230  53.587  1.00  0.00     0.075 A 
HETATM    9  C18 UNL     1      24.806  -0.164  53.171  1.00  0.00     0.071 A 
HETATM   10  C19 UNL     1      25.214   0.807  52.285  1.00  0.00     0.098 A 
ENDROOT
BRANCH   1  11
HETATM   11  N2  UNL     1      24.423   2.790  50.930  1.00  0.00    -0.321 N 
HETATM   12  C6  UNL     1      23.765   3.032  49.687  1.00  0.00     0.245 C 
HETATM   13  O1  UNL     1      22.897   2.251  49.234  1.00  0.00    -0.268 OA
HETATM   14  H11 UNL     1      25.160   3.438  51.329  1.00  0.00     0.169 HD
BRANCH  12  15
HETATM   15  C5  UNL     1      24.135   4.220  48.956  1.00  0.00     0.072 C 
HETATM   16  C4  UNL     1      25.246   4.833  49.308  1.00  0.00     0.008 C 
BRANCH  16  17
HETATM   17  C3  UNL     1      25.807   6.060  48.696  1.00  0.00     0.299 C 
BRANCH  17  18
HETATM   18  N1  UNL     1      27.233   6.180  48.932  1.00  0.00     0.083 N 
HETATM   19  C1  UNL     1      27.918   4.967  48.537  1.00  0.00     0.309 C 
HETATM   20  C2  UNL     1      27.725   7.234  48.047  1.00  0.00     0.309 C 
ENDBRANCH  17  18
ENDBRANCH  16  17
ENDBRANCH  12  15
ENDBRANCH   1  11
BRANCH  10  21
HETATM   21  O2  UNL     1      26.425   1.114  51.703  1.00  0.00    -0.341 OA
BRANCH  21  22
HETATM   22  C20 UNL     1      27.581   1.228  52.497  1.00  0.00     0.154 C 
HETATM   23  C21 UNL     1      27.917  -0.092  53.190  1.00  0.00     0.061 C 
HETATM   24  C22 UNL     1      28.368   0.354  54.563  1.00  0.00     0.170 C 
HETATM   25  O3  UNL     1      28.195   1.734  54.628  1.00  0.00    -0.389 OA
HETATM   26  C23 UNL     1      27.214   2.066  53.725  1.00  0.00     0.200 C 
ENDBRANCH  21  22
ENDBRANCH  10  21
BRANCH   4  27
HETATM   27  N3  UNL     1      20.236   1.468  53.142  1.00  0.00    -0.340 N 
HETATM   28  H13 UNL     1      20.130   2.475  53.327  1.00  0.00     0.167 HD
BRANCH  27  29
HETATM   29  C11 UNL     1      19.288   0.825  52.297  1.00  0.00     0.032 A 
HETATM   30  C12 UNL     1      19.266   1.156  50.994  1.00  0.00     0.010 A 
HETATM   31  C13 UNL     1      18.211   0.382  50.271  1.00  0.00     0.099 A 
HETATM   32  C14 UNL     1      17.632  -0.451  51.381  1.00  0.00     0.099 A 
HETATM   33  F1  UNL     1      16.618  -1.347  51.249  1.00  0.00    -0.210 F 
HETATM   34  C15 UNL     1      18.261  -0.172  52.489  1.00  0.00     0.067 A 
ENDBRANCH  27  29
ENDBRANCH   4  27
TORSDOF 8
ENDMDL
MODEL 8
REMARK VINA RESULT:      -7.7      1.752      2.073
REMARK  8 active torsions:
REMARK  status: ('A' for Active; 'I' for Inactive)
REMARK    1  A    between atoms: N1_2  and  C3_4 
REMARK    2  A    between atoms: C3_4  and  C4_5 
REMARK    3  A    between atoms: C5_6  and  C6_7 
REMARK       I    between atoms: C6_7  and  N2_9 
REMARK    4  A    between atoms: N2_9  and  C7_10 
REMARK    5  A    between atoms: C10_13  and  N3_14 
REMARK    6  A    between atoms: N3_14  and  C11_15 
REMARK    7  A    between atoms: C19_26  and  O2_27 
REMARK    8  A    between atoms: O2_27  and  C20_28 
ROOT
HETATM    1  C7  UNL     1      24.240   3.076  51.702  1.00  0.00     0.069 A 
HETATM    2  C8  UNL     1      25.108   2.467  52.611  1.00  0.00     0.050 A 
HETATM    3  C9  UNL     1      24.727   1.301  53.284  1.00  0.00     0.041 A 
HETATM    4  C10 UNL     1      25.567   0.676  54.187  1.00  0.00     0.142 A 
HETATM    5  N4  UNL     1      25.088  -0.455  54.779  1.00  0.00    -0.224 NA
HETATM    6  C16 UNL     1      23.872  -0.925  54.493  1.00  0.00     0.236 A 
HETATM    7  N5  UNL     1      23.062  -0.303  53.606  1.00  0.00    -0.241 NA
HETATM    8  C17 UNL     1      23.485   0.803  53.004  1.00  0.00     0.075 A 
HETATM    9  C18 UNL     1      22.621   1.388  52.114  1.00  0.00     0.071 A 
HETATM   10  C19 UNL     1      22.973   2.535  51.442  1.00  0.00     0.098 A 
ENDROOT
BRANCH   1  11
HETATM   11  N2  UNL     1      24.823   4.232  51.141  1.00  0.00    -0.321 N 
HETATM   12  C6  UNL     1      25.661   4.345  49.991  1.00  0.00     0.245 C 
HETATM   13  O1  UNL     1      25.991   3.346  49.311  1.00  0.00    -0.268 OA
HETATM   14  H11 UNL     1      24.534   5.066  51.728  1.00  0.00     0.169 HD
BRANCH  12  15
HETATM   15  C5  UNL     1      26.125   5.664  49.629  1.00  0.00     0.072 C 
HETATM   16  C4  UNL     1      25.622   6.210  48.541  1.00  0.00     0.008 C 
BRANCH  16  17
HETATM   17  C3  UNL     1      25.956   7.545  47.991  1.00  0.00     0.299 C 
BRANCH  17  18
HETATM   18  N1  UNL     1      24.869   8.094  47.204  1.00  0.00     0.083 N 
HETATM   19  C1  UNL     1      24.398   9.335  47.783  1.00  0.00     0.309 C 
HETATM   20  C2  UNL     1      25.422   8.437  45.895  1.00  0.00     0.309 C 
ENDBRANCH  17  18
ENDBRANCH  16  17
ENDBRANCH  12  15
ENDBRANCH   1  11
BRANCH  10  21
HETATM   21  O2  UNL     1      22.332   3.328  50.514  1.00  0.00    -0.341 OA
BRANCH  21  22
HETATM   22  C20 UNL     1      21.103   3.935  50.833  1.00  0.00     0.154 C 
HETATM   23  C21 UNL     1      19.938   3.244  50.124  1.00  0.00     0.061 C 
HETATM   24  C22 UNL     1      19.054   4.403  49.722  1.00  0.00     0.170 C 
HETATM   25  O3  UNL     1      19.716   5.574  50.080  1.00  0.00    -0.389 OA
HETATM   26  C23 UNL     1      21.060   5.288  50.117  1.00  0.00     0.200 C 
ENDBRANCH  21  22
ENDBRANCH  10  21
BRANCH   4  27
HETATM   27  N3  UNL     1      26.867   1.234  54.457  1.00  0.00    -0.340 N 
HETATM   28  H13 UNL     1      27.129   2.132  54.888  1.00  0.00     0.167 HD
BRANCH  27  29
HETATM   29  C11 UNL     1      27.902   0.352  54.036  1.00  0.00     0.032 A 
HETATM   30  C12 UNL     1      29.172   0.792  54.073  1.00  0.00     0.010 A 
HETATM   31  C13 UNL     1      30.112  -0.268  53.596  1.00  0.00     0.099 A 
HETATM   32  C14 UNL     1      29.164  -1.393  53.279  1.00  0.00     0.099 A 
HETATM   33  F1  UNL     1      29.522  -2.614  52.800  1.00  0.00    -0.210 F 
HETATM   34  C15 UNL     1      27.947  -1.003  53.539  1.00  0.00     0.067 A 
ENDBRANCH  27  29
ENDBRANCH   4  27
TORSDOF 8
ENDMDL
MODEL 9
REMARK VINA RESULT:      -7.7      3.314      8.851
REMARK  8 active torsions:
REMARK  status: ('A' for Active; 'I' for Inactive)
REMARK    1  A    between atoms: N1_2  and  C3_4 
REMARK    2  A    between atoms: C3_4  and  C4_5 
REMARK    3  A    between atoms: C5_6  and  C6_7 
REMARK       I    between atoms: C6_7  and  N2_9 
REMARK    4  A    between atoms: N2_9  and  C7_10 
REMARK    5  A    between atoms: C10_13  and  N3_14 
REMARK    6  A    between atoms: N3_14  and  C11_15 
REMARK    7  A    between atoms: C19_26  and  O2_27 
REMARK    8  A    between atoms: O2_27  and  C20_28 
ROOT
HETATM    1  C7  UNL     1      24.522   3.066  50.330  1.00  0.00     0.069 A 
HETATM    2  C8  UNL     1      24.034   4.180  49.644  1.00  0.00     0.050 A 
HETATM    3  C9  UNL     1      24.916   5.118  49.095  1.00  0.00     0.041 A 
HETATM    4  C10 UNL     1      24.461   6.229  48.409  1.00  0.00     0.142 A 
HETATM    5  N4  UNL     1      25.414   7.071  47.918  1.00  0.00    -0.224 NA
HETATM    6  C16 UNL     1      26.713   6.826  48.096  1.00  0.00     0.236 A 
HETATM    7  N5  UNL     1      27.144   5.735  48.770  1.00  0.00    -0.241 NA
HETATM    8  C17 UNL     1      26.252   4.885  49.267  1.00  0.00     0.075 A 
HETATM    9  C18 UNL     1      26.748   3.796  49.938  1.00  0.00     0.071 A 
HETATM   10  C19 UNL     1      25.900   2.861  50.485  1.00  0.00     0.098 A 
ENDROOT
BRANCH   1  11
HETATM   11  N2  UNL     1      23.465   2.254  50.796  1.00  0.00    -0.321 N 
HETATM   12  C6  UNL     1      22.446   1.593  50.047  1.00  0.00     0.245 C 
HETATM   13  O1  UNL     1      22.383   1.676  48.798  1.00  0.00    -0.268 OA
HETATM   14  H11 UNL     1      23.535   2.196  51.851  1.00  0.00     0.169 HD
BRANCH  12  15
HETATM   15  C5  UNL     1      21.476   0.815  50.780  1.00  0.00     0.072 C 
HETATM   16  C4  UNL     1      21.462   0.934  52.091  1.00  0.00     0.008 C 
BRANCH  16  17
HETATM   17  C3  UNL     1      20.556   0.232  53.030  1.00  0.00     0.299 C 
BRANCH  17  18
HETATM   18  N1  UNL     1      21.264  -0.272  54.192  1.00  0.00     0.083 N 
HETATM   19  C1  UNL     1      21.051  -1.697  54.337  1.00  0.00     0.309 C 
HETATM   20  C2  UNL     1      22.691  -0.096  53.931  1.00  0.00     0.309 C 
ENDBRANCH  17  18
ENDBRANCH  16  17
ENDBRANCH  12  15
ENDBRANCH   1  11
BRANCH  10  21
HETATM   21  O2  UNL     1      26.100   1.698  51.196  1.00  0.00    -0.341 OA
BRANCH  21  22
HETATM   22  C20 UNL     1      26.948   1.693  52.319  1.00  0.00     0.154 C 
HETATM   23  C21 UNL     1      27.298   0.268  52.750  1.00  0.00     0.061 C 
HETATM   24  C22 UNL     1      27.260   0.355  54.260  1.00  0.00     0.170 C 
HETATM   25  O3  UNL     1      26.840   1.640  54.591  1.00  0.00    -0.389 OA
HETATM   26  C23 UNL     1      26.111   2.119  53.528  1.00  0.00     0.200 C 
ENDBRANCH  21  22
ENDBRANCH  10  21
BRANCH   4  27
HETATM   27  N3  UNL     1      23.044   6.441  48.253  1.00  0.00    -0.340 N 
HETATM   28  H13 UNL     1      22.365   6.888  48.885  1.00  0.00     0.167 HD
BRANCH  27  29
HETATM   29  C11 UNL     1      22.583   5.926  47.009  1.00  0.00     0.032 A 
HETATM   30  C12 UNL     1      22.506   6.763  45.960  1.00  0.00     0.010 A 
HETATM   31  C13 UNL     1      22.003   6.047  44.748  1.00  0.00     0.099 A 
HETATM   32  C14 UNL     1      21.806   4.653  45.280  1.00  0.00     0.099 A 
HETATM   33  F1  UNL     1      21.352   3.592  44.562  1.00  0.00    -0.210 F 
HETATM   34  C15 UNL     1      22.141   4.634  46.540  1.00  0.00     0.067 A 
ENDBRANCH  27  29
ENDBRANCH   4  27
TORSDOF 8
ENDMDL
