MODEL 1
REMARK VINA RESULT:      -8.0      0.000      0.000
REMARK  2 active torsions:
REMARK  status: ('A' for Active; 'I' for Inactive)
REMARK    1  A    between atoms: C3_3  and  O1_4 
REMARK    2  A    between atoms: O1_4  and  C4_5 
ROOT
HETATM    1  C4  UNL     1      24.394   2.430  50.700  1.00  0.00     0.308 C 
HETATM    2  C5  UNL     1      23.529   1.892  51.780  1.00  0.00     0.224 C 
HETATM    3  O2  UNL     1      22.357   1.890  52.283  1.00  0.00    -0.286 OA
HETATM    4  C6  UNL     1      24.737   1.163  52.230  1.00  0.00     0.087 C 
HETATM    5  C7  UNL     1      25.254   0.122  52.868  1.00  0.00     0.062 C 
HETATM    6  C8  UNL     1      26.361  -0.705  53.379  1.00  0.00     0.026 C 
HETATM    7  C9  UNL     1      26.990  -1.627  52.619  1.00  0.00     0.003 C 
HETATM    8  C10 UNL     1      28.402  -1.983  52.965  1.00  0.00     0.031 C 
HETATM    9  C11 UNL     1      29.029  -0.750  53.576  1.00  0.00     0.029 C 
HETATM   10  C12 UNL     1      28.289  -0.178  54.738  1.00  0.00     0.091 C 
HETATM   11  C13 UNL     1      28.455   1.285  54.936  1.00  0.00     0.136 C 
HETATM   12  C14 UNL     1      28.567   2.112  53.709  1.00  0.00     0.262 C 
HETATM   13  O3  UNL     1      29.204   2.856  52.947  1.00  0.00    -0.265 OA
HETATM   14  O4  UNL     1      27.339   1.999  53.087  1.00  0.00    -0.301 OA
HETATM   15  C15 UNL     1      26.841   2.532  51.919  1.00  0.00     0.307 C 
HETATM   16  N1  UNL     1      25.496   2.162  51.586  1.00  0.00    -0.322 N 
HETATM   17  N2  UNL     1      26.875  -0.610  54.746  1.00  0.00    -0.385 N 
HETATM   18  H18 UNL     1      26.344  -0.809  55.630  1.00  0.00     0.160 HD
ENDROOT
BRANCH   1  19
HETATM   19  O1  UNL     1      24.168   3.778  50.351  1.00  0.00    -0.330 OA
BRANCH  19  20
HETATM   20  C3  UNL     1      25.199   4.473  49.720  1.00  0.00     0.133 C 
HETATM   21  C2  UNL     1      25.789   5.536  49.203  1.00  0.00    -0.007 C 
HETATM   22  C1  UNL     1      27.152   5.391  48.617  1.00  0.00     0.038 C 
ENDBRANCH  19  20
ENDBRANCH   1  19
TORSDOF 2
ENDMDL
MODEL 2
REMARK VINA RESULT:      -7.7      2.803      6.638
REMARK  2 active torsions:
REMARK  status: ('A' for Active; 'I' for Inactive)
REMARK    1  A    between atoms: C3_3  and  O1_4 
REMARK    2  A    between atoms: O1_4  and  C4_5 
ROOT
HETATM    1  C4  UNL     1      26.051  -0.449  52.807  1.00  0.00     0.308 C 
HETATM    2  C5  UNL     1      26.078   1.036  52.785  1.00  0.00     0.224 C 
HETATM    3  O2  UNL     1      26.809   2.074  52.908  1.00  0.00    -0.286 OA
HETATM    4  C6  UNL     1      24.626   0.945  52.506  1.00  0.00     0.087 C 
HETATM    5  C7  UNL     1      23.542   1.497  51.979  1.00  0.00     0.062 C 
HETATM    6  C8  UNL     1      22.110   1.544  51.634  1.00  0.00     0.026 C 
HETATM    7  C9  UNL     1      21.609   0.951  50.530  1.00  0.00     0.003 C 
HETATM    8  C10 UNL     1      20.171   0.536  50.544  1.00  0.00     0.031 C 
HETATM    9  C11 UNL     1      19.825   0.195  51.976  1.00  0.00     0.029 C 
HETATM   10  C12 UNL     1      20.111   1.275  52.965  1.00  0.00     0.091 C 
HETATM   11  C13 UNL     1      20.411   0.807  54.343  1.00  0.00     0.136 C 
HETATM   12  C14 UNL     1      21.169  -0.463  54.462  1.00  0.00     0.262 C 
HETATM   13  O3  UNL     1      21.260  -1.655  54.796  1.00  0.00    -0.265 OA
HETATM   14  O4  UNL     1      22.413  -0.189  53.927  1.00  0.00    -0.301 OA
HETATM   15  C15 UNL     1      23.538  -0.965  53.757  1.00  0.00     0.307 C 
HETATM   16  N1  UNL     1      24.654  -0.319  53.131  1.00  0.00    -0.322 N 
HETATM   17  N2  UNL     1      21.109   2.235  52.447  1.00  0.00    -0.385 N 
HETATM   18  H18 UNL     1      21.072   3.264  52.655  1.00  0.00     0.160 HD
ENDROOT
BRANCH   1  19
HETATM   19  O1  UNL     1      26.877  -1.060  53.774  1.00  0.00    -0.330 OA
BRANCH  19  20
HETATM   20  C3  UNL     1      28.256  -0.904  53.649  1.00  0.00     0.133 C 
HETATM   21  C2  UNL     1      29.498  -1.312  53.449  1.00  0.00    -0.007 C 
HETATM   22  C1  UNL     1      30.602  -0.311  53.490  1.00  0.00     0.038 C 
ENDBRANCH  19  20
ENDBRANCH   1  19
TORSDOF 2
ENDMDL
MODEL 3
REMARK VINA RESULT:      -7.5      2.194      6.097
REMARK  2 active torsions:
REMARK  status: ('A' for Active; 'I' for Inactive)
REMARK    1  A    between atoms: C3_3  and  O1_4 
REMARK    2  A    between atoms: O1_4  and  C4_5 
ROOT
HETATM    1  C4  UNL     1      26.231   0.729  54.553  1.00  0.00     0.308 C 
HETATM    2  C5  UNL     1      26.015  -0.514  53.770  1.00  0.00     0.224 C 
HETATM    3  O2  UNL     1      26.494  -1.655  53.460  1.00  0.00    -0.286 OA
HETATM    4  C6  UNL     1      24.747   0.115  53.336  1.00  0.00     0.087 C 
HETATM    5  C7  UNL     1      23.506  -0.036  52.895  1.00  0.00     0.062 C 
HETATM    6  C8  UNL     1      22.190   0.447  52.440  1.00  0.00     0.026 C 
HETATM    7  C9  UNL     1      21.202   0.779  53.298  1.00  0.00     0.003 C 
HETATM    8  C10 UNL     1      20.178   1.771  52.843  1.00  0.00     0.031 C 
HETATM    9  C11 UNL     1      20.866   2.702  51.871  1.00  0.00     0.029 C 
HETATM   10  C12 UNL     1      21.545   2.026  50.727  1.00  0.00     0.091 C 
HETATM   11  C13 UNL     1      22.712   2.754  50.164  1.00  0.00     0.136 C 
HETATM   12  C14 UNL     1      23.556   3.502  51.129  1.00  0.00     0.262 C 
HETATM   13  O3  UNL     1      24.014   4.559  51.590  1.00  0.00    -0.265 OA
HETATM   14  O4  UNL     1      24.125   2.534  51.933  1.00  0.00    -0.301 OA
HETATM   15  C15 UNL     1      24.992   2.610  53.001  1.00  0.00     0.307 C 
HETATM   16  N1  UNL     1      25.352   1.360  53.604  1.00  0.00    -0.322 N 
HETATM   17  N2  UNL     1      21.835   0.608  51.030  1.00  0.00    -0.385 N 
HETATM   18  H18 UNL     1      21.784  -0.152  50.306  1.00  0.00     0.160 HD
ENDROOT
BRANCH   1  19
HETATM   19  O1  UNL     1      27.562   1.197  54.600  1.00  0.00    -0.330 OA
BRANCH  19  20
HETATM   20  C3  UNL     1      28.577   0.322  54.217  1.00  0.00     0.133 C 
HETATM   21  C2  UNL     1      29.755  -0.004  53.713  1.00  0.00    -0.007 C 
HETATM   22  C1  UNL     1      30.144  -1.442  53.660  1.00  0.00     0.038 C 
ENDBRANCH  19  20
ENDBRANCH   1  19
TORSDOF 2
ENDMDL
MODEL 4
REMARK VINA RESULT:      -7.3      2.050      5.921
REMARK  2 active torsions:
REMARK  status: ('A' for Active; 'I' for Inactive)
REMARK    1  A    between atoms: C3_3  and  O1_4 
REMARK    2  A    between atoms: O1_4  and  C4_5 
ROOT
HETATM    1  C4  UNL     1      25.408   0.084  53.756  1.00  0.00     0.308 C 
HETATM    2  C5  UNL     1      23.983  -0.206  53.457  1.00  0.00     0.224 C 
HETATM    3  O2  UNL     1      23.048  -1.070  53.539  1.00  0.00    -0.286 OA
HETATM    4  C6  UNL     1      23.944   1.158  52.881  1.00  0.00     0.087 C 
HETATM    5  C7  UNL     1      23.230   2.229  52.566  1.00  0.00     0.062 C 
HETATM    6  C8  UNL     1      23.041   3.585  52.022  1.00  0.00     0.026 C 
HETATM    7  C9  UNL     1      23.272   4.699  52.750  1.00  0.00     0.003 C 
HETATM    8  C10 UNL     1      23.629   5.956  52.021  1.00  0.00     0.031 C 
HETATM    9  C11 UNL     1      24.360   5.544  50.764  1.00  0.00     0.029 C 
HETATM   10  C12 UNL     1      23.624   4.578  49.897  1.00  0.00     0.091 C 
HETATM   11  C13 UNL     1      24.482   3.685  49.075  1.00  0.00     0.136 C 
HETATM   12  C14 UNL     1      25.754   3.235  49.692  1.00  0.00     0.262 C 
HETATM   13  O3  UNL     1      26.994   3.207  49.744  1.00  0.00    -0.265 OA
HETATM   14  O4  UNL     1      25.375   2.442  50.758  1.00  0.00    -0.301 OA
HETATM   15  C15 UNL     1      26.101   1.749  51.701  1.00  0.00     0.307 C 
HETATM   16  N1  UNL     1      25.335   1.039  52.683  1.00  0.00    -0.322 N 
HETATM   17  N2  UNL     1      22.586   3.850  50.656  1.00  0.00    -0.385 N 
HETATM   18  H18 UNL     1      21.661   3.576  50.240  1.00  0.00     0.160 HD
ENDROOT
BRANCH   1  19
HETATM   19  O1  UNL     1      26.299  -0.998  53.590  1.00  0.00    -0.330 OA
BRANCH  19  20
HETATM   20  C3  UNL     1      27.666  -0.735  53.654  1.00  0.00     0.133 C 
HETATM   21  C2  UNL     1      28.751  -0.120  54.092  1.00  0.00    -0.007 C 
HETATM   22  C1  UNL     1      30.077  -0.513  53.535  1.00  0.00     0.038 C 
ENDBRANCH  19  20
ENDBRANCH   1  19
TORSDOF 2
ENDMDL
MODEL 5
REMARK VINA RESULT:      -7.2      3.469      5.357
REMARK  2 active torsions:
REMARK  status: ('A' for Active; 'I' for Inactive)
REMARK    1  A    between atoms: C3_3  and  O1_4 
REMARK    2  A    between atoms: O1_4  and  C4_5 
ROOT
HETATM    1  C4  UNL     1      21.016  -0.500  52.539  1.00  0.00     0.308 C 
HETATM    2  C5  UNL     1      21.283  -1.010  53.908  1.00  0.00     0.224 C 
HETATM    3  O2  UNL     1      20.768  -1.525  54.955  1.00  0.00    -0.286 OA
HETATM    4  C6  UNL     1      22.696  -0.656  53.642  1.00  0.00     0.087 C 
HETATM    5  C7  UNL     1      23.979  -0.867  53.898  1.00  0.00     0.062 C 
HETATM    6  C8  UNL     1      25.423  -0.621  53.736  1.00  0.00     0.026 C 
HETATM    7  C9  UNL     1      26.150  -1.186  52.749  1.00  0.00     0.003 C 
HETATM    8  C10 UNL     1      27.387  -0.479  52.291  1.00  0.00     0.031 C 
HETATM    9  C11 UNL     1      27.148   1.000  52.490  1.00  0.00     0.029 C 
HETATM   10  C12 UNL     1      26.752   1.392  53.874  1.00  0.00     0.091 C 
HETATM   11  C13 UNL     1      25.914   2.615  53.970  1.00  0.00     0.136 C 
HETATM   12  C14 UNL     1      24.932   2.833  52.878  1.00  0.00     0.262 C 
HETATM   13  O3  UNL     1      24.506   3.471  51.903  1.00  0.00    -0.265 OA
HETATM   14  O4  UNL     1      24.025   1.799  53.000  1.00  0.00    -0.301 OA
HETATM   15  C15 UNL     1      22.900   1.464  52.278  1.00  0.00     0.307 C 
HETATM   16  N1  UNL     1      22.213   0.281  52.705  1.00  0.00    -0.322 N 
HETATM   17  N2  UNL     1      26.197   0.246  54.625  1.00  0.00    -0.385 N 
HETATM   18  H18 UNL     1      26.357   0.107  55.654  1.00  0.00     0.160 HD
ENDROOT
BRANCH   1  19
HETATM   19  O1  UNL     1      19.807   0.209  52.378  1.00  0.00    -0.330 OA
BRANCH  19  20
HETATM   20  C3  UNL     1      18.612  -0.498  52.500  1.00  0.00     0.133 C 
HETATM   21  C2  UNL     1      17.803  -1.410  53.010  1.00  0.00    -0.007 C 
HETATM   22  C1  UNL     1      16.421  -1.535  52.466  1.00  0.00     0.038 C 
ENDBRANCH  19  20
ENDBRANCH   1  19
TORSDOF 2
ENDMDL
MODEL 6
REMARK VINA RESULT:      -7.0      2.125      6.700
REMARK  2 active torsions:
REMARK  status: ('A' for Active; 'I' for Inactive)
REMARK    1  A    between atoms: C3_3  and  O1_4 
REMARK    2  A    between atoms: O1_4  and  C4_5 
ROOT
HETATM    1  C4  UNL     1      26.232   0.485  51.918  1.00  0.00     0.308 C 
HETATM    2  C5  UNL     1      26.821   1.848  51.938  1.00  0.00     0.224 C 
HETATM    3  O2  UNL     1      27.843   2.545  52.248  1.00  0.00    -0.286 OA
HETATM    4  C6  UNL     1      25.542   2.287  51.334  1.00  0.00     0.087 C 
HETATM    5  C7  UNL     1      24.890   3.167  50.587  1.00  0.00     0.062 C 
HETATM    6  C8  UNL     1      23.695   3.721  49.927  1.00  0.00     0.026 C 
HETATM    7  C9  UNL     1      23.262   3.287  48.725  1.00  0.00     0.003 C 
HETATM    8  C10 UNL     1      21.808   3.439  48.402  1.00  0.00     0.031 C 
HETATM    9  C11 UNL     1      21.055   3.346  49.709  1.00  0.00     0.029 C 
HETATM   10  C12 UNL     1      21.502   4.303  50.762  1.00  0.00     0.091 C 
HETATM   11  C13 UNL     1      21.294   3.847  52.161  1.00  0.00     0.136 C 
HETATM   12  C14 UNL     1      21.471   2.397  52.420  1.00  0.00     0.262 C 
HETATM   13  O3  UNL     1      21.029   1.281  52.737  1.00  0.00    -0.265 OA
HETATM   14  O4  UNL     1      22.811   2.152  52.188  1.00  0.00    -0.301 OA
HETATM   15  C15 UNL     1      23.568   1.004  52.260  1.00  0.00     0.307 C 
HETATM   16  N1  UNL     1      24.953   1.146  51.919  1.00  0.00    -0.322 N 
HETATM   17  N2  UNL     1      22.876   4.787  50.507  1.00  0.00    -0.385 N 
HETATM   18  H18 UNL     1      23.186   5.767  50.725  1.00  0.00     0.160 HD
ENDROOT
BRANCH   1  19
HETATM   19  O1  UNL     1      26.532  -0.325  53.034  1.00  0.00    -0.330 OA
BRANCH  19  20
HETATM   20  C3  UNL     1      27.869  -0.642  53.271  1.00  0.00     0.133 C 
HETATM   21  C2  UNL     1      28.911  -1.448  53.377  1.00  0.00    -0.007 C 
HETATM   22  C1  UNL     1      30.237  -0.869  53.739  1.00  0.00     0.038 C 
ENDBRANCH  19  20
ENDBRANCH   1  19
TORSDOF 2
ENDMDL
MODEL 7
REMARK VINA RESULT:      -6.8      3.293      5.493
REMARK  2 active torsions:
REMARK  status: ('A' for Active; 'I' for Inactive)
REMARK    1  A    between atoms: C3_3  and  O1_4 
REMARK    2  A    between atoms: O1_4  and  C4_5 
ROOT
HETATM    1  C4  UNL     1      27.318   4.898  48.622  1.00  0.00     0.308 C 
HETATM    2  C5  UNL     1      26.499   6.045  49.089  1.00  0.00     0.224 C 
HETATM    3  O2  UNL     1      26.445   7.313  49.217  1.00  0.00    -0.286 OA
HETATM    4  C6  UNL     1      25.493   5.026  49.467  1.00  0.00     0.087 C 
HETATM    5  C7  UNL     1      24.221   4.725  49.691  1.00  0.00     0.062 C 
HETATM    6  C8  UNL     1      23.115   3.822  50.052  1.00  0.00     0.026 C 
HETATM    7  C9  UNL     1      22.522   3.005  49.155  1.00  0.00     0.003 C 
HETATM    8  C10 UNL     1      21.866   1.759  49.662  1.00  0.00     0.031 C 
HETATM    9  C11 UNL     1      22.632   1.328  50.892  1.00  0.00     0.029 C 
HETATM   10  C12 UNL     1      22.758   2.371  51.952  1.00  0.00     0.091 C 
HETATM   11  C13 UNL     1      23.966   2.259  52.810  1.00  0.00     0.136 C 
HETATM   12  C14 UNL     1      25.207   1.787  52.148  1.00  0.00     0.262 C 
HETATM   13  O3  UNL     1      26.109   0.951  51.986  1.00  0.00    -0.265 OA
HETATM   14  O4  UNL     1      25.533   2.782  51.246  1.00  0.00    -0.301 OA
HETATM   15  C15 UNL     1      26.568   2.913  50.348  1.00  0.00     0.307 C 
HETATM   16  N1  UNL     1      26.557   4.105  49.551  1.00  0.00    -0.322 N 
HETATM   17  N2  UNL     1      22.558   3.729  51.402  1.00  0.00    -0.385 N 
HETATM   18  H18 UNL     1      22.079   4.496  51.937  1.00  0.00     0.160 HD
ENDROOT
BRANCH   1  19
HETATM   19  O1  UNL     1      28.706   5.003  48.858  1.00  0.00    -0.330 OA
BRANCH  19  20
HETATM   20  C3  UNL     1      29.437   5.894  48.073  1.00  0.00     0.133 C 
HETATM   21  C2  UNL     1      29.607   6.951  47.299  1.00  0.00    -0.007 C 
HETATM   22  C1  UNL     1      30.972   7.253  46.780  1.00  0.00     0.038 C 
ENDBRANCH  19  20
ENDBRANCH   1  19
TORSDOF 2
ENDMDL
MODEL 8
REMARK VINA RESULT:      -6.8      4.105      6.857
REMARK  2 active torsions:
REMARK  status: ('A' for Active; 'I' for Inactive)
REMARK    1  A    between atoms: C3_3  and  O1_4 
REMARK    2  A    between atoms: O1_4  and  C4_5 
ROOT
HETATM    1  C4  UNL     1      20.599  -0.567  53.095  1.00  0.00     0.308 C 
HETATM    2  C5  UNL     1      21.553  -0.466  54.228  1.00  0.00     0.224 C 
HETATM    3  O2  UNL     1      21.859  -0.908  55.384  1.00  0.00    -0.286 OA
HETATM    4  C6  UNL     1      22.229   0.573  53.418  1.00  0.00     0.087 C 
HETATM    5  C7  UNL     1      23.344   1.230  53.128  1.00  0.00     0.062 C 
HETATM    6  C8  UNL     1      24.144   2.229  52.399  1.00  0.00     0.026 C 
HETATM    7  C9  UNL     1      24.693   1.980  51.192  1.00  0.00     0.003 C 
HETATM    8  C10 UNL     1      24.960   3.140  50.285  1.00  0.00     0.031 C 
HETATM    9  C11 UNL     1      23.914   4.187  50.590  1.00  0.00     0.029 C 
HETATM   10  C12 UNL     1      23.833   4.597  52.023  1.00  0.00     0.091 C 
HETATM   11  C13 UNL     1      22.498   5.068  52.473  1.00  0.00     0.136 C 
HETATM   12  C14 UNL     1      21.320   4.389  51.877  1.00  0.00     0.262 C 
HETATM   13  O3  UNL     1      20.300   4.390  51.170  1.00  0.00    -0.265 OA
HETATM   14  O4  UNL     1      21.385   3.088  52.337  1.00  0.00    -0.301 OA
HETATM   15  C15 UNL     1      20.579   1.991  52.128  1.00  0.00     0.307 C 
HETATM   16  N1  UNL     1      20.991   0.780  52.775  1.00  0.00    -0.322 N 
HETATM   17  N2  UNL     1      24.419   3.572  52.913  1.00  0.00    -0.385 N 
HETATM   18  H18 UNL     1      24.952   3.811  53.787  1.00  0.00     0.160 HD
ENDROOT
BRANCH   1  19
HETATM   19  O1  UNL     1      19.249  -0.772  53.450  1.00  0.00    -0.330 OA
BRANCH  19  20
HETATM   20  C3  UNL     1      18.278  -0.584  52.468  1.00  0.00     0.133 C 
HETATM   21  C2  UNL     1      17.278   0.044  51.873  1.00  0.00    -0.007 C 
HETATM   22  C1  UNL     1      16.702  -0.537  50.627  1.00  0.00     0.038 C 
ENDBRANCH  19  20
ENDBRANCH   1  19
TORSDOF 2
ENDMDL
MODEL 9
REMARK VINA RESULT:      -6.7      4.109      5.920
REMARK  2 active torsions:
REMARK  status: ('A' for Active; 'I' for Inactive)
REMARK    1  A    between atoms: C3_3  and  O1_4 
REMARK    2  A    between atoms: O1_4  and  C4_5 
ROOT
HETATM    1  C4  UNL     1      24.040   5.072  51.300  1.00  0.00     0.308 C 
HETATM    2  C5  UNL     1      24.560   4.033  50.375  1.00  0.00     0.224 C 
HETATM    3  O2  UNL     1      25.345   3.797  49.397  1.00  0.00    -0.286 OA
HETATM    4  C6  UNL     1      23.671   3.100  51.103  1.00  0.00     0.087 C 
HETATM    5  C7  UNL     1      23.409   1.858  51.484  1.00  0.00     0.062 C 
HETATM    6  C8  UNL     1      22.619   0.817  52.166  1.00  0.00     0.026 C 
HETATM    7  C9  UNL     1      22.754   0.549  53.482  1.00  0.00     0.003 C 
HETATM    8  C10 UNL     1      21.585  -0.048  54.203  1.00  0.00     0.031 C 
HETATM    9  C11 UNL     1      20.338   0.463  53.519  1.00  0.00     0.029 C 
HETATM   10  C12 UNL     1      20.281   0.215  52.048  1.00  0.00     0.091 C 
HETATM   11  C13 UNL     1      19.485   1.200  51.271  1.00  0.00     0.136 C 
HETATM   12  C14 UNL     1      19.534   2.608  51.736  1.00  0.00     0.262 C 
HETATM   13  O3  UNL     1      19.000   3.618  52.220  1.00  0.00    -0.265 OA
HETATM   14  O4  UNL     1      20.841   3.007  51.536  1.00  0.00    -0.301 OA
HETATM   15  C15 UNL     1      21.493   4.196  51.775  1.00  0.00     0.307 C 
HETATM   16  N1  UNL     1      22.888   4.222  51.446  1.00  0.00    -0.322 N 
HETATM   17  N2  UNL     1      21.628  -0.018  51.485  1.00  0.00    -0.385 N 
HETATM   18  H18 UNL     1      21.811  -0.696  50.704  1.00  0.00     0.160 HD
ENDROOT
BRANCH   1  19
HETATM   19  O1  UNL     1      23.827   6.345  50.731  1.00  0.00    -0.330 OA
BRANCH  19  20
HETATM   20  C3  UNL     1      24.942   7.136  50.460  1.00  0.00     0.133 C 
HETATM   21  C2  UNL     1      26.035   7.486  49.804  1.00  0.00    -0.007 C 
HETATM   22  C1  UNL     1      26.785   8.696  50.246  1.00  0.00     0.038 C 
ENDBRANCH  19  20
ENDBRANCH   1  19
TORSDOF 2
ENDMDL
