MODEL 1
REMARK VINA RESULT:      -7.8      0.000      0.000
REMARK  4 active torsions:
REMARK  status: ('A' for Active; 'I' for Inactive)
REMARK    1  A    between atoms: C4_4  and  O1_5 
REMARK    2  A    between atoms: O1_5  and  C5_6 
REMARK    3  A    between atoms: C5_6  and  C6_7 
REMARK    4  A    between atoms: C6_7  and  O2_8 
ROOT
HETATM    1  C1  UNL     1      23.266  -1.404  55.538  1.00  0.00     0.018 C 
HETATM    2  C2  UNL     1      22.909  -0.801  54.542  1.00  0.00    -0.072 C 
HETATM    3  C3  UNL     1      22.476  -0.109  53.362  1.00  0.00     0.082 A 
HETATM    4  C4  UNL     1      23.398   0.655  52.689  1.00  0.00     0.123 A 
HETATM    5  C8  UNL     1      22.963   1.322  51.546  1.00  0.00     0.104 A 
HETATM    6  C9  UNL     1      21.639   1.069  51.313  1.00  0.00     0.057 A 
HETATM    7  C10 UNL     1      20.639   0.345  51.903  1.00  0.00     0.043 A 
HETATM    8  C11 UNL     1      19.354   0.304  51.432  1.00  0.00     0.141 A 
HETATM    9  N1  UNL     1      18.543  -0.461  52.191  1.00  0.00    -0.224 NA
HETATM   10  C12 UNL     1      19.023  -1.097  53.300  1.00  0.00     0.236 A 
HETATM   11  N2  UNL     1      20.306  -1.052  53.772  1.00  0.00    -0.240 NA
HETATM   12  C13 UNL     1      21.149  -0.282  53.019  1.00  0.00     0.093 A 
HETATM   13  N3  UNL     1      19.045   1.101  50.267  1.00  0.00    -0.346 N 
HETATM   14  C14 UNL     1      18.904   2.462  50.675  1.00  0.00     0.012 A 
HETATM   15  C15 UNL     1      19.501   3.549  50.256  1.00  0.00     0.073 A 
HETATM   16  C16 UNL     1      20.035   3.849  51.432  1.00  0.00     0.047 A 
HETATM   17  C17 UNL     1      18.578   3.815  51.276  1.00  0.00     0.126 A 
HETATM   18  O3  UNL     1      21.386   3.880  51.578  1.00  0.00    -0.356 OA
HETATM   19  C18 UNL     1      22.322   4.224  50.626  1.00  0.00     0.201 C 
HETATM   20  C19 UNL     1      23.633   3.518  50.785  1.00  0.00     0.202 C 
HETATM   21  O4  UNL     1      23.663   2.143  50.702  1.00  0.00    -0.346 OA
HETATM   22  H11 UNL     1      18.892   1.010  49.243  1.00  0.00     0.167 HD
ENDROOT
BRANCH   4  23
HETATM   23  O1  UNL     1      24.714   0.835  53.019  1.00  0.00    -0.345 OA
BRANCH  23  24
HETATM   24  C5  UNL     1      25.803   0.159  52.426  1.00  0.00     0.202 C 
BRANCH  24  25
HETATM   25  C6  UNL     1      26.377  -0.945  53.251  1.00  0.00     0.193 C 
BRANCH  25  26
HETATM   26  O2  UNL     1      26.617  -0.531  54.582  1.00  0.00    -0.394 OA
HETATM   27  C7  UNL     1      27.825   0.187  54.642  1.00  0.00     0.201 C 
ENDBRANCH  25  26
ENDBRANCH  24  25
ENDBRANCH  23  24
ENDBRANCH   4  23
TORSDOF 4
ENDMDL
MODEL 2
REMARK VINA RESULT:      -7.7      2.372      4.624
REMARK  4 active torsions:
REMARK  status: ('A' for Active; 'I' for Inactive)
REMARK    1  A    between atoms: C4_4  and  O1_5 
REMARK    2  A    between atoms: O1_5  and  C5_6 
REMARK    3  A    between atoms: C5_6  and  C6_7 
REMARK    4  A    between atoms: C6_7  and  O2_8 
ROOT
HETATM    1  C1  UNL     1      26.838   4.027  49.245  1.00  0.00     0.018 C 
HETATM    2  C2  UNL     1      25.991   3.613  50.016  1.00  0.00    -0.072 C 
HETATM    3  C3  UNL     1      24.986   3.147  50.928  1.00  0.00     0.082 A 
HETATM    4  C4  UNL     1      25.323   2.136  51.795  1.00  0.00     0.123 A 
HETATM    5  C8  UNL     1      24.337   1.692  52.673  1.00  0.00     0.104 A 
HETATM    6  C9  UNL     1      23.174   2.389  52.486  1.00  0.00     0.057 A 
HETATM    7  C10 UNL     1      22.727   3.392  51.669  1.00  0.00     0.043 A 
HETATM    8  C11 UNL     1      21.450   3.882  51.700  1.00  0.00     0.141 A 
HETATM    9  N1  UNL     1      21.240   4.854  50.789  1.00  0.00    -0.224 NA
HETATM   10  C12 UNL     1      22.244   5.254  49.954  1.00  0.00     0.236 A 
HETATM   11  N2  UNL     1      23.520   4.760  49.921  1.00  0.00    -0.240 NA
HETATM   12  C13 UNL     1      23.758   3.772  50.837  1.00  0.00     0.093 A 
HETATM   13  N3  UNL     1      20.525   3.275  52.629  1.00  0.00    -0.346 N 
HETATM   14  C14 UNL     1      20.086   2.031  52.081  1.00  0.00     0.012 A 
HETATM   15  C15 UNL     1      20.113   0.820  52.576  1.00  0.00     0.073 A 
HETATM   16  C16 UNL     1      20.877   0.319  51.615  1.00  0.00     0.047 A 
HETATM   17  C17 UNL     1      19.551   0.852  51.293  1.00  0.00     0.126 A 
HETATM   18  O3  UNL     1      22.108  -0.175  51.912  1.00  0.00    -0.356 OA
HETATM   19  C18 UNL     1      22.503  -0.788  53.083  1.00  0.00     0.201 C 
HETATM   20  C19 UNL     1      23.947  -0.575  53.417  1.00  0.00     0.202 C 
HETATM   21  O4  UNL     1      24.402   0.709  53.625  1.00  0.00    -0.346 OA
HETATM   22  H11 UNL     1      20.079   3.444  53.553  1.00  0.00     0.167 HD
ENDROOT
BRANCH   4  23
HETATM   23  O1  UNL     1      26.535   1.509  51.894  1.00  0.00    -0.345 OA
BRANCH  23  24
HETATM   24  C5  UNL     1      27.560   1.853  52.803  1.00  0.00     0.202 C 
BRANCH  24  25
HETATM   25  C6  UNL     1      28.072   0.718  53.625  1.00  0.00     0.193 C 
BRANCH  25  26
HETATM   26  O2  UNL     1      29.476   0.583  53.512  1.00  0.00    -0.394 OA
HETATM   27  C7  UNL     1      29.825  -0.779  53.563  1.00  0.00     0.201 C 
ENDBRANCH  25  26
ENDBRANCH  24  25
ENDBRANCH  23  24
ENDBRANCH   4  23
TORSDOF 4
ENDMDL
MODEL 3
REMARK VINA RESULT:      -7.6      2.914      5.580
REMARK  4 active torsions:
REMARK  status: ('A' for Active; 'I' for Inactive)
REMARK    1  A    between atoms: C4_4  and  O1_5 
REMARK    2  A    between atoms: O1_5  and  C5_6 
REMARK    3  A    between atoms: C5_6  and  C6_7 
REMARK    4  A    between atoms: C6_7  and  O2_8 
ROOT
HETATM    1  C1  UNL     1      21.558  -2.009  53.934  1.00  0.00     0.018 C 
HETATM    2  C2  UNL     1      22.082  -0.954  53.623  1.00  0.00    -0.072 C 
HETATM    3  C3  UNL     1      22.717   0.284  53.273  1.00  0.00     0.082 A 
HETATM    4  C4  UNL     1      21.913   1.363  52.995  1.00  0.00     0.123 A 
HETATM    5  C8  UNL     1      22.542   2.558  52.656  1.00  0.00     0.104 A 
HETATM    6  C9  UNL     1      23.902   2.409  52.670  1.00  0.00     0.057 A 
HETATM    7  C10 UNL     1      24.798   1.405  52.921  1.00  0.00     0.043 A 
HETATM    8  C11 UNL     1      26.155   1.558  52.826  1.00  0.00     0.141 A 
HETATM    9  N1  UNL     1      26.830   0.424  53.102  1.00  0.00    -0.224 NA
HETATM   10  C12 UNL     1      26.162  -0.721  53.434  1.00  0.00     0.236 A 
HETATM   11  N2  UNL     1      24.806  -0.873  53.525  1.00  0.00    -0.240 NA
HETATM   12  C13 UNL     1      24.098   0.264  53.249  1.00  0.00     0.093 A 
HETATM   13  N3  UNL     1      26.652   2.846  52.403  1.00  0.00    -0.346 N 
HETATM   14  C14 UNL     1      26.492   2.950  50.987  1.00  0.00     0.012 A 
HETATM   15  C15 UNL     1      25.887   3.852  50.257  1.00  0.00     0.073 A 
HETATM   16  C16 UNL     1      25.022   3.003  49.718  1.00  0.00     0.047 A 
HETATM   17  C17 UNL     1      26.458   2.838  49.476  1.00  0.00     0.126 A 
HETATM   18  O3  UNL     1      23.690   3.155  49.943  1.00  0.00    -0.356 OA
HETATM   19  C18 UNL     1      23.005   4.335  50.143  1.00  0.00     0.201 C 
HETATM   20  C19 UNL     1      21.808   4.193  51.033  1.00  0.00     0.202 C 
HETATM   21  O4  UNL     1      21.989   3.768  52.331  1.00  0.00    -0.346 OA
HETATM   22  H11 UNL     1      27.084   3.712  52.784  1.00  0.00     0.167 HD
ENDROOT
BRANCH   4  23
HETATM   23  O1  UNL     1      20.545   1.394  53.016  1.00  0.00    -0.345 OA
BRANCH  23  24
HETATM   24  C5  UNL     1      19.709   1.250  51.886  1.00  0.00     0.202 C 
BRANCH  24  25
HETATM   25  C6  UNL     1      18.884   0.006  51.876  1.00  0.00     0.193 C 
BRANCH  25  26
HETATM   26  O2  UNL     1      18.601  -0.444  53.186  1.00  0.00    -0.394 OA
HETATM   27  C7  UNL     1      17.815  -1.609  53.126  1.00  0.00     0.201 C 
ENDBRANCH  25  26
ENDBRANCH  24  25
ENDBRANCH  23  24
ENDBRANCH   4  23
TORSDOF 4
ENDMDL
MODEL 4
REMARK VINA RESULT:      -7.5      3.056      6.961
REMARK  4 active torsions:
REMARK  status: ('A' for Active; 'I' for Inactive)
REMARK    1  A    between atoms: C4_4  and  O1_5 
REMARK    2  A    between atoms: O1_5  and  C5_6 
REMARK    3  A    between atoms: C5_6  and  C6_7 
REMARK    4  A    between atoms: C6_7  and  O2_8 
ROOT
HETATM    1  C1  UNL     1      21.381   4.477  51.883  1.00  0.00     0.018 C 
HETATM    2  C2  UNL     1      22.091   3.505  52.073  1.00  0.00    -0.072 C 
HETATM    3  C3  UNL     1      22.936   2.363  52.275  1.00  0.00     0.082 A 
HETATM    4  C4  UNL     1      22.413   1.288  52.951  1.00  0.00     0.123 A 
HETATM    5  C8  UNL     1      23.245   0.187  53.141  1.00  0.00     0.104 A 
HETATM    6  C9  UNL     1      24.476   0.410  52.587  1.00  0.00     0.057 A 
HETATM    7  C10 UNL     1      25.100   1.421  51.907  1.00  0.00     0.043 A 
HETATM    8  C11 UNL     1      26.401   1.359  51.485  1.00  0.00     0.141 A 
HETATM    9  N1  UNL     1      26.800   2.483  50.855  1.00  0.00    -0.224 NA
HETATM   10  C12 UNL     1      25.941   3.532  50.692  1.00  0.00     0.236 A 
HETATM   11  N2  UNL     1      24.642   3.594  51.118  1.00  0.00    -0.240 NA
HETATM   12  C13 UNL     1      24.213   2.465  51.761  1.00  0.00     0.093 A 
HETATM   13  N3  UNL     1      27.153   0.170  51.812  1.00  0.00    -0.346 N 
HETATM   14  C14 UNL     1      27.550   0.249  53.183  1.00  0.00     0.012 A 
HETATM   15  C15 UNL     1      27.362  -0.579  54.178  1.00  0.00     0.073 A 
HETATM   16  C16 UNL     1      26.680   0.283  54.920  1.00  0.00     0.047 A 
HETATM   17  C17 UNL     1      28.076   0.560  54.569  1.00  0.00     0.126 A 
HETATM   18  O3  UNL     1      25.385   0.026  55.244  1.00  0.00    -0.356 OA
HETATM   19  C18 UNL     1      24.802  -1.207  55.446  1.00  0.00     0.201 C 
HETATM   20  C19 UNL     1      23.351  -1.255  55.080  1.00  0.00     0.202 C 
HETATM   21  O4  UNL     1      22.984  -0.999  53.777  1.00  0.00    -0.346 OA
HETATM   22  H11 UNL     1      27.497  -0.713  51.384  1.00  0.00     0.167 HD
ENDROOT
BRANCH   4  23
HETATM   23  O1  UNL     1      21.150   1.175  53.465  1.00  0.00    -0.345 OA
BRANCH  23  24
HETATM   24  C5  UNL     1      20.045   0.604  52.795  1.00  0.00     0.202 C 
BRANCH  24  25
HETATM   25  C6  UNL     1      19.526  -0.654  53.409  1.00  0.00     0.193 C 
BRANCH  25  26
HETATM   26  O2  UNL     1      18.295  -1.047  52.834  1.00  0.00    -0.394 OA
HETATM   27  C7  UNL     1      17.807  -2.187  53.497  1.00  0.00     0.201 C 
ENDBRANCH  25  26
ENDBRANCH  24  25
ENDBRANCH  23  24
ENDBRANCH   4  23
TORSDOF 4
ENDMDL
MODEL 5
REMARK VINA RESULT:      -7.4      3.085      5.016
REMARK  4 active torsions:
REMARK  status: ('A' for Active; 'I' for Inactive)
REMARK    1  A    between atoms: C4_4  and  O1_5 
REMARK    2  A    between atoms: O1_5  and  C5_6 
REMARK    3  A    between atoms: C5_6  and  C6_7 
REMARK    4  A    between atoms: C6_7  and  O2_8 
ROOT
HETATM    1  C1  UNL     1      27.490  -0.230  52.710  1.00  0.00     0.018 C 
HETATM    2  C2  UNL     1      26.473   0.344  52.364  1.00  0.00    -0.072 C 
HETATM    3  C3  UNL     1      25.286   1.041  51.959  1.00  0.00     0.082 A 
HETATM    4  C4  UNL     1      24.075   0.553  52.388  1.00  0.00     0.123 A 
HETATM    5  C8  UNL     1      22.932   1.238  51.986  1.00  0.00     0.104 A 
HETATM    6  C9  UNL     1      23.261   2.314  51.207  1.00  0.00     0.057 A 
HETATM    7  C10 UNL     1      24.406   2.884  50.719  1.00  0.00     0.043 A 
HETATM    8  C11 UNL     1      24.416   3.989  49.911  1.00  0.00     0.141 A 
HETATM    9  N1  UNL     1      25.661   4.355  49.542  1.00  0.00    -0.224 NA
HETATM   10  C12 UNL     1      26.749   3.649  49.969  1.00  0.00     0.236 A 
HETATM   11  N2  UNL     1      26.737   2.543  50.774  1.00  0.00    -0.240 NA
HETATM   12  C13 UNL     1      25.485   2.151  51.162  1.00  0.00     0.093 A 
HETATM   13  N3  UNL     1      23.141   4.552  49.533  1.00  0.00    -0.346 N 
HETATM   14  C14 UNL     1      22.577   3.741  48.500  1.00  0.00     0.012 A 
HETATM   15  C15 UNL     1      21.419   3.138  48.420  1.00  0.00     0.073 A 
HETATM   16  C16 UNL     1      21.929   1.919  48.311  1.00  0.00     0.047 A 
HETATM   17  C17 UNL     1      22.203   2.924  47.280  1.00  0.00     0.126 A 
HETATM   18  O3  UNL     1      21.676   0.987  49.267  1.00  0.00    -0.356 OA
HETATM   19  C18 UNL     1      20.537   0.865  50.035  1.00  0.00     0.201 C 
HETATM   20  C19 UNL     1      20.785   0.292  51.396  1.00  0.00     0.202 C 
HETATM   21  O4  UNL     1      21.617   0.969  52.262  1.00  0.00    -0.346 OA
HETATM   22  H11 UNL     1      22.506   5.343  49.761  1.00  0.00     0.167 HD
ENDROOT
BRANCH   4  23
HETATM   23  O1  UNL     1      23.866  -0.545  53.177  1.00  0.00    -0.345 OA
BRANCH  23  24
HETATM   24  C5  UNL     1      23.988  -0.574  54.584  1.00  0.00     0.202 C 
BRANCH  24  25
HETATM   25  C6  UNL     1      22.974  -1.420  55.281  1.00  0.00     0.193 C 
BRANCH  25  26
HETATM   26  O2  UNL     1      21.672  -0.883  55.155  1.00  0.00    -0.394 OA
HETATM   27  C7  UNL     1      20.882  -1.740  54.367  1.00  0.00     0.201 C 
ENDBRANCH  25  26
ENDBRANCH  24  25
ENDBRANCH  23  24
ENDBRANCH   4  23
TORSDOF 4
ENDMDL
MODEL 6
REMARK VINA RESULT:      -7.3      2.203      5.101
REMARK  4 active torsions:
REMARK  status: ('A' for Active; 'I' for Inactive)
REMARK    1  A    between atoms: C4_4  and  O1_5 
REMARK    2  A    between atoms: O1_5  and  C5_6 
REMARK    3  A    between atoms: C5_6  and  C6_7 
REMARK    4  A    between atoms: C6_7  and  O2_8 
ROOT
HETATM    1  C1  UNL     1      22.333   2.429  47.433  1.00  0.00     0.018 C 
HETATM    2  C2  UNL     1      22.412   2.240  48.634  1.00  0.00    -0.072 C 
HETATM    3  C3  UNL     1      22.484   2.026  50.051  1.00  0.00     0.082 A 
HETATM    4  C4  UNL     1      23.692   2.235  50.672  1.00  0.00     0.123 A 
HETATM    5  C8  UNL     1      23.748   2.022  52.047  1.00  0.00     0.104 A 
HETATM    6  C9  UNL     1      22.528   1.630  52.526  1.00  0.00     0.057 A 
HETATM    7  C10 UNL     1      21.281   1.389  52.015  1.00  0.00     0.043 A 
HETATM    8  C11 UNL     1      20.221   0.965  52.770  1.00  0.00     0.141 A 
HETATM    9  N1  UNL     1      19.102   0.777  52.042  1.00  0.00    -0.224 NA
HETATM   10  C12 UNL     1      19.101   1.004  50.695  1.00  0.00     0.236 A 
HETATM   11  N2  UNL     1      20.163   1.424  49.940  1.00  0.00    -0.240 NA
HETATM   12  C13 UNL     1      21.311   1.622  50.657  1.00  0.00     0.093 A 
HETATM   13  N3  UNL     1      20.455   0.732  54.176  1.00  0.00    -0.346 N 
HETATM   14  C14 UNL     1      21.123  -0.522  54.322  1.00  0.00     0.012 A 
HETATM   15  C15 UNL     1      22.248  -0.831  54.915  1.00  0.00     0.073 A 
HETATM   16  C16 UNL     1      22.834  -1.294  53.819  1.00  0.00     0.047 A 
HETATM   17  C17 UNL     1      21.632  -1.950  54.341  1.00  0.00     0.126 A 
HETATM   18  O3  UNL     1      23.949  -0.686  53.335  1.00  0.00    -0.356 OA
HETATM   19  C18 UNL     1      24.929  -0.039  54.057  1.00  0.00     0.201 C 
HETATM   20  C19 UNL     1      25.583   1.085  53.314  1.00  0.00     0.202 C 
HETATM   21  O4  UNL     1      24.811   2.150  52.903  1.00  0.00    -0.346 OA
HETATM   22  H11 UNL     1      20.299   1.171  55.106  1.00  0.00     0.167 HD
ENDROOT
BRANCH   4  23
HETATM   23  O1  UNL     1      24.861   2.634  50.083  1.00  0.00    -0.345 OA
BRANCH  23  24
HETATM   24  C5  UNL     1      25.387   3.944  50.121  1.00  0.00     0.202 C 
BRANCH  24  25
HETATM   25  C6  UNL     1      26.791   4.067  49.628  1.00  0.00     0.193 C 
BRANCH  25  26
HETATM   26  O2  UNL     1      26.908   5.059  48.627  1.00  0.00    -0.394 OA
HETATM   27  C7  UNL     1      28.264   5.377  48.433  1.00  0.00     0.201 C 
ENDBRANCH  25  26
ENDBRANCH  24  25
ENDBRANCH  23  24
ENDBRANCH   4  23
TORSDOF 4
ENDMDL
MODEL 7
REMARK VINA RESULT:      -7.3      1.945      5.808
REMARK  4 active torsions:
REMARK  status: ('A' for Active; 'I' for Inactive)
REMARK    1  A    between atoms: C4_4  and  O1_5 
REMARK    2  A    between atoms: O1_5  and  C5_6 
REMARK    3  A    between atoms: C5_6  and  C6_7 
REMARK    4  A    between atoms: C6_7  and  O2_8 
ROOT
HETATM    1  C1  UNL     1      19.355   0.679  51.282  1.00  0.00     0.018 C 
HETATM    2  C2  UNL     1      20.488   0.826  51.705  1.00  0.00    -0.072 C 
HETATM    3  C3  UNL     1      21.814   0.991  52.226  1.00  0.00     0.082 A 
HETATM    4  C4  UNL     1      22.551   2.061  51.780  1.00  0.00     0.123 A 
HETATM    5  C8  UNL     1      23.838   2.208  52.293  1.00  0.00     0.104 A 
HETATM    6  C9  UNL     1      24.121   1.207  53.182  1.00  0.00     0.057 A 
HETATM    7  C10 UNL     1      23.483   0.108  53.690  1.00  0.00     0.043 A 
HETATM    8  C11 UNL     1      24.058  -0.756  54.583  1.00  0.00     0.141 A 
HETATM    9  N1  UNL     1      23.242  -1.774  54.925  1.00  0.00    -0.224 NA
HETATM   10  C12 UNL     1      21.987  -1.868  54.395  1.00  0.00     0.236 A 
HETATM   11  N2  UNL     1      21.415  -1.005  53.500  1.00  0.00    -0.240 NA
HETATM   12  C13 UNL     1      22.223   0.037  53.137  1.00  0.00     0.093 A 
HETATM   13  N3  UNL     1      25.425  -0.500  54.974  1.00  0.00    -0.346 N 
HETATM   14  C14 UNL     1      26.286  -0.937  53.921  1.00  0.00     0.012 A 
HETATM   15  C15 UNL     1      27.213  -0.301  53.252  1.00  0.00     0.073 A 
HETATM   16  C16 UNL     1      26.633  -0.458  52.070  1.00  0.00     0.047 A 
HETATM   17  C17 UNL     1      27.078  -1.630  52.830  1.00  0.00     0.126 A 
HETATM   18  O3  UNL     1      26.220   0.628  51.366  1.00  0.00    -0.356 OA
HETATM   19  C18 UNL     1      26.787   1.884  51.357  1.00  0.00     0.201 C 
HETATM   20  C19 UNL     1      25.804   2.989  51.121  1.00  0.00     0.202 C 
HETATM   21  O4  UNL     1      24.776   3.169  52.020  1.00  0.00    -0.346 OA
HETATM   22  H11 UNL     1      25.981  -0.108  55.759  1.00  0.00     0.167 HD
ENDROOT
BRANCH   4  23
HETATM   23  O1  UNL     1      22.157   3.012  50.879  1.00  0.00    -0.345 OA
BRANCH  23  24
HETATM   24  C5  UNL     1      21.498   4.219  51.202  1.00  0.00     0.202 C 
BRANCH  24  25
HETATM   25  C6  UNL     1      22.156   5.449  50.670  1.00  0.00     0.193 C 
BRANCH  25  26
HETATM   26  O2  UNL     1      23.195   5.895  51.519  1.00  0.00    -0.394 OA
HETATM   27  C7  UNL     1      23.951   6.883  50.862  1.00  0.00     0.201 C 
ENDBRANCH  25  26
ENDBRANCH  24  25
ENDBRANCH  23  24
ENDBRANCH   4  23
TORSDOF 4
ENDMDL
MODEL 8
REMARK VINA RESULT:      -7.0      2.861      5.927
REMARK  4 active torsions:
REMARK  status: ('A' for Active; 'I' for Inactive)
REMARK    1  A    between atoms: C4_4  and  O1_5 
REMARK    2  A    between atoms: O1_5  and  C5_6 
REMARK    3  A    between atoms: C5_6  and  C6_7 
REMARK    4  A    between atoms: C6_7  and  O2_8 
ROOT
HETATM    1  C1  UNL     1      25.164   5.179  49.871  1.00  0.00     0.018 C 
HETATM    2  C2  UNL     1      24.533   4.174  50.147  1.00  0.00    -0.072 C 
HETATM    3  C3  UNL     1      23.810   2.980  50.477  1.00  0.00     0.082 A 
HETATM    4  C4  UNL     1      22.706   2.666  49.721  1.00  0.00     0.123 A 
HETATM    5  C8  UNL     1      22.013   1.505  50.054  1.00  0.00     0.104 A 
HETATM    6  C9  UNL     1      22.602   0.878  51.118  1.00  0.00     0.057 A 
HETATM    7  C10 UNL     1      23.677   1.093  51.938  1.00  0.00     0.043 A 
HETATM    8  C11 UNL     1      24.014   0.269  52.977  1.00  0.00     0.141 A 
HETATM    9  N1  UNL     1      25.101   0.695  53.652  1.00  0.00    -0.224 NA
HETATM   10  C12 UNL     1      25.745   1.841  53.281  1.00  0.00     0.236 A 
HETATM   11  N2  UNL     1      25.406   2.666  52.244  1.00  0.00    -0.240 NA
HETATM   12  C13 UNL     1      24.306   2.254  51.543  1.00  0.00     0.093 A 
HETATM   13  N3  UNL     1      23.158  -0.867  53.232  1.00  0.00    -0.346 N 
HETATM   14  C14 UNL     1      21.988  -0.408  53.911  1.00  0.00     0.012 A 
HETATM   15  C15 UNL     1      20.720  -0.547  53.622  1.00  0.00     0.073 A 
HETATM   16  C16 UNL     1      20.479   0.754  53.526  1.00  0.00     0.047 A 
HETATM   17  C17 UNL     1      20.913   0.180  54.803  1.00  0.00     0.126 A 
HETATM   18  O3  UNL     1      20.077   1.286  52.342  1.00  0.00    -0.356 OA
HETATM   19  C18 UNL     1      19.316   0.677  51.366  1.00  0.00     0.201 C 
HETATM   20  C19 UNL     1      19.622   1.151  49.979  1.00  0.00     0.202 C 
HETATM   21  O4  UNL     1      20.892   0.968  49.477  1.00  0.00    -0.346 OA
HETATM   22  H11 UNL     1      23.115  -1.895  53.087  1.00  0.00     0.167 HD
ENDROOT
BRANCH   4  23
HETATM   23  O1  UNL     1      22.206   3.377  48.664  1.00  0.00    -0.345 OA
BRANCH  23  24
HETATM   24  C5  UNL     1      21.132   4.292  48.731  1.00  0.00     0.202 C 
BRANCH  24  25
HETATM   25  C6  UNL     1      21.525   5.690  49.079  1.00  0.00     0.193 C 
BRANCH  25  26
HETATM   26  O2  UNL     1      21.451   5.922  50.472  1.00  0.00    -0.394 OA
HETATM   27  C7  UNL     1      21.615   7.295  50.731  1.00  0.00     0.201 C 
ENDBRANCH  25  26
ENDBRANCH  24  25
ENDBRANCH  23  24
ENDBRANCH   4  23
TORSDOF 4
ENDMDL
MODEL 9
REMARK VINA RESULT:      -6.9     10.409     13.203
REMARK  4 active torsions:
REMARK  status: ('A' for Active; 'I' for Inactive)
REMARK    1  A    between atoms: C4_4  and  O1_5 
REMARK    2  A    between atoms: O1_5  and  C5_6 
REMARK    3  A    between atoms: C5_6  and  C6_7 
REMARK    4  A    between atoms: C6_7  and  O2_8 
ROOT
HETATM    1  C1  UNL     1      27.752   5.315  48.367  1.00  0.00     0.018 C 
HETATM    2  C2  UNL     1      28.678   6.101  48.464  1.00  0.00    -0.072 C 
HETATM    3  C3  UNL     1      29.781   7.009  48.590  1.00  0.00     0.082 A 
HETATM    4  C4  UNL     1      29.499   8.341  48.776  1.00  0.00     0.123 A 
HETATM    5  C8  UNL     1      30.579   9.212  48.895  1.00  0.00     0.104 A 
HETATM    6  C9  UNL     1      31.762   8.531  48.799  1.00  0.00     0.057 A 
HETATM    7  C10 UNL     1      32.160   7.235  48.612  1.00  0.00     0.043 A 
HETATM    8  C11 UNL     1      33.470   6.849  48.530  1.00  0.00     0.141 A 
HETATM    9  N1  UNL     1      33.613   5.523  48.325  1.00  0.00    -0.224 NA
HETATM   10  C12 UNL     1      32.519   4.713  48.220  1.00  0.00     0.236 A 
HETATM   11  N2  UNL     1      31.209   5.101  48.298  1.00  0.00    -0.240 NA
HETATM   12  C13 UNL     1      31.037   6.442  48.506  1.00  0.00     0.093 A 
HETATM   13  N3  UNL     1      34.477   7.882  48.612  1.00  0.00    -0.346 N 
HETATM   14  C14 UNL     1      34.543   8.550  47.351  1.00  0.00     0.012 A 
HETATM   15  C15 UNL     1      34.430   9.817  47.045  1.00  0.00     0.073 A 
HETATM   16  C16 UNL     1      33.376   9.652  46.257  1.00  0.00     0.047 A 
HETATM   17  C17 UNL     1      34.653   9.021  45.915  1.00  0.00     0.126 A 
HETATM   18  O3  UNL     1      32.191  10.237  46.575  1.00  0.00    -0.356 OA
HETATM   19  C18 UNL     1      31.998  11.430  47.238  1.00  0.00     0.201 C 
HETATM   20  C19 UNL     1      30.741  11.473  48.051  1.00  0.00     0.202 C 
HETATM   21  O4  UNL     1      30.583  10.570  49.080  1.00  0.00    -0.346 OA
HETATM   22  H11 UNL     1      35.160   8.294  49.278  1.00  0.00     0.167 HD
ENDROOT
BRANCH   4  23
HETATM   23  O1  UNL     1      28.259   8.914  48.860  1.00  0.00    -0.345 OA
BRANCH  23  24
HETATM   24  C5  UNL     1      27.613   9.286  50.060  1.00  0.00     0.202 C 
BRANCH  24  25
HETATM   25  C6  UNL     1      26.127   9.145  50.037  1.00  0.00     0.193 C 
BRANCH  25  26
HETATM   26  O2  UNL     1      25.728   7.909  49.478  1.00  0.00    -0.394 OA
HETATM   27  C7  UNL     1      25.199   7.084  50.487  1.00  0.00     0.201 C 
ENDBRANCH  25  26
ENDBRANCH  24  25
ENDBRANCH  23  24
ENDBRANCH   4  23
TORSDOF 4
ENDMDL
