MODEL 1
REMARK VINA RESULT:      -6.8      0.000      0.000
REMARK  5 active torsions:
REMARK  status: ('A' for Active; 'I' for Inactive)
REMARK    1  A    between atoms: O1_2  and  C2_3 
REMARK    2  A    between atoms: C7_11  and  C8_12 
REMARK    3  A    between atoms: C8_12  and  O2_13 
REMARK    4  A    between atoms: O2_13  and  C9_14 
REMARK    5  A    between atoms: C9_14  and  C10_15 
ROOT
HETATM    1  C2  UNL     1      22.729   0.630  53.327  1.00  0.00     0.079 C 
HETATM    2  C3  UNL     1      21.401   0.406  53.462  1.00  0.00     0.071 C 
HETATM    3  C4  UNL     1      20.697   1.358  52.602  1.00  0.00     0.083 C 
HETATM    4  N1  UNL     1      19.774   2.301  52.594  1.00  0.00    -0.151 NA
HETATM    5  N2  UNL     1      20.331   3.645  52.377  1.00  0.00    -0.165 NA
HETATM    6  C5  UNL     1      21.656   3.589  52.239  1.00  0.00     0.128 C 
HETATM    7  C6  UNL     1      22.691   2.670  51.589  1.00  0.00     0.097 C 
HETATM    8  P1  UNL     1      21.463   1.359  50.847  1.00  0.00    -0.058 P 
HETATM    9  C7  UNL     1      23.334   1.799  52.643  1.00  0.00     0.011 C 
HETATM   10  H7  UNL     1      20.632   2.051  49.928  1.00  0.00     0.065 HD
ENDROOT
BRANCH   9  11
HETATM   11  C8  UNL     1      24.558   2.035  53.054  1.00  0.00     0.145 C 
BRANCH  11  12
HETATM   12  O2  UNL     1      25.723   2.291  53.703  1.00  0.00    -0.360 OA
BRANCH  12  13
HETATM   13  C9  UNL     1      26.810   1.410  53.446  1.00  0.00     0.210 C 
BRANCH  13  14
HETATM   14  C10 UNL     1      26.951   0.358  54.490  1.00  0.00     0.249 C 
HETATM   15  C11 UNL     1      28.387   0.084  54.849  1.00  0.00     0.064 C 
HETATM   16  C12 UNL     1      29.138  -0.562  53.727  1.00  0.00     0.172 C 
HETATM   17  O3  UNL     1      28.461  -1.710  53.344  1.00  0.00    -0.363 OA
HETATM   18  C13 UNL     1      27.161  -1.470  52.975  1.00  0.00     0.438 C 
HETATM   19  N3  UNL     1      26.357  -0.873  54.001  1.00  0.00     0.113 N 
HETATM   20  H18 UNL     1      26.248  -1.511  54.819  1.00  0.00     0.319 HD
ENDBRANCH  13  14
ENDBRANCH  12  13
ENDBRANCH  11  12
ENDBRANCH   9  11
BRANCH   1  21
HETATM   21  O1  UNL     1      23.383  -0.451  53.958  1.00  0.00    -0.355 OA
HETATM   22  C1  UNL     1      22.579  -1.159  54.900  1.00  0.00     0.210 C 
ENDBRANCH   1  21
TORSDOF 5
ENDMDL
MODEL 2
REMARK VINA RESULT:      -6.4      2.681      3.446
REMARK  5 active torsions:
REMARK  status: ('A' for Active; 'I' for Inactive)
REMARK    1  A    between atoms: O1_2  and  C2_3 
REMARK    2  A    between atoms: C7_11  and  C8_12 
REMARK    3  A    between atoms: C8_12  and  O2_13 
REMARK    4  A    between atoms: O2_13  and  C9_14 
REMARK    5  A    between atoms: C9_14  and  C10_15 
ROOT
HETATM    1  C2  UNL     1      24.017   3.718  52.104  1.00  0.00     0.079 C 
HETATM    2  C3  UNL     1      23.048   4.590  52.468  1.00  0.00     0.071 C 
HETATM    3  C4  UNL     1      22.772   5.458  51.322  1.00  0.00     0.083 C 
HETATM    4  N1  UNL     1      22.714   6.717  50.933  1.00  0.00    -0.151 NA
HETATM    5  N2  UNL     1      23.801   7.082  50.011  1.00  0.00    -0.165 NA
HETATM    6  C5  UNL     1      24.597   6.038  49.786  1.00  0.00     0.128 C 
HETATM    7  C6  UNL     1      24.459   4.528  49.587  1.00  0.00     0.097 C 
HETATM    8  P1  UNL     1      22.526   4.408  49.740  1.00  0.00    -0.058 P 
HETATM    9  C7  UNL     1      24.828   3.809  50.864  1.00  0.00     0.011 C 
HETATM   10  H7  UNL     1      21.983   5.191  48.688  1.00  0.00     0.065 HD
ENDROOT
BRANCH   9  11
HETATM   11  C8  UNL     1      25.970   3.172  50.971  1.00  0.00     0.145 C 
BRANCH  11  12
HETATM   12  O2  UNL     1      27.198   2.673  51.265  1.00  0.00    -0.360 OA
BRANCH  12  13
HETATM   13  C9  UNL     1      27.252   1.608  52.205  1.00  0.00     0.210 C 
BRANCH  13  14
HETATM   14  C10 UNL     1      27.624   2.070  53.571  1.00  0.00     0.249 C 
HETATM   15  C11 UNL     1      28.934   1.498  54.043  1.00  0.00     0.064 C 
HETATM   16  C12 UNL     1      28.854   0.023  54.282  1.00  0.00     0.172 C 
HETATM   17  O3  UNL     1      27.819  -0.226  55.170  1.00  0.00    -0.363 OA
HETATM   18  C13 UNL     1      26.609   0.255  54.735  1.00  0.00     0.438 C 
HETATM   19  N3  UNL     1      26.585   1.669  54.503  1.00  0.00     0.113 N 
HETATM   20  H18 UNL     1      26.739   2.202  55.387  1.00  0.00     0.319 HD
ENDBRANCH  13  14
ENDBRANCH  12  13
ENDBRANCH  11  12
ENDBRANCH   9  11
BRANCH   1  21
HETATM   21  O1  UNL     1      24.083   2.744  53.124  1.00  0.00    -0.355 OA
HETATM   22  C1  UNL     1      23.263   1.598  52.899  1.00  0.00     0.210 C 
ENDBRANCH   1  21
TORSDOF 5
ENDMDL
MODEL 3
REMARK VINA RESULT:      -6.1      1.891      3.076
REMARK  5 active torsions:
REMARK  status: ('A' for Active; 'I' for Inactive)
REMARK    1  A    between atoms: O1_2  and  C2_3 
REMARK    2  A    between atoms: C7_11  and  C8_12 
REMARK    3  A    between atoms: C8_12  and  O2_13 
REMARK    4  A    between atoms: O2_13  and  C9_14 
REMARK    5  A    between atoms: C9_14  and  C10_15 
ROOT
HETATM    1  C2  UNL     1      24.298   3.132  50.894  1.00  0.00     0.079 C 
HETATM    2  C3  UNL     1      23.762   2.904  49.672  1.00  0.00     0.071 C 
HETATM    3  C4  UNL     1      22.441   2.303  49.867  1.00  0.00     0.083 C 
HETATM    4  N1  UNL     1      21.694   1.260  49.561  1.00  0.00    -0.151 NA
HETATM    5  N2  UNL     1      21.455   0.370  50.708  1.00  0.00    -0.165 NA
HETATM    6  C5  UNL     1      22.061   0.837  51.799  1.00  0.00     0.128 C 
HETATM    7  C6  UNL     1      22.332   2.192  52.455  1.00  0.00     0.097 C 
HETATM    8  P1  UNL     1      21.435   3.313  51.145  1.00  0.00    -0.058 P 
HETATM    9  C7  UNL     1      23.755   2.619  52.176  1.00  0.00     0.011 C 
HETATM   10  H7  UNL     1      20.070   2.924  51.141  1.00  0.00     0.065 HD
ENDROOT
BRANCH   9  11
HETATM   11  C8  UNL     1      24.671   2.559  53.113  1.00  0.00     0.145 C 
BRANCH  11  12
HETATM   12  O2  UNL     1      25.769   2.427  53.901  1.00  0.00    -0.360 OA
BRANCH  12  13
HETATM   13  C9  UNL     1      26.726   1.450  53.511  1.00  0.00     0.210 C 
BRANCH  13  14
HETATM   14  C10 UNL     1      26.883   0.369  54.523  1.00  0.00     0.249 C 
HETATM   15  C11 UNL     1      28.323   0.092  54.861  1.00  0.00     0.064 C 
HETATM   16  C12 UNL     1      29.067  -0.517  53.714  1.00  0.00     0.172 C 
HETATM   17  O3  UNL     1      28.394  -1.656  53.304  1.00  0.00    -0.363 OA
HETATM   18  C13 UNL     1      27.089  -1.413  52.953  1.00  0.00     0.438 C 
HETATM   19  N3  UNL     1      26.291  -0.851  54.003  1.00  0.00     0.113 N 
HETATM   20  H18 UNL     1      26.193  -1.513  54.803  1.00  0.00     0.319 HD
ENDBRANCH  13  14
ENDBRANCH  12  13
ENDBRANCH  11  12
ENDBRANCH   9  11
BRANCH   1  21
HETATM   21  O1  UNL     1      25.441   3.934  50.685  1.00  0.00    -0.355 OA
HETATM   22  C1  UNL     1      26.481   3.299  49.943  1.00  0.00     0.210 C 
ENDBRANCH   1  21
TORSDOF 5
ENDMDL
MODEL 4
REMARK VINA RESULT:      -6.1      2.836      4.254
REMARK  5 active torsions:
REMARK  status: ('A' for Active; 'I' for Inactive)
REMARK    1  A    between atoms: O1_2  and  C2_3 
REMARK    2  A    between atoms: C7_11  and  C8_12 
REMARK    3  A    between atoms: C8_12  and  O2_13 
REMARK    4  A    between atoms: O2_13  and  C9_14 
REMARK    5  A    between atoms: C9_14  and  C10_15 
ROOT
HETATM    1  C2  UNL     1      25.733   3.602  49.847  1.00  0.00     0.079 C 
HETATM    2  C3  UNL     1      24.721   3.792  48.968  1.00  0.00     0.071 C 
HETATM    3  C4  UNL     1      23.471   3.432  49.639  1.00  0.00     0.083 C 
HETATM    4  N1  UNL     1      22.403   2.664  49.552  1.00  0.00    -0.151 NA
HETATM    5  N2  UNL     1      22.391   1.583  50.550  1.00  0.00    -0.165 NA
HETATM    6  C5  UNL     1      23.480   1.638  51.316  1.00  0.00     0.128 C 
HETATM    7  C6  UNL     1      24.357   2.709  51.967  1.00  0.00     0.097 C 
HETATM    8  P1  UNL     1      23.375   4.272  51.357  1.00  0.00    -0.058 P 
HETATM    9  C7  UNL     1      25.614   2.905  51.151  1.00  0.00     0.011 C 
HETATM   10  H7  UNL     1      22.068   4.171  51.901  1.00  0.00     0.065 HD
ENDROOT
BRANCH   9  11
HETATM   11  C8  UNL     1      26.766   2.438  51.571  1.00  0.00     0.145 C 
BRANCH  11  12
HETATM   12  O2  UNL     1      27.916   2.092  52.205  1.00  0.00    -0.360 OA
BRANCH  12  13
HETATM   13  C9  UNL     1      27.804   1.687  53.564  1.00  0.00     0.210 C 
BRANCH  13  14
HETATM   14  C10 UNL     1      28.133   0.248  53.759  1.00  0.00     0.249 C 
HETATM   15  C11 UNL     1      27.414  -0.651  52.789  1.00  0.00     0.064 C 
HETATM   16  C12 UNL     1      25.939  -0.687  53.037  1.00  0.00     0.172 C 
HETATM   17  O3  UNL     1      25.720  -1.053  54.356  1.00  0.00    -0.363 OA
HETATM   18  C13 UNL     1      26.337  -0.218  55.255  1.00  0.00     0.438 C 
HETATM   19  N3  UNL     1      27.760  -0.141  55.108  1.00  0.00     0.113 N 
HETATM   20  H18 UNL     1      28.214  -1.061  55.302  1.00  0.00     0.319 HD
ENDBRANCH  13  14
ENDBRANCH  12  13
ENDBRANCH  11  12
ENDBRANCH   9  11
BRANCH   1  21
HETATM   21  O1  UNL     1      26.880   4.191  49.270  1.00  0.00    -0.355 OA
HETATM   22  C1  UNL     1      26.682   5.519  48.788  1.00  0.00     0.210 C 
ENDBRANCH   1  21
TORSDOF 5
ENDMDL
MODEL 5
REMARK VINA RESULT:      -6.0      3.543      5.795
REMARK  5 active torsions:
REMARK  status: ('A' for Active; 'I' for Inactive)
REMARK    1  A    between atoms: O1_2  and  C2_3 
REMARK    2  A    between atoms: C7_11  and  C8_12 
REMARK    3  A    between atoms: C8_12  and  O2_13 
REMARK    4  A    between atoms: O2_13  and  C9_14 
REMARK    5  A    between atoms: C9_14  and  C10_15 
ROOT
HETATM    1  C2  UNL     1      23.675   0.566  53.167  1.00  0.00     0.079 C 
HETATM    2  C3  UNL     1      23.997  -0.482  53.961  1.00  0.00     0.071 C 
HETATM    3  C4  UNL     1      25.453  -0.632  53.936  1.00  0.00     0.083 C 
HETATM    4  N1  UNL     1      26.428  -1.485  53.690  1.00  0.00    -0.151 NA
HETATM    5  N2  UNL     1      27.179  -1.160  52.467  1.00  0.00    -0.165 NA
HETATM    6  C5  UNL     1      26.686  -0.064  51.891  1.00  0.00     0.128 C 
HETATM    7  C6  UNL     1      26.116   1.287  52.324  1.00  0.00     0.097 C 
HETATM    8  P1  UNL     1      26.299   1.057  54.245  1.00  0.00    -0.058 P 
HETATM    9  C7  UNL     1      24.607   1.255  52.240  1.00  0.00     0.011 C 
HETATM   10  H7  UNL     1      27.684   0.893  54.507  1.00  0.00     0.065 HD
ENDROOT
BRANCH   9  11
HETATM   11  C8  UNL     1      23.975   1.877  51.273  1.00  0.00     0.145 C 
BRANCH  11  12
HETATM   12  O2  UNL     1      23.532   2.644  50.243  1.00  0.00    -0.360 OA
BRANCH  12  13
HETATM   13  C9  UNL     1      24.513   3.377  49.520  1.00  0.00     0.210 C 
BRANCH  13  14
HETATM   14  C10 UNL     1      25.224   4.372  50.370  1.00  0.00     0.249 C 
HETATM   15  C11 UNL     1      24.907   5.794  49.990  1.00  0.00     0.064 C 
HETATM   16  C12 UNL     1      25.461   6.158  48.648  1.00  0.00     0.172 C 
HETATM   17  O3  UNL     1      26.823   5.902  48.647  1.00  0.00    -0.363 OA
HETATM   18  C13 UNL     1      27.126   4.598  48.952  1.00  0.00     0.438 C 
HETATM   19  N3  UNL     1      26.655   4.169  50.236  1.00  0.00     0.113 N 
HETATM   20  H18 UNL     1      27.117   4.697  51.007  1.00  0.00     0.319 HD
ENDBRANCH  13  14
ENDBRANCH  12  13
ENDBRANCH  11  12
ENDBRANCH   9  11
BRANCH   1  21
HETATM   21  O1  UNL     1      22.312   0.846  53.406  1.00  0.00    -0.355 OA
HETATM   22  C1  UNL     1      21.641  -0.127  54.206  1.00  0.00     0.210 C 
ENDBRANCH   1  21
TORSDOF 5
ENDMDL
MODEL 6
REMARK VINA RESULT:      -6.0      2.323      3.249
REMARK  5 active torsions:
REMARK  status: ('A' for Active; 'I' for Inactive)
REMARK    1  A    between atoms: O1_2  and  C2_3 
REMARK    2  A    between atoms: C7_11  and  C8_12 
REMARK    3  A    between atoms: C8_12  and  O2_13 
REMARK    4  A    between atoms: O2_13  and  C9_14 
REMARK    5  A    between atoms: C9_14  and  C10_15 
ROOT
HETATM    1  C2  UNL     1      22.861   2.015  50.061  1.00  0.00     0.079 C 
HETATM    2  C3  UNL     1      21.706   1.355  49.811  1.00  0.00     0.071 C 
HETATM    3  C4  UNL     1      21.127   0.962  51.096  1.00  0.00     0.083 C 
HETATM    4  N1  UNL     1      20.689  -0.069  51.793  1.00  0.00    -0.151 NA
HETATM    5  N2  UNL     1      21.570  -0.417  52.919  1.00  0.00    -0.165 NA
HETATM    6  C5  UNL     1      22.617   0.406  52.967  1.00  0.00     0.128 C 
HETATM    7  C6  UNL     1      22.906   1.890  52.739  1.00  0.00     0.097 C 
HETATM    8  P1  UNL     1      21.100   2.454  52.296  1.00  0.00    -0.058 P 
HETATM    9  C7  UNL     1      23.538   2.084  51.380  1.00  0.00     0.011 C 
HETATM   10  H7  UNL     1      20.296   2.180  53.433  1.00  0.00     0.065 HD
ENDROOT
BRANCH   9  11
HETATM   11  C8  UNL     1      24.819   2.345  51.266  1.00  0.00     0.145 C 
BRANCH  11  12
HETATM   12  O2  UNL     1      26.176   2.396  51.259  1.00  0.00    -0.360 OA
BRANCH  12  13
HETATM   13  C9  UNL     1      26.861   1.400  52.008  1.00  0.00     0.210 C 
BRANCH  13  14
HETATM   14  C10 UNL     1      27.499   1.947  53.237  1.00  0.00     0.249 C 
HETATM   15  C11 UNL     1      28.828   1.308  53.538  1.00  0.00     0.064 C 
HETATM   16  C12 UNL     1      28.688  -0.128  53.936  1.00  0.00     0.172 C 
HETATM   17  O3  UNL     1      27.810  -0.207  55.006  1.00  0.00    -0.363 OA
HETATM   18  C13 UNL     1      26.579   0.336  54.734  1.00  0.00     0.438 C 
HETATM   19  N3  UNL     1      26.614   1.721  54.366  1.00  0.00     0.113 N 
HETATM   20  H18 UNL     1      26.957   2.315  55.152  1.00  0.00     0.319 HD
ENDBRANCH  13  14
ENDBRANCH  12  13
ENDBRANCH  11  12
ENDBRANCH   9  11
BRANCH   1  21
HETATM   21  O1  UNL     1      23.261   2.598  48.839  1.00  0.00    -0.355 OA
HETATM   22  C1  UNL     1      22.477   2.206  47.713  1.00  0.00     0.210 C 
ENDBRANCH   1  21
TORSDOF 5
ENDMDL
MODEL 7
REMARK VINA RESULT:      -5.9      4.190      5.519
REMARK  5 active torsions:
REMARK  status: ('A' for Active; 'I' for Inactive)
REMARK    1  A    between atoms: O1_2  and  C2_3 
REMARK    2  A    between atoms: C7_11  and  C8_12 
REMARK    3  A    between atoms: C8_12  and  O2_13 
REMARK    4  A    between atoms: O2_13  and  C9_14 
REMARK    5  A    between atoms: C9_14  and  C10_15 
ROOT
HETATM    1  C2  UNL     1      26.731   5.014  49.190  1.00  0.00     0.079 C 
HETATM    2  C3  UNL     1      26.368   5.956  48.288  1.00  0.00     0.071 C 
HETATM    3  C4  UNL     1      25.011   6.392  48.617  1.00  0.00     0.083 C 
HETATM    4  N1  UNL     1      23.793   6.532  48.131  1.00  0.00    -0.151 NA
HETATM    5  N2  UNL     1      22.833   5.575  48.704  1.00  0.00    -0.165 NA
HETATM    6  C5  UNL     1      23.433   4.783  49.592  1.00  0.00     0.128 C 
HETATM    7  C6  UNL     1      24.504   4.901  50.678  1.00  0.00     0.097 C 
HETATM    8  P1  UNL     1      24.880   6.798  50.484  1.00  0.00    -0.058 P 
HETATM    9  C7  UNL     1      25.817   4.362  50.160  1.00  0.00     0.011 C 
HETATM   10  H7  UNL     1      23.672   7.486  50.773  1.00  0.00     0.065 HD
ENDROOT
BRANCH   9  11
HETATM   11  C8  UNL     1      26.270   3.197  50.562  1.00  0.00     0.145 C 
BRANCH  11  12
HETATM   12  O2  UNL     1      26.899   2.016  50.792  1.00  0.00    -0.360 OA
BRANCH  12  13
HETATM   13  C9  UNL     1      26.598   1.354  52.014  1.00  0.00     0.210 C 
BRANCH  13  14
HETATM   14  C10 UNL     1      27.342   1.925  53.170  1.00  0.00     0.249 C 
HETATM   15  C11 UNL     1      28.681   1.269  53.382  1.00  0.00     0.064 C 
HETATM   16  C12 UNL     1      28.550  -0.152  53.833  1.00  0.00     0.172 C 
HETATM   17  O3  UNL     1      27.761  -0.184  54.973  1.00  0.00    -0.363 OA
HETATM   18  C13 UNL     1      26.521   0.374  54.784  1.00  0.00     0.438 C 
HETATM   19  N3  UNL     1      26.549   1.747  54.374  1.00  0.00     0.113 N 
HETATM   20  H18 UNL     1      26.964   2.357  55.111  1.00  0.00     0.319 HD
ENDBRANCH  13  14
ENDBRANCH  12  13
ENDBRANCH  11  12
ENDBRANCH   9  11
BRANCH   1  21
HETATM   21  O1  UNL     1      28.115   4.798  49.009  1.00  0.00    -0.355 OA
HETATM   22  C1  UNL     1      28.771   5.798  48.231  1.00  0.00     0.210 C 
ENDBRANCH   1  21
TORSDOF 5
ENDMDL
MODEL 8
REMARK VINA RESULT:      -5.7      2.698      3.943
REMARK  5 active torsions:
REMARK  status: ('A' for Active; 'I' for Inactive)
REMARK    1  A    between atoms: O1_2  and  C2_3 
REMARK    2  A    between atoms: C7_11  and  C8_12 
REMARK    3  A    between atoms: C8_12  and  O2_13 
REMARK    4  A    between atoms: O2_13  and  C9_14 
REMARK    5  A    between atoms: C9_14  and  C10_15 
ROOT
HETATM    1  C2  UNL     1      24.514   3.776  50.183  1.00  0.00     0.079 C 
HETATM    2  C3  UNL     1      23.869   4.293  49.111  1.00  0.00     0.071 C 
HETATM    3  C4  UNL     1      22.842   5.211  49.606  1.00  0.00     0.083 C 
HETATM    4  N1  UNL     1      21.551   5.481  49.568  1.00  0.00    -0.151 NA
HETATM    5  N2  UNL     1      20.870   5.202  50.842  1.00  0.00    -0.165 NA
HETATM    6  C5  UNL     1      21.732   4.736  51.744  1.00  0.00     0.128 C 
HETATM    7  C6  UNL     1      23.180   4.989  52.167  1.00  0.00     0.097 C 
HETATM    8  P1  UNL     1      23.590   6.406  50.902  1.00  0.00    -0.058 P 
HETATM    9  C7  UNL     1      24.075   3.915  51.594  1.00  0.00     0.011 C 
HETATM   10  H7  UNL     1      22.700   7.475  51.183  1.00  0.00     0.065 HD
ENDROOT
BRANCH   9  11
HETATM   11  C8  UNL     1      24.559   2.964  52.359  1.00  0.00     0.145 C 
BRANCH  11  12
HETATM   12  O2  UNL     1      24.828   1.892  53.147  1.00  0.00    -0.360 OA
BRANCH  12  13
HETATM   13  C9  UNL     1      26.003   1.960  53.946  1.00  0.00     0.210 C 
BRANCH  13  14
HETATM   14  C10 UNL     1      27.237   1.643  53.175  1.00  0.00     0.249 C 
HETATM   15  C11 UNL     1      27.102   0.392  52.349  1.00  0.00     0.064 C 
HETATM   16  C12 UNL     1      27.003  -0.837  53.196  1.00  0.00     0.172 C 
HETATM   17  O3  UNL     1      28.098  -0.881  54.044  1.00  0.00    -0.363 OA
HETATM   18  C13 UNL     1      28.212   0.236  54.834  1.00  0.00     0.438 C 
HETATM   19  N3  UNL     1      28.339   1.463  54.104  1.00  0.00     0.113 N 
HETATM   20  H18 UNL     1      29.220   1.486  53.548  1.00  0.00     0.319 HD
ENDBRANCH  13  14
ENDBRANCH  12  13
ENDBRANCH  11  12
ENDBRANCH   9  11
BRANCH   1  21
HETATM   21  O1  UNL     1      25.649   3.103  49.681  1.00  0.00    -0.355 OA
HETATM   22  C1  UNL     1      26.763   3.950  49.403  1.00  0.00     0.210 C 
ENDBRANCH   1  21
TORSDOF 5
ENDMDL
MODEL 9
REMARK VINA RESULT:      -5.6      2.756      6.394
REMARK  5 active torsions:
REMARK  status: ('A' for Active; 'I' for Inactive)
REMARK    1  A    between atoms: O1_2  and  C2_3 
REMARK    2  A    between atoms: C7_11  and  C8_12 
REMARK    3  A    between atoms: C8_12  and  O2_13 
REMARK    4  A    between atoms: O2_13  and  C9_14 
REMARK    5  A    between atoms: C9_14  and  C10_15 
ROOT
HETATM    1  C2  UNL     1      23.592   0.433  53.222  1.00  0.00     0.079 C 
HETATM    2  C3  UNL     1      24.016  -0.541  54.061  1.00  0.00     0.071 C 
HETATM    3  C4  UNL     1      25.477  -0.587  53.994  1.00  0.00     0.083 C 
HETATM    4  N1  UNL     1      26.505  -1.380  53.761  1.00  0.00    -0.151 NA
HETATM    5  N2  UNL     1      27.191  -1.074  52.496  1.00  0.00    -0.165 NA
HETATM    6  C5  UNL     1      26.600  -0.052  51.877  1.00  0.00     0.128 C 
HETATM    7  C6  UNL     1      25.945   1.278  52.254  1.00  0.00     0.097 C 
HETATM    8  P1  UNL     1      26.205   1.175  54.177  1.00  0.00    -0.058 P 
HETATM    9  C7  UNL     1      24.441   1.131  52.225  1.00  0.00     0.011 C 
HETATM   10  H7  UNL     1      27.606   1.127  54.398  1.00  0.00     0.065 HD
ENDROOT
BRANCH   9  11
HETATM   11  C8  UNL     1      23.734   1.648  51.248  1.00  0.00     0.145 C 
BRANCH  11  12
HETATM   12  O2  UNL     1      22.971   1.948  50.166  1.00  0.00    -0.360 OA
BRANCH  12  13
HETATM   13  C9  UNL     1      21.615   1.519  50.195  1.00  0.00     0.210 C 
BRANCH  13  14
HETATM   14  C10 UNL     1      20.658   2.634  49.951  1.00  0.00     0.249 C 
HETATM   15  C11 UNL     1      20.984   3.866  50.751  1.00  0.00     0.064 C 
HETATM   16  C12 UNL     1      20.773   3.661  52.218  1.00  0.00     0.172 C 
HETATM   17  O3  UNL     1      19.473   3.228  52.423  1.00  0.00    -0.363 OA
HETATM   18  C13 UNL     1      19.172   2.081  51.731  1.00  0.00     0.438 C 
HETATM   19  N3  UNL     1      19.322   2.193  50.310  1.00  0.00     0.113 N 
HETATM   20  H18 UNL     1      18.650   2.884  49.910  1.00  0.00     0.319 HD
ENDBRANCH  13  14
ENDBRANCH  12  13
ENDBRANCH  11  12
ENDBRANCH   9  11
BRANCH   1  21
HETATM   21  O1  UNL     1      22.220   0.626  53.494  1.00  0.00    -0.355 OA
HETATM   22  C1  UNL     1      21.681  -0.263  54.470  1.00  0.00     0.210 C 
ENDBRANCH   1  21
TORSDOF 5
ENDMDL
