MODEL 1
REMARK VINA RESULT:      -8.0      0.000      0.000
REMARK  2 active torsions:
REMARK  status: ('A' for Active; 'I' for Inactive)
REMARK    1  A    between atoms: C7_7  and  N1_8 
REMARK    2  A    between atoms: C8_9  and  C9_10 
ROOT
HETATM    1  C1  UNL     1      22.645   1.984  49.515  1.00  0.00     0.040 C 
HETATM    2  C2  UNL     1      22.318   2.967  50.535  1.00  0.00    -0.079 A 
HETATM    3  C3  UNL     1      21.340   3.844  50.420  1.00  0.00     0.058 A 
HETATM    4  C4  UNL     1      21.938   5.106  51.031  1.00  0.00     0.108 A 
HETATM    5  C5  UNL     1      21.735   4.668  52.421  1.00  0.00    -0.009 A 
HETATM    6  C6  UNL     1      22.288   3.749  51.731  1.00  0.00     0.058 A 
HETATM    7  C7  UNL     1      23.729   4.058  52.006  1.00  0.00     0.160 C 
HETATM    8  C8  UNL     1      24.803   3.278  51.477  1.00  0.00     0.095 C 
HETATM    9  N2  UNL     1      25.340   3.637  50.392  1.00  0.00    -0.241 NA
HETATM   10  C15 UNL     1      26.375   3.098  49.649  1.00  0.00     0.232 C 
HETATM   11  N3  UNL     1      27.185   3.875  48.972  1.00  0.00    -0.254 NA
HETATM   12  C16 UNL     1      26.917   5.262  49.067  1.00  0.00     0.117 C 
HETATM   13  C17 UNL     1      26.448   6.466  49.281  1.00  0.00     0.017 C 
HETATM   14  C18 UNL     1      25.228   6.852  49.938  1.00  0.00     0.002 C 
HETATM   15  C19 UNL     1      24.489   5.836  50.356  1.00  0.00     0.132 C 
HETATM   16  N4  UNL     1      23.410   5.184  50.956  1.00  0.00    -0.364 N 
ENDROOT
BRANCH   8  17
HETATM   17  C9  UNL     1      25.160   2.134  52.312  1.00  0.00    -0.005 A 
HETATM   18  C10 UNL     1      24.329   1.070  52.598  1.00  0.00     0.014 A 
HETATM   19  C11 UNL     1      24.626  -0.013  53.388  1.00  0.00     0.003 A 
HETATM   20  C12 UNL     1      25.872  -0.087  53.977  1.00  0.00     0.024 A 
HETATM   21  C13 UNL     1      26.758   0.940  53.739  1.00  0.00     0.035 A 
HETATM   22 CL1  UNL     1      28.354   0.897  54.466  1.00  0.00    -0.084 Cl
HETATM   23  C14 UNL     1      26.381   1.988  52.935  1.00  0.00     0.037 A 
ENDBRANCH   8  17
BRANCH   7  24
HETATM   24  N1  UNL     1      24.070   4.646  53.230  1.00  0.00    -0.400 N 
HETATM   25  H7  UNL     1      24.858   4.189  53.681  1.00  0.00     0.152 HD
HETATM   26  H8  UNL     1      24.019   5.661  53.197  1.00  0.00     0.152 HD
ENDBRANCH   7  24
TORSDOF 2
ENDMDL
MODEL 2
REMARK VINA RESULT:      -7.9      3.337      4.978
REMARK  2 active torsions:
REMARK  status: ('A' for Active; 'I' for Inactive)
REMARK    1  A    between atoms: C7_7  and  N1_8 
REMARK    2  A    between atoms: C8_9  and  C9_10 
ROOT
HETATM    1  C1  UNL     1      22.983   2.932  49.300  1.00  0.00     0.040 C 
HETATM    2  C2  UNL     1      23.147   3.615  50.573  1.00  0.00    -0.079 A 
HETATM    3  C3  UNL     1      22.390   3.389  51.629  1.00  0.00     0.058 A 
HETATM    4  C4  UNL     1      22.198   4.783  52.217  1.00  0.00     0.108 A 
HETATM    5  C5  UNL     1      23.526   4.823  52.851  1.00  0.00    -0.009 A 
HETATM    6  C6  UNL     1      23.614   4.450  51.634  1.00  0.00     0.058 A 
HETATM    7  C7  UNL     1      23.852   5.779  50.981  1.00  0.00     0.160 C 
HETATM    8  C8  UNL     1      24.060   5.923  49.575  1.00  0.00     0.095 C 
HETATM    9  N2  UNL     1      23.068   6.179  48.836  1.00  0.00    -0.241 NA
HETATM   10  C15 UNL     1      22.957   6.371  47.471  1.00  0.00     0.232 C 
HETATM   11  N3  UNL     1      22.074   7.210  46.984  1.00  0.00    -0.254 NA
HETATM   12  C16 UNL     1      21.277   7.878  47.945  1.00  0.00     0.117 C 
HETATM   13  C17 UNL     1      20.655   8.327  49.007  1.00  0.00     0.017 C 
HETATM   14  C18 UNL     1      20.764   7.880  50.369  1.00  0.00     0.002 C 
HETATM   15  C19 UNL     1      21.596   6.866  50.545  1.00  0.00     0.132 C 
HETATM   16  N4  UNL     1      22.304   5.881  51.236  1.00  0.00    -0.364 N 
ENDROOT
BRANCH   8  17
HETATM   17  C9  UNL     1      25.455   5.769  49.170  1.00  0.00    -0.005 A 
HETATM   18  C10 UNL     1      26.175   4.593  49.239  1.00  0.00     0.014 A 
HETATM   19  C11 UNL     1      27.489   4.415  48.882  1.00  0.00     0.003 A 
HETATM   20  C12 UNL     1      28.201   5.494  48.401  1.00  0.00     0.024 A 
HETATM   21  C13 UNL     1      27.550   6.703  48.304  1.00  0.00     0.035 A 
HETATM   22 CL1  UNL     1      28.410   8.108  47.701  1.00  0.00    -0.084 Cl
HETATM   23  C14 UNL     1      26.233   6.797  48.683  1.00  0.00     0.037 A 
ENDBRANCH   8  17
BRANCH   7  24
HETATM   24  N1  UNL     1      24.511   6.778  51.707  1.00  0.00    -0.400 N 
HETATM   25  H7  UNL     1      24.039   7.008  52.578  1.00  0.00     0.152 HD
HETATM   26  H8  UNL     1      25.521   6.666  51.687  1.00  0.00     0.152 HD
ENDBRANCH   7  24
TORSDOF 2
ENDMDL
MODEL 3
REMARK VINA RESULT:      -7.9      1.839      3.917
REMARK  2 active torsions:
REMARK  status: ('A' for Active; 'I' for Inactive)
REMARK    1  A    between atoms: C7_7  and  N1_8 
REMARK    2  A    between atoms: C8_9  and  C9_10 
ROOT
HETATM    1  C1  UNL     1      23.111   4.780  52.656  1.00  0.00     0.040 C 
HETATM    2  C2  UNL     1      24.058   4.944  51.565  1.00  0.00    -0.079 A 
HETATM    3  C3  UNL     1      24.049   5.969  50.736  1.00  0.00     0.058 A 
HETATM    4  C4  UNL     1      24.375   5.325  49.392  1.00  0.00     0.108 A 
HETATM    5  C5  UNL     1      25.818   5.220  49.663  1.00  0.00    -0.009 A 
HETATM    6  C6  UNL     1      25.137   4.772  50.645  1.00  0.00     0.058 A 
HETATM    7  C7  UNL     1      25.071   3.323  50.265  1.00  0.00     0.160 C 
HETATM    8  C8  UNL     1      24.425   2.340  51.075  1.00  0.00     0.095 C 
HETATM    9  N2  UNL     1      23.218   2.052  50.836  1.00  0.00    -0.241 NA
HETATM   10  C15 UNL     1      22.344   1.162  51.434  1.00  0.00     0.232 C 
HETATM   11  N3  UNL     1      21.429   0.546  50.724  1.00  0.00    -0.254 NA
HETATM   12  C16 UNL     1      21.420   0.860  49.343  1.00  0.00     0.117 C 
HETATM   13  C17 UNL     1      21.588   1.338  48.135  1.00  0.00     0.017 C 
HETATM   14  C18 UNL     1      22.433   2.419  47.705  1.00  0.00     0.002 C 
HETATM   15  C19 UNL     1      23.108   3.004  48.682  1.00  0.00     0.132 C 
HETATM   16  N4  UNL     1      23.988   3.905  49.285  1.00  0.00    -0.364 N 
ENDROOT
BRANCH   8  17
HETATM   17  C9  UNL     1      25.292   1.762  52.099  1.00  0.00    -0.005 A 
HETATM   18  C10 UNL     1      25.697   2.407  53.249  1.00  0.00     0.014 A 
HETATM   19  C11 UNL     1      26.522   1.901  54.224  1.00  0.00     0.003 A 
HETATM   20  C12 UNL     1      27.019   0.623  54.080  1.00  0.00     0.024 A 
HETATM   21  C13 UNL     1      26.659  -0.085  52.955  1.00  0.00     0.035 A 
HETATM   22 CL1  UNL     1      27.265  -1.714  52.720  1.00  0.00    -0.084 Cl
HETATM   23  C14 UNL     1      25.829   0.495  52.026  1.00  0.00     0.037 A 
ENDBRANCH   8  17
BRANCH   7  24
HETATM   24  N1  UNL     1      26.123   2.773  49.523  1.00  0.00    -0.400 N 
HETATM   25  H7  UNL     1      26.374   1.836  49.829  1.00  0.00     0.152 HD
HETATM   26  H8  UNL     1      26.046   2.983  48.531  1.00  0.00     0.152 HD
ENDBRANCH   7  24
TORSDOF 2
ENDMDL
MODEL 4
REMARK VINA RESULT:      -7.7      6.200      9.686
REMARK  2 active torsions:
REMARK  status: ('A' for Active; 'I' for Inactive)
REMARK    1  A    between atoms: C7_7  and  N1_8 
REMARK    2  A    between atoms: C8_9  and  C9_10 
ROOT
HETATM    1  C1  UNL     1      31.826   7.160  44.578  1.00  0.00     0.040 C 
HETATM    2  C2  UNL     1      32.347   7.795  45.778  1.00  0.00    -0.079 A 
HETATM    3  C3  UNL     1      33.452   8.515  45.805  1.00  0.00     0.058 A 
HETATM    4  C4  UNL     1      34.088   8.115  47.132  1.00  0.00     0.108 A 
HETATM    5  C5  UNL     1      33.202   8.965  47.944  1.00  0.00    -0.009 A 
HETATM    6  C6  UNL     1      32.529   8.269  47.114  1.00  0.00     0.058 A 
HETATM    7  C7  UNL     1      32.225   7.078  47.972  1.00  0.00     0.160 C 
HETATM    8  C8  UNL     1      31.438   5.976  47.516  1.00  0.00     0.095 C 
HETATM    9  N2  UNL     1      32.025   4.974  47.017  1.00  0.00    -0.241 NA
HETATM   10  C15 UNL     1      31.546   3.784  46.500  1.00  0.00     0.232 C 
HETATM   11  N3  UNL     1      32.234   2.675  46.629  1.00  0.00    -0.254 NA
HETATM   12  C16 UNL     1      33.463   2.801  47.321  1.00  0.00     0.117 C 
HETATM   13  C17 UNL     1      34.551   3.179  47.945  1.00  0.00     0.017 C 
HETATM   14  C18 UNL     1      34.993   4.512  48.254  1.00  0.00     0.002 C 
HETATM   15  C19 UNL     1      34.185   5.467  47.821  1.00  0.00     0.132 C 
HETATM   16  N4  UNL     1      33.721   6.766  47.605  1.00  0.00    -0.364 N 
ENDROOT
BRANCH   8  17
HETATM   17  C9  UNL     1      30.003   6.158  47.716  1.00  0.00    -0.005 A 
HETATM   18  C10 UNL     1      29.291   7.286  47.364  1.00  0.00     0.014 A 
HETATM   19  C11 UNL     1      27.947   7.498  47.550  1.00  0.00     0.003 A 
HETATM   20  C12 UNL     1      27.192   6.509  48.146  1.00  0.00     0.024 A 
HETATM   21  C13 UNL     1      27.834   5.351  48.527  1.00  0.00     0.035 A 
HETATM   22 CL1  UNL     1      26.922   4.062  49.291  1.00  0.00    -0.084 Cl
HETATM   23  C14 UNL     1      29.183   5.219  48.304  1.00  0.00     0.037 A 
ENDBRANCH   8  17
BRANCH   7  24
HETATM   24  N1  UNL     1      32.113   7.256  49.357  1.00  0.00    -0.400 N 
HETATM   25  H7  UNL     1      32.580   8.097  49.685  1.00  0.00     0.152 HD
HETATM   26  H8  UNL     1      31.186   7.019  49.701  1.00  0.00     0.152 HD
ENDBRANCH   7  24
TORSDOF 2
ENDMDL
MODEL 5
REMARK VINA RESULT:      -7.4      4.295      7.195
REMARK  2 active torsions:
REMARK  status: ('A' for Active; 'I' for Inactive)
REMARK    1  A    between atoms: C7_7  and  N1_8 
REMARK    2  A    between atoms: C8_9  and  C9_10 
ROOT
HETATM    1  C1  UNL     1      28.107   8.382  45.573  1.00  0.00     0.040 C 
HETATM    2  C2  UNL     1      28.027   9.234  46.749  1.00  0.00    -0.079 A 
HETATM    3  C3  UNL     1      28.520  10.456  46.803  1.00  0.00     0.058 A 
HETATM    4  C4  UNL     1      29.104  10.528  48.210  1.00  0.00     0.108 A 
HETATM    5  C5  UNL     1      27.802  10.742  48.863  1.00  0.00    -0.009 A 
HETATM    6  C6  UNL     1      27.746   9.763  48.046  1.00  0.00     0.058 A 
HETATM    7  C7  UNL     1      28.065   8.635  48.982  1.00  0.00     0.160 C 
HETATM    8  C8  UNL     1      28.100   7.270  48.564  1.00  0.00     0.095 C 
HETATM    9  N2  UNL     1      29.205   6.769  48.211  1.00  0.00    -0.241 NA
HETATM   10  C15 UNL     1      29.548   5.505  47.768  1.00  0.00     0.232 C 
HETATM   11  N3  UNL     1      30.720   4.992  48.056  1.00  0.00    -0.254 NA
HETATM   12  C16 UNL     1      31.569   5.816  48.834  1.00  0.00     0.117 C 
HETATM   13  C17 UNL     1      32.168   6.764  49.510  1.00  0.00     0.017 C 
HETATM   14  C18 UNL     1      31.740   8.119  49.731  1.00  0.00     0.002 C 
HETATM   15  C19 UNL     1      30.593   8.430  49.146  1.00  0.00     0.132 C 
HETATM   16  N4  UNL     1      29.508   9.225  48.772  1.00  0.00    -0.364 N 
ENDROOT
BRANCH   8  17
HETATM   17  C9  UNL     1      26.801   6.605  48.625  1.00  0.00    -0.005 A 
HETATM   18  C10 UNL     1      25.624   7.118  48.118  1.00  0.00     0.014 A 
HETATM   19  C11 UNL     1      24.385   6.529  48.170  1.00  0.00     0.003 A 
HETATM   20  C12 UNL     1      24.256   5.299  48.782  1.00  0.00     0.024 A 
HETATM   21  C13 UNL     1      25.388   4.723  49.314  1.00  0.00     0.035 A 
HETATM   22 CL1  UNL     1      25.280   3.162  50.106  1.00  0.00    -0.084 Cl
HETATM   23  C14 UNL     1      26.591   5.380  49.220  1.00  0.00     0.037 A 
ENDBRANCH   8  17
BRANCH   7  24
HETATM   24  N1  UNL     1      27.705   8.756  50.330  1.00  0.00    -0.400 N 
HETATM   25  H7  UNL     1      28.231   8.132  50.936  1.00  0.00     0.152 HD
HETATM   26  H8  UNL     1      27.551   9.723  50.602  1.00  0.00     0.152 HD
ENDBRANCH   7  24
TORSDOF 2
ENDMDL
MODEL 6
REMARK VINA RESULT:      -7.3      3.337      5.569
REMARK  2 active torsions:
REMARK  status: ('A' for Active; 'I' for Inactive)
REMARK    1  A    between atoms: C7_7  and  N1_8 
REMARK    2  A    between atoms: C8_9  and  C9_10 
ROOT
HETATM    1  C1  UNL     1      22.903   4.893  50.458  1.00  0.00     0.040 C 
HETATM    2  C2  UNL     1      22.822   3.965  49.341  1.00  0.00    -0.079 A 
HETATM    3  C3  UNL     1      22.855   4.336  48.076  1.00  0.00     0.058 A 
HETATM    4  C4  UNL     1      21.831   3.414  47.422  1.00  0.00     0.108 A 
HETATM    5  C5  UNL     1      22.735   2.253  47.378  1.00  0.00    -0.009 A 
HETATM    6  C6  UNL     1      22.737   2.787  48.536  1.00  0.00     0.058 A 
HETATM    7  C7  UNL     1      21.667   1.968  49.194  1.00  0.00     0.160 C 
HETATM    8  C8  UNL     1      21.285   2.144  50.559  1.00  0.00     0.095 C 
HETATM    9  N2  UNL     1      20.316   2.910  50.826  1.00  0.00    -0.241 NA
HETATM   10  C15 UNL     1      19.727   3.272  52.024  1.00  0.00     0.232 C 
HETATM   11  N3  UNL     1      18.440   3.513  52.088  1.00  0.00    -0.254 NA
HETATM   12  C16 UNL     1      17.734   3.373  50.869  1.00  0.00     0.117 C 
HETATM   13  C17 UNL     1      17.324   3.217  49.634  1.00  0.00     0.017 C 
HETATM   14  C18 UNL     1      18.108   3.020  48.445  1.00  0.00     0.002 C 
HETATM   15  C19 UNL     1      19.416   3.017  48.650  1.00  0.00     0.132 C 
HETATM   16  N4  UNL     1      20.773   2.932  48.331  1.00  0.00    -0.364 N 
ENDROOT
BRANCH   8  17
HETATM   17  C9  UNL     1      22.091   1.367  51.497  1.00  0.00    -0.005 A 
HETATM   18  C10 UNL     1      23.441   1.547  51.721  1.00  0.00     0.014 A 
HETATM   19  C11 UNL     1      24.231   0.826  52.582  1.00  0.00     0.003 A 
HETATM   20  C12 UNL     1      23.660  -0.190  53.320  1.00  0.00     0.024 A 
HETATM   21  C13 UNL     1      22.314  -0.431  53.150  1.00  0.00     0.035 A 
HETATM   22 CL1  UNL     1      21.538  -1.713  54.060  1.00  0.00    -0.084 Cl
HETATM   23  C14 UNL     1      21.595   0.337  52.266  1.00  0.00     0.037 A 
ENDBRANCH   8  17
BRANCH   7  24
HETATM   24  N1  UNL     1      21.472   0.648  48.768  1.00  0.00    -0.400 N 
HETATM   25  H7  UNL     1      21.045   0.590  47.848  1.00  0.00     0.152 HD
HETATM   26  H8  UNL     1      22.257   0.048  49.005  1.00  0.00     0.152 HD
ENDBRANCH   7  24
TORSDOF 2
ENDMDL
MODEL 7
REMARK VINA RESULT:      -7.2      7.008     10.595
REMARK  2 active torsions:
REMARK  status: ('A' for Active; 'I' for Inactive)
REMARK    1  A    between atoms: C7_7  and  N1_8 
REMARK    2  A    between atoms: C8_9  and  C9_10 
ROOT
HETATM    1  C1  UNL     1      33.902   8.960  47.409  1.00  0.00     0.040 C 
HETATM    2  C2  UNL     1      34.144   7.700  48.092  1.00  0.00    -0.079 A 
HETATM    3  C3  UNL     1      35.332   7.312  48.516  1.00  0.00     0.058 A 
HETATM    4  C4  UNL     1      35.337   5.820  48.204  1.00  0.00     0.108 A 
HETATM    5  C5  UNL     1      34.512   5.457  49.368  1.00  0.00    -0.009 A 
HETATM    6  C6  UNL     1      33.991   6.428  48.726  1.00  0.00     0.058 A 
HETATM    7  C7  UNL     1      33.084   5.665  47.807  1.00  0.00     0.160 C 
HETATM    8  C8  UNL     1      32.217   6.304  46.869  1.00  0.00     0.095 C 
HETATM    9  N2  UNL     1      32.624   6.479  45.685  1.00  0.00    -0.241 NA
HETATM   10  C15 UNL     1      32.027   7.053  44.577  1.00  0.00     0.232 C 
HETATM   11  N3  UNL     1      32.281   6.601  43.373  1.00  0.00    -0.254 NA
HETATM   12  C16 UNL     1      33.183   5.511  43.311  1.00  0.00     0.117 C 
HETATM   13  C17 UNL     1      34.054   4.554  43.513  1.00  0.00     0.017 C 
HETATM   14  C18 UNL     1      34.730   4.196  44.731  1.00  0.00     0.002 C 
HETATM   15  C19 UNL     1      34.428   4.963  45.767  1.00  0.00     0.132 C 
HETATM   16  N4  UNL     1      34.460   5.426  47.084  1.00  0.00    -0.364 N 
ENDROOT
BRANCH   8  17
HETATM   17  C9  UNL     1      30.917   6.667  47.425  1.00  0.00    -0.005 A 
HETATM   18  C10 UNL     1      30.515   7.951  47.730  1.00  0.00     0.014 A 
HETATM   19  C11 UNL     1      29.308   8.326  48.267  1.00  0.00     0.003 A 
HETATM   20  C12 UNL     1      28.371   7.353  48.547  1.00  0.00     0.024 A 
HETATM   21  C13 UNL     1      28.700   6.044  48.271  1.00  0.00     0.035 A 
HETATM   22 CL1  UNL     1      27.547   4.767  48.610  1.00  0.00    -0.084 Cl
HETATM   23  C14 UNL     1      29.931   5.754  47.733  1.00  0.00     0.037 A 
ENDBRANCH   8  17
BRANCH   7  24
HETATM   24  N1  UNL     1      32.566   4.438  48.239  1.00  0.00    -0.400 N 
HETATM   25  H7  UNL     1      32.205   4.475  49.188  1.00  0.00     0.152 HD
HETATM   26  H8  UNL     1      32.038   3.966  47.509  1.00  0.00     0.152 HD
ENDBRANCH   7  24
TORSDOF 2
ENDMDL
MODEL 8
REMARK VINA RESULT:      -7.1      5.934      9.182
REMARK  2 active torsions:
REMARK  status: ('A' for Active; 'I' for Inactive)
REMARK    1  A    between atoms: C7_7  and  N1_8 
REMARK    2  A    between atoms: C8_9  and  C9_10 
ROOT
HETATM    1  C1  UNL     1      30.144   8.876  45.057  1.00  0.00     0.040 C 
HETATM    2  C2  UNL     1      30.357   9.573  46.316  1.00  0.00    -0.079 A 
HETATM    3  C3  UNL     1      30.952  10.746  46.413  1.00  0.00     0.058 A 
HETATM    4  C4  UNL     1      31.792  10.601  47.677  1.00  0.00     0.108 A 
HETATM    5  C5  UNL     1      30.657  10.807  48.592  1.00  0.00    -0.009 A 
HETATM    6  C6  UNL     1      30.368   9.947  47.695  1.00  0.00     0.058 A 
HETATM    7  C7  UNL     1      30.760   8.691  48.414  1.00  0.00     0.160 C 
HETATM    8  C8  UNL     1      30.601   7.391  47.844  1.00  0.00     0.095 C 
HETATM    9  N2  UNL     1      31.575   6.874  47.226  1.00  0.00    -0.241 NA
HETATM   10  C15 UNL     1      31.722   5.659  46.582  1.00  0.00     0.232 C 
HETATM   11  N3  UNL     1      32.879   5.043  46.575  1.00  0.00    -0.254 NA
HETATM   12  C16 UNL     1      33.925   5.707  47.261  1.00  0.00     0.117 C 
HETATM   13  C17 UNL     1      34.717   6.522  47.913  1.00  0.00     0.017 C 
HETATM   14  C18 UNL     1      34.453   7.861  48.366  1.00  0.00     0.002 C 
HETATM   15  C19 UNL     1      33.248   8.313  48.056  1.00  0.00     0.132 C 
HETATM   16  N4  UNL     1      32.183   9.214  47.996  1.00  0.00    -0.364 N 
ENDROOT
BRANCH   8  17
HETATM   17  C9  UNL     1      29.285   6.804  48.080  1.00  0.00    -0.005 A 
HETATM   18  C10 UNL     1      29.054   5.488  48.425  1.00  0.00     0.014 A 
HETATM   19  C11 UNL     1      27.831   4.900  48.640  1.00  0.00     0.003 A 
HETATM   20  C12 UNL     1      26.691   5.665  48.509  1.00  0.00     0.024 A 
HETATM   21  C13 UNL     1      26.841   6.990  48.165  1.00  0.00     0.035 A 
HETATM   22 CL1  UNL     1      25.424   8.007  47.981  1.00  0.00    -0.084 Cl
HETATM   23  C14 UNL     1      28.101   7.501  47.967  1.00  0.00     0.037 A 
ENDBRANCH   8  17
BRANCH   7  24
HETATM   24  N1  UNL     1      30.668   8.658  49.811  1.00  0.00    -0.400 N 
HETATM   25  H7  UNL     1      29.758   8.955  50.154  1.00  0.00     0.152 HD
HETATM   26  H8  UNL     1      31.121   7.838  50.207  1.00  0.00     0.152 HD
ENDBRANCH   7  24
TORSDOF 2
ENDMDL
MODEL 9
REMARK VINA RESULT:      -7.0      2.199      4.543
REMARK  2 active torsions:
REMARK  status: ('A' for Active; 'I' for Inactive)
REMARK    1  A    between atoms: C7_7  and  N1_8 
REMARK    2  A    between atoms: C8_9  and  C9_10 
ROOT
HETATM    1  C1  UNL     1      23.438   5.055  52.894  1.00  0.00     0.040 C 
HETATM    2  C2  UNL     1      23.838   4.698  51.542  1.00  0.00    -0.079 A 
HETATM    3  C3  UNL     1      24.315   5.563  50.667  1.00  0.00     0.058 A 
HETATM    4  C4  UNL     1      23.671   5.116  49.359  1.00  0.00     0.108 A 
HETATM    5  C5  UNL     1      24.600   3.994  49.151  1.00  0.00    -0.009 A 
HETATM    6  C6  UNL     1      24.136   3.986  50.340  1.00  0.00     0.058 A 
HETATM    7  C7  UNL     1      22.954   3.085  50.143  1.00  0.00     0.160 C 
HETATM    8  C8  UNL     1      22.081   2.708  51.209  1.00  0.00     0.095 C 
HETATM    9  N2  UNL     1      21.035   3.387  51.408  1.00  0.00    -0.241 NA
HETATM   10  C15 UNL     1      20.020   3.271  52.340  1.00  0.00     0.232 C 
HETATM   11  N3  UNL     1      18.788   3.598  52.031  1.00  0.00    -0.254 NA
HETATM   12  C16 UNL     1      18.597   4.060  50.706  1.00  0.00     0.117 C 
HETATM   13  C17 UNL     1      18.688   4.484  49.470  1.00  0.00     0.017 C 
HETATM   14  C18 UNL     1      19.869   4.725  48.686  1.00  0.00     0.002 C 
HETATM   15  C19 UNL     1      21.004   4.497  49.328  1.00  0.00     0.132 C 
HETATM   16  N4  UNL     1      22.385   4.412  49.520  1.00  0.00    -0.364 N 
ENDROOT
BRANCH   8  17
HETATM   17  C9  UNL     1      22.529   1.527  51.943  1.00  0.00    -0.005 A 
HETATM   18  C10 UNL     1      21.806   0.361  52.084  1.00  0.00     0.014 A 
HETATM   19  C11 UNL     1      22.188  -0.761  52.777  1.00  0.00     0.003 A 
HETATM   20  C12 UNL     1      23.413  -0.767  53.413  1.00  0.00     0.024 A 
HETATM   21  C13 UNL     1      24.193   0.364  53.318  1.00  0.00     0.035 A 
HETATM   22 CL1  UNL     1      25.757   0.410  54.110  1.00  0.00    -0.084 Cl
HETATM   23  C14 UNL     1      23.735   1.445  52.604  1.00  0.00     0.037 A 
ENDBRANCH   8  17
BRANCH   7  24
HETATM   24  N1  UNL     1      23.018   2.096  49.153  1.00  0.00    -0.400 N 
HETATM   25  H7  UNL     1      23.918   1.623  49.126  1.00  0.00     0.152 HD
HETATM   26  H8  UNL     1      22.157   1.561  49.087  1.00  0.00     0.152 HD
ENDBRANCH   7  24
TORSDOF 2
ENDMDL
