MODEL 1
REMARK VINA RESULT:      -8.4      0.000      0.000
REMARK  2 active torsions:
REMARK  status: ('A' for Active; 'I' for Inactive)
REMARK       I    between atoms: C8_10  and  N2_11 
REMARK    1  A    between atoms: N2_11  and  C9_12 
REMARK    2  A    between atoms: C9_12  and  C10_13 
ROOT
HETATM    1 BR1  UNL     1      23.033  -0.538  53.919  1.00  0.00    -0.051 Br
HETATM    2  C1  UNL     1      22.488   0.656  52.546  1.00  0.00     0.011 A 
HETATM    3  C2  UNL     1      21.764   0.109  51.492  1.00  0.00     0.022 A 
HETATM    4  C3  UNL     1      21.382   0.999  50.510  1.00  0.00     0.039 A 
HETATM    5  C4  UNL     1      21.645   2.345  50.481  1.00  0.00     0.085 A 
HETATM    6  C5  UNL     1      22.356   2.892  51.514  1.00  0.00     0.005 A 
HETATM    7  C6  UNL     1      22.760   2.018  52.528  1.00  0.00     0.030 A 
HETATM    8  C7  UNL     1      22.815   4.265  51.828  1.00  0.00     0.316 C 
HETATM    9  N1  UNL     1      24.255   4.316  51.759  1.00  0.00     0.142 N 
HETATM   10  C8  UNL     1      24.769   4.167  50.397  1.00  0.00     0.577 C 
HETATM   11  N2  UNL     1      26.190   4.069  50.494  1.00  0.00     0.142 N 
HETATM   12  N3  UNL     1      24.224   3.026  49.711  1.00  0.00    -0.220 NA
HETATM   13  C16 UNL     1      23.296   3.148  48.805  1.00  0.00     0.233 C 
HETATM   14  N4  UNL     1      22.447   2.504  47.885  1.00  0.00    -0.230 NA
HETATM   15  C17 UNL     1      21.169   2.417  48.167  1.00  0.00     0.260 C 
HETATM   16  O1  UNL     1      21.169   3.068  49.397  1.00  0.00    -0.303 OA
HETATM   17  H6  UNL     1      24.722   3.691  52.419  1.00  0.00     0.321 HD
HETATM   18  H8  UNL     1      26.573   4.738  51.165  1.00  0.00     0.321 HD
ENDROOT
BRANCH  11  19
HETATM   19  C9  UNL     1      26.915   3.967  49.278  1.00  0.00     0.313 C 
BRANCH  19  20
HETATM   20  C10 UNL     1      27.396   5.221  48.701  1.00  0.00    -0.030 A 
HETATM   21  C11 UNL     1      28.731   5.306  48.348  1.00  0.00     0.009 A 
HETATM   22  C12 UNL     1      29.300   6.433  47.791  1.00  0.00     0.001 A 
HETATM   23  C13 UNL     1      28.533   7.552  47.559  1.00  0.00     0.000 A 
HETATM   24  C14 UNL     1      27.186   7.508  47.901  1.00  0.00     0.001 A 
HETATM   25  C15 UNL     1      26.698   6.352  48.448  1.00  0.00     0.009 A 
ENDBRANCH  19  20
ENDBRANCH  11  19
TORSDOF 2
ENDMDL
MODEL 2
REMARK VINA RESULT:      -8.3      1.627      2.146
REMARK  2 active torsions:
REMARK  status: ('A' for Active; 'I' for Inactive)
REMARK       I    between atoms: C8_10  and  N2_11 
REMARK    1  A    between atoms: N2_11  and  C9_12 
REMARK    2  A    between atoms: C9_12  and  C10_13 
ROOT
HETATM    1 BR1  UNL     1      26.571   1.304  54.195  1.00  0.00    -0.051 Br
HETATM    2  C1  UNL     1      25.086   1.854  53.147  1.00  0.00     0.011 A 
HETATM    3  C2  UNL     1      24.549   0.910  52.277  1.00  0.00     0.022 A 
HETATM    4  C3  UNL     1      23.472   1.339  51.529  1.00  0.00     0.039 A 
HETATM    5  C4  UNL     1      22.897   2.584  51.565  1.00  0.00     0.085 A 
HETATM    6  C5  UNL     1      23.418   3.517  52.417  1.00  0.00     0.005 A 
HETATM    7  C6  UNL     1      24.511   3.117  53.193  1.00  0.00     0.030 A 
HETATM    8  C7  UNL     1      23.073   4.924  52.732  1.00  0.00     0.316 C 
HETATM    9  N1  UNL     1      24.136   5.790  52.283  1.00  0.00     0.142 N 
HETATM   10  C8  UNL     1      24.240   5.859  50.824  1.00  0.00     0.577 C 
HETATM   11  N2  UNL     1      25.420   6.606  50.524  1.00  0.00     0.142 N 
HETATM   12  N3  UNL     1      24.282   4.564  50.200  1.00  0.00    -0.220 NA
HETATM   13  C16 UNL     1      23.246   4.058  49.596  1.00  0.00     0.233 C 
HETATM   14  N4  UNL     1      22.705   2.975  48.878  1.00  0.00    -0.230 NA
HETATM   15  C17 UNL     1      21.847   2.190  49.484  1.00  0.00     0.260 C 
HETATM   16  O1  UNL     1      21.815   2.814  50.727  1.00  0.00    -0.303 OA
HETATM   17  H6  UNL     1      25.036   5.602  52.726  1.00  0.00     0.321 HD
HETATM   18  H8  UNL     1      25.518   7.423  51.131  1.00  0.00     0.321 HD
ENDROOT
BRANCH  11  19
HETATM   19  C9  UNL     1      25.701   6.847  49.154  1.00  0.00     0.313 C 
BRANCH  19  20
HETATM   20  C10 UNL     1      27.063   6.561  48.710  1.00  0.00    -0.030 A 
HETATM   21  C11 UNL     1      27.872   7.628  48.361  1.00  0.00     0.009 A 
HETATM   22  C12 UNL     1      29.177   7.485  47.932  1.00  0.00     0.001 A 
HETATM   23  C13 UNL     1      29.738   6.232  47.833  1.00  0.00     0.000 A 
HETATM   24  C14 UNL     1      28.958   5.133  48.174  1.00  0.00     0.001 A 
HETATM   25  C15 UNL     1      27.674   5.359  48.591  1.00  0.00     0.009 A 
ENDBRANCH  19  20
ENDBRANCH  11  19
TORSDOF 2
ENDMDL
MODEL 3
REMARK VINA RESULT:      -7.7      4.027      5.769
REMARK  2 active torsions:
REMARK  status: ('A' for Active; 'I' for Inactive)
REMARK       I    between atoms: C8_10  and  N2_11 
REMARK    1  A    between atoms: N2_11  and  C9_12 
REMARK    2  A    between atoms: C9_12  and  C10_13 
ROOT
HETATM    1 BR1  UNL     1      23.690   8.196  50.137  1.00  0.00    -0.051 Br
HETATM    2  C1  UNL     1      23.128   6.387  50.275  1.00  0.00     0.011 A 
HETATM    3  C2  UNL     1      21.936   6.152  50.953  1.00  0.00     0.022 A 
HETATM    4  C3  UNL     1      21.554   4.829  51.036  1.00  0.00     0.039 A 
HETATM    5  C4  UNL     1      22.227   3.750  50.523  1.00  0.00     0.085 A 
HETATM    6  C5  UNL     1      23.399   3.972  49.855  1.00  0.00     0.005 A 
HETATM    7  C6  UNL     1      23.818   5.303  49.750  1.00  0.00     0.030 A 
HETATM    8  C7  UNL     1      24.376   3.088  49.176  1.00  0.00     0.316 C 
HETATM    9  N1  UNL     1      25.623   3.104  49.902  1.00  0.00     0.142 N 
HETATM   10  C8  UNL     1      25.532   2.451  51.209  1.00  0.00     0.577 C 
HETATM   11  N2  UNL     1      26.771   2.684  51.880  1.00  0.00     0.142 N 
HETATM   12  N3  UNL     1      24.427   2.922  52.000  1.00  0.00    -0.220 NA
HETATM   13  C16 UNL     1      23.337   2.225  52.141  1.00  0.00     0.233 C 
HETATM   14  N4  UNL     1      22.052   2.137  52.709  1.00  0.00    -0.230 NA
HETATM   15  C17 UNL     1      21.011   2.287  51.925  1.00  0.00     0.260 C 
HETATM   16  O1  UNL     1      21.670   2.495  50.718  1.00  0.00    -0.303 OA
HETATM   17  H6  UNL     1      26.053   4.029  49.961  1.00  0.00     0.321 HD
HETATM   18  H8  UNL     1      27.571   2.571  51.253  1.00  0.00     0.321 HD
ENDROOT
BRANCH  11  19
HETATM   19  C9  UNL     1      26.934   2.094  53.160  1.00  0.00     0.313 C 
BRANCH  19  20
HETATM   20  C10 UNL     1      27.701   0.851  53.210  1.00  0.00    -0.030 A 
HETATM   21  C11 UNL     1      29.029   0.919  53.593  1.00  0.00     0.009 A 
HETATM   22  C12 UNL     1      29.852  -0.185  53.683  1.00  0.00     0.001 A 
HETATM   23  C13 UNL     1      29.365  -1.437  53.383  1.00  0.00     0.000 A 
HETATM   24  C14 UNL     1      28.035  -1.549  52.993  1.00  0.00     0.001 A 
HETATM   25  C15 UNL     1      27.284  -0.406  52.930  1.00  0.00     0.009 A 
ENDBRANCH  19  20
ENDBRANCH  11  19
TORSDOF 2
ENDMDL
MODEL 4
REMARK VINA RESULT:      -7.7      6.319     10.401
REMARK  2 active torsions:
REMARK  status: ('A' for Active; 'I' for Inactive)
REMARK       I    between atoms: C8_10  and  N2_11 
REMARK    1  A    between atoms: N2_11  and  C9_12 
REMARK    2  A    between atoms: C9_12  and  C10_13 
ROOT
HETATM    1 BR1  UNL     1      32.827   6.553  42.055  1.00  0.00    -0.051 Br
HETATM    2  C1  UNL     1      33.382   6.005  43.787  1.00  0.00     0.011 A 
HETATM    3  C2  UNL     1      34.057   4.792  43.874  1.00  0.00     0.022 A 
HETATM    4  C3  UNL     1      34.447   4.420  45.144  1.00  0.00     0.039 A 
HETATM    5  C4  UNL     1      34.233   5.122  46.302  1.00  0.00     0.085 A 
HETATM    6  C5  UNL     1      33.570   6.316  46.226  1.00  0.00     0.005 A 
HETATM    7  C6  UNL     1      33.160   6.726  44.953  1.00  0.00     0.030 A 
HETATM    8  C7  UNL     1      33.170   7.332  47.229  1.00  0.00     0.316 C 
HETATM    9  N1  UNL     1      31.731   7.361  47.334  1.00  0.00     0.142 N 
HETATM   10  C8  UNL     1      31.178   6.150  47.943  1.00  0.00     0.577 C 
HETATM   11  N2  UNL     1      29.757   6.239  47.833  1.00  0.00     0.142 N 
HETATM   12  N3  UNL     1      31.662   4.940  47.335  1.00  0.00    -0.220 NA
HETATM   13  C16 UNL     1      32.571   4.201  47.903  1.00  0.00     0.233 C 
HETATM   14  N4  UNL     1      33.371   3.044  47.835  1.00  0.00    -0.230 NA
HETATM   15  C17 UNL     1      34.651   3.184  47.589  1.00  0.00     0.260 C 
HETATM   16  O1  UNL     1      34.707   4.570  47.483  1.00  0.00    -0.303 OA
HETATM   17  H6  UNL     1      31.259   7.605  46.462  1.00  0.00     0.321 HD
HETATM   18  H8  UNL     1      29.416   7.178  48.049  1.00  0.00     0.321 HD
ENDROOT
BRANCH  11  19
HETATM   19  C9  UNL     1      28.997   5.187  48.408  1.00  0.00     0.313 C 
BRANCH  19  20
HETATM   20  C10 UNL     1      27.570   5.442  48.594  1.00  0.00    -0.030 A 
HETATM   21  C11 UNL     1      26.787   4.422  49.105  1.00  0.00     0.009 A 
HETATM   22  C12 UNL     1      25.430   4.544  49.329  1.00  0.00     0.001 A 
HETATM   23  C13 UNL     1      24.786   5.726  49.043  1.00  0.00     0.000 A 
HETATM   24  C14 UNL     1      25.537   6.776  48.527  1.00  0.00     0.001 A 
HETATM   25  C15 UNL     1      26.878   6.575  48.335  1.00  0.00     0.009 A 
ENDBRANCH  19  20
ENDBRANCH  11  19
TORSDOF 2
ENDMDL
MODEL 5
REMARK VINA RESULT:      -7.5      5.944     10.151
REMARK  2 active torsions:
REMARK  status: ('A' for Active; 'I' for Inactive)
REMARK       I    between atoms: C8_10  and  N2_11 
REMARK    1  A    between atoms: N2_11  and  C9_12 
REMARK    2  A    between atoms: C9_12  and  C10_13 
ROOT
HETATM    1 BR1  UNL     1      27.236  13.978  48.203  1.00  0.00    -0.051 Br
HETATM    2  C1  UNL     1      28.719  12.846  47.847  1.00  0.00     0.011 A 
HETATM    3  C2  UNL     1      29.300  12.952  46.587  1.00  0.00     0.022 A 
HETATM    4  C3  UNL     1      30.374  12.118  46.358  1.00  0.00     0.039 A 
HETATM    5  C4  UNL     1      30.909  11.214  47.241  1.00  0.00     0.085 A 
HETATM    6  C5  UNL     1      30.344  11.103  48.481  1.00  0.00     0.005 A 
HETATM    7  C6  UNL     1      29.252  11.935  48.749  1.00  0.00     0.030 A 
HETATM    8  C7  UNL     1      30.639  10.270  49.671  1.00  0.00     0.316 C 
HETATM    9  N1  UNL     1      29.556   9.341  49.885  1.00  0.00     0.142 N 
HETATM   10  C8  UNL     1      29.473   8.310  48.849  1.00  0.00     0.577 C 
HETATM   11  N2  UNL     1      28.275   7.571  49.089  1.00  0.00     0.142 N 
HETATM   12  N3  UNL     1      29.482   8.849  47.516  1.00  0.00    -0.220 NA
HETATM   13  C16 UNL     1      30.544   8.803  46.763  1.00  0.00     0.233 C 
HETATM   14  N4  UNL     1      31.130   9.114  45.522  1.00  0.00    -0.230 NA
HETATM   15  C17 UNL     1      32.004  10.092  45.472  1.00  0.00     0.260 C 
HETATM   16  O1  UNL     1      31.996  10.466  46.812  1.00  0.00    -0.303 OA
HETATM   17  H6  UNL     1      28.655   9.790  50.056  1.00  0.00     0.321 HD
HETATM   18  H8  UNL     1      28.140   7.376  50.084  1.00  0.00     0.321 HD
ENDROOT
BRANCH  11  19
HETATM   19  C9  UNL     1      28.008   6.475  48.229  1.00  0.00     0.313 C 
BRANCH  19  20
HETATM   20  C10 UNL     1      27.017   5.507  48.697  1.00  0.00    -0.030 A 
HETATM   21  C11 UNL     1      25.694   5.906  48.754  1.00  0.00     0.009 A 
HETATM   22  C12 UNL     1      24.669   5.082  49.174  1.00  0.00     0.001 A 
HETATM   23  C13 UNL     1      24.937   3.789  49.564  1.00  0.00     0.000 A 
HETATM   24  C14 UNL     1      26.255   3.350  49.522  1.00  0.00     0.001 A 
HETATM   25  C15 UNL     1      27.214   4.228  49.093  1.00  0.00     0.009 A 
ENDBRANCH  19  20
ENDBRANCH  11  19
TORSDOF 2
ENDMDL
MODEL 6
REMARK VINA RESULT:      -7.4      3.519      5.991
REMARK  2 active torsions:
REMARK  status: ('A' for Active; 'I' for Inactive)
REMARK       I    between atoms: C8_10  and  N2_11 
REMARK    1  A    between atoms: N2_11  and  C9_12 
REMARK    2  A    between atoms: C9_12  and  C10_13 
ROOT
HETATM    1 BR1  UNL     1      20.021   5.492  48.629  1.00  0.00    -0.051 Br
HETATM    2  C1  UNL     1      21.851   5.476  49.138  1.00  0.00     0.011 A 
HETATM    3  C2  UNL     1      22.787   5.560  48.112  1.00  0.00     0.022 A 
HETATM    4  C3  UNL     1      24.107   5.545  48.512  1.00  0.00     0.039 A 
HETATM    5  C4  UNL     1      24.569   5.458  49.801  1.00  0.00     0.085 A 
HETATM    6  C5  UNL     1      23.656   5.375  50.815  1.00  0.00     0.005 A 
HETATM    7  C6  UNL     1      22.307   5.388  50.447  1.00  0.00     0.030 A 
HETATM    8  C7  UNL     1      23.768   5.277  52.290  1.00  0.00     0.316 C 
HETATM    9  N1  UNL     1      23.292   3.986  52.722  1.00  0.00     0.142 N 
HETATM   10  C8  UNL     1      24.168   2.887  52.313  1.00  0.00     0.577 C 
HETATM   11  N2  UNL     1      23.501   1.671  52.655  1.00  0.00     0.142 N 
HETATM   12  N3  UNL     1      24.491   2.915  50.912  1.00  0.00    -0.220 NA
HETATM   13  C16 UNL     1      25.649   3.326  50.482  1.00  0.00     0.233 C 
HETATM   14  N4  UNL     1      26.484   3.570  49.374  1.00  0.00    -0.230 NA
HETATM   15  C17 UNL     1      26.706   4.813  49.021  1.00  0.00     0.260 C 
HETATM   16  O1  UNL     1      25.944   5.458  49.990  1.00  0.00    -0.303 OA
HETATM   17  H6  UNL     1      22.314   3.808  52.489  1.00  0.00     0.321 HD
HETATM   18  H8  UNL     1      23.064   1.723  53.578  1.00  0.00     0.321 HD
ENDROOT
BRANCH  11  19
HETATM   19  C9  UNL     1      24.192   0.459  52.394  1.00  0.00     0.313 C 
BRANCH  19  20
HETATM   20  C10 UNL     1      25.470   0.279  53.079  1.00  0.00    -0.030 A 
HETATM   21  C11 UNL     1      26.575  -0.061  52.319  1.00  0.00     0.009 A 
HETATM   22  C12 UNL     1      27.835  -0.252  52.851  1.00  0.00     0.001 A 
HETATM   23  C13 UNL     1      28.043  -0.108  54.205  1.00  0.00     0.000 A 
HETATM   24  C14 UNL     1      26.957   0.232  55.004  1.00  0.00     0.001 A 
HETATM   25  C15 UNL     1      25.742   0.406  54.400  1.00  0.00     0.009 A 
ENDBRANCH  19  20
ENDBRANCH  11  19
TORSDOF 2
ENDMDL
MODEL 7
REMARK VINA RESULT:      -7.4      5.997     10.292
REMARK  2 active torsions:
REMARK  status: ('A' for Active; 'I' for Inactive)
REMARK       I    between atoms: C8_10  and  N2_11 
REMARK    1  A    between atoms: N2_11  and  C9_12 
REMARK    2  A    between atoms: C9_12  and  C10_13 
ROOT
HETATM    1 BR1  UNL     1      32.548  11.234  46.055  1.00  0.00    -0.051 Br
HETATM    2  C1  UNL     1      33.029   9.441  46.457  1.00  0.00     0.011 A 
HETATM    3  C2  UNL     1      33.653   8.718  45.445  1.00  0.00     0.022 A 
HETATM    4  C3  UNL     1      33.990   7.419  45.767  1.00  0.00     0.039 A 
HETATM    5  C4  UNL     1      33.770   6.791  46.966  1.00  0.00     0.085 A 
HETATM    6  C5  UNL     1      33.157   7.494  47.966  1.00  0.00     0.005 A 
HETATM    7  C6  UNL     1      32.801   8.816  47.676  1.00  0.00     0.030 A 
HETATM    8  C7  UNL     1      32.768   7.168  49.359  1.00  0.00     0.316 C 
HETATM    9  N1  UNL     1      31.329   7.158  49.464  1.00  0.00     0.142 N 
HETATM   10  C8  UNL     1      30.711   6.043  48.745  1.00  0.00     0.577 C 
HETATM   11  N2  UNL     1      29.298   6.247  48.792  1.00  0.00     0.142 N 
HETATM   12  N3  UNL     1      31.165   5.928  47.385  1.00  0.00    -0.220 NA
HETATM   13  C16 UNL     1      32.026   5.021  47.023  1.00  0.00     0.233 C 
HETATM   14  N4  UNL     1      32.781   4.455  45.978  1.00  0.00    -0.230 NA
HETATM   15  C17 UNL     1      34.073   4.680  45.949  1.00  0.00     0.260 C 
HETATM   16  O1  UNL     1      34.187   5.473  47.085  1.00  0.00    -0.303 OA
HETATM   17  H6  UNL     1      30.893   8.053  49.238  1.00  0.00     0.321 HD
HETATM   18  H8  UNL     1      28.988   6.557  49.716  1.00  0.00     0.321 HD
ENDROOT
BRANCH  11  19
HETATM   19  C9  UNL     1      28.481   5.252  48.195  1.00  0.00     0.313 C 
BRANCH  19  20
HETATM   20  C10 UNL     1      27.204   4.979  48.853  1.00  0.00    -0.030 A 
HETATM   21  C11 UNL     1      26.289   6.012  48.953  1.00  0.00     0.009 A 
HETATM   22  C12 UNL     1      25.050   5.876  49.546  1.00  0.00     0.001 A 
HETATM   23  C13 UNL     1      24.669   4.665  50.079  1.00  0.00     0.000 A 
HETATM   24  C14 UNL     1      25.560   3.601  50.000  1.00  0.00     0.001 A 
HETATM   25  C15 UNL     1      26.769   3.818  49.395  1.00  0.00     0.009 A 
ENDBRANCH  19  20
ENDBRANCH  11  19
TORSDOF 2
ENDMDL
MODEL 8
REMARK VINA RESULT:      -7.2      3.018      4.302
REMARK  2 active torsions:
REMARK  status: ('A' for Active; 'I' for Inactive)
REMARK       I    between atoms: C8_10  and  N2_11 
REMARK    1  A    between atoms: N2_11  and  C9_12 
REMARK    2  A    between atoms: C9_12  and  C10_13 
ROOT
HETATM    1 BR1  UNL     1      18.537  -0.501  52.703  1.00  0.00    -0.051 Br
HETATM    2  C1  UNL     1      20.335   0.035  52.411  1.00  0.00     0.011 A 
HETATM    3  C2  UNL     1      21.240  -0.222  53.436  1.00  0.00     0.022 A 
HETATM    4  C3  UNL     1      22.537   0.179  53.196  1.00  0.00     0.039 A 
HETATM    5  C4  UNL     1      23.006   0.794  52.063  1.00  0.00     0.085 A 
HETATM    6  C5  UNL     1      22.124   1.050  51.050  1.00  0.00     0.005 A 
HETATM    7  C6  UNL     1      20.798   0.657  51.258  1.00  0.00     0.030 A 
HETATM    8  C7  UNL     1      22.253   1.674  49.711  1.00  0.00     0.316 C 
HETATM    9  N1  UNL     1      21.528   2.920  49.691  1.00  0.00     0.142 N 
HETATM   10  C8  UNL     1      22.141   3.953  50.528  1.00  0.00     0.577 C 
HETATM   11  N2  UNL     1      21.242   5.063  50.549  1.00  0.00     0.142 N 
HETATM   12  N3  UNL     1      22.424   3.501  51.864  1.00  0.00    -0.220 NA
HETATM   13  C16 UNL     1      23.631   3.192  52.243  1.00  0.00     0.233 C 
HETATM   14  N4  UNL     1      24.467   2.740  53.282  1.00  0.00    -0.230 NA
HETATM   15  C17 UNL     1      24.936   1.517  53.219  1.00  0.00     0.260 C 
HETATM   16  O1  UNL     1      24.354   1.118  52.020  1.00  0.00    -0.303 OA
HETATM   17  H6  UNL     1      20.528   2.818  49.873  1.00  0.00     0.321 HD
HETATM   18  H8  UNL     1      20.851   5.253  49.623  1.00  0.00     0.321 HD
ENDROOT
BRANCH  11  19
HETATM   19  C9  UNL     1      21.656   6.216  51.266  1.00  0.00     0.313 C 
BRANCH  19  20
HETATM   20  C10 UNL     1      22.787   6.956  50.711  1.00  0.00    -0.030 A 
HETATM   21  C11 UNL     1      22.529   7.916  49.749  1.00  0.00     0.009 A 
HETATM   22  C12 UNL     1      23.511   8.682  49.156  1.00  0.00     0.001 A 
HETATM   23  C13 UNL     1      24.830   8.511  49.512  1.00  0.00     0.000 A 
HETATM   24  C14 UNL     1      25.133   7.555  50.475  1.00  0.00     0.001 A 
HETATM   25  C15 UNL     1      24.101   6.837  51.016  1.00  0.00     0.009 A 
ENDBRANCH  19  20
ENDBRANCH  11  19
TORSDOF 2
ENDMDL
MODEL 9
REMARK VINA RESULT:      -7.1      6.947     10.025
REMARK  2 active torsions:
REMARK  status: ('A' for Active; 'I' for Inactive)
REMARK       I    between atoms: C8_10  and  N2_11 
REMARK    1  A    between atoms: N2_11  and  C9_12 
REMARK    2  A    between atoms: C9_12  and  C10_13 
ROOT
HETATM    1 BR1  UNL     1      31.375   0.947  46.341  1.00  0.00    -0.051 Br
HETATM    2  C1  UNL     1      32.559   2.388  46.700  1.00  0.00     0.011 A 
HETATM    3  C2  UNL     1      33.388   2.256  47.810  1.00  0.00     0.022 A 
HETATM    4  C3  UNL     1      34.236   3.317  48.046  1.00  0.00     0.039 A 
HETATM    5  C4  UNL     1      34.333   4.466  47.302  1.00  0.00     0.085 A 
HETATM    6  C5  UNL     1      33.523   4.604  46.210  1.00  0.00     0.005 A 
HETATM    7  C6  UNL     1      32.649   3.546  45.939  1.00  0.00     0.030 A 
HETATM    8  C7  UNL     1      33.349   5.666  45.190  1.00  0.00     0.316 C 
HETATM    9  N1  UNL     1      32.045   6.264  45.337  1.00  0.00     0.142 N 
HETATM   10  C8  UNL     1      31.910   7.048  46.566  1.00  0.00     0.577 C 
HETATM   11  N2  UNL     1      30.540   7.437  46.665  1.00  0.00     0.142 N 
HETATM   12  N3  UNL     1      32.324   6.330  47.741  1.00  0.00    -0.220 NA
HETATM   13  C16 UNL     1      33.467   6.560  48.321  1.00  0.00     0.233 C 
HETATM   14  N4  UNL     1      34.350   6.238  49.368  1.00  0.00    -0.230 NA
HETATM   15  C17 UNL     1      35.436   5.560  49.083  1.00  0.00     0.260 C 
HETATM   16  O1  UNL     1      35.256   5.418  47.711  1.00  0.00    -0.303 OA
HETATM   17  H6  UNL     1      31.274   5.606  45.212  1.00  0.00     0.321 HD
HETATM   18  H8  UNL     1      30.163   7.741  45.764  1.00  0.00     0.321 HD
ENDROOT
BRANCH  11  19
HETATM   19  C9  UNL     1      30.179   8.258  47.766  1.00  0.00     0.313 C 
BRANCH  19  20
HETATM   20  C10 UNL     1      28.882   7.986  48.382  1.00  0.00    -0.030 A 
HETATM   21  C11 UNL     1      28.405   8.884  49.320  1.00  0.00     0.009 A 
HETATM   22  C12 UNL     1      27.194   8.739  49.965  1.00  0.00     0.001 A 
HETATM   23  C13 UNL     1      26.390   7.655  49.690  1.00  0.00     0.000 A 
HETATM   24  C14 UNL     1      26.833   6.729  48.754  1.00  0.00     0.001 A 
HETATM   25  C15 UNL     1      28.045   6.946  48.157  1.00  0.00     0.009 A 
ENDBRANCH  19  20
ENDBRANCH  11  19
TORSDOF 2
ENDMDL
