MODEL 1
REMARK VINA RESULT:      -7.0      0.000      0.000
REMARK  5 active torsions:
REMARK  status: ('A' for Active; 'I' for Inactive)
REMARK    1  A    between atoms: C1_2  and  C2_3 
REMARK    2  A    between atoms: C2_3  and  P1_4 
REMARK    3  A    between atoms: C5_7  and  C6_8 
REMARK    4  A    between atoms: C6_8  and  C7_9 
REMARK    5  A    between atoms: C7_9  and  C8_10 
ROOT
HETATM    1  C6  UNL     1      24.416   2.531  53.149  1.00  0.00     0.032 C 
ENDROOT
BRANCH   1   2
HETATM    2  C5  UNL     1      23.130   2.311  52.515  1.00  0.00     0.052 C 
HETATM    3  C4  UNL     1      22.726   0.976  52.170  1.00  0.00     0.043 C 
HETATM    4  C3  UNL     1      21.451   0.679  51.986  1.00  0.00    -0.024 C 
HETATM    5  P1  UNL     1      20.416   1.867  52.333  1.00  0.00    -0.096 P 
HETATM    6  C15 UNL     1      21.221   3.378  51.732  1.00  0.00     0.180 C 
HETATM    7  H5  UNL     1      20.361   1.984  53.741  1.00  0.00     0.059 HD
HETATM    8  N2  UNL     1      22.524   3.438  52.356  1.00  0.00    -0.286 NA
BRANCH   5   9
HETATM    9  C2  UNL     1      18.788   1.614  51.641  1.00  0.00     0.048 C 
BRANCH   9  10
HETATM   10  C1  UNL     1      18.564   0.195  51.167  1.00  0.00     0.119 C 
HETATM   11 CL1  UNL     1      18.165  -0.821  52.552  1.00  0.00    -0.130 Cl
ENDBRANCH   9  10
ENDBRANCH   5   9
ENDBRANCH   1   2
BRANCH   1  12
HETATM   12  C7  UNL     1      25.665   2.206  53.332  1.00  0.00     0.013 C 
BRANCH  12  13
HETATM   13  C8  UNL     1      26.927   1.513  53.191  1.00  0.00    -0.008 C 
HETATM   14  C9  UNL     1      26.683   0.217  53.133  1.00  0.00     0.069 C 
HETATM   15  C10 UNL     1      25.771  -0.919  53.138  1.00  0.00     0.261 C 
HETATM   16  N1  UNL     1      27.655  -0.846  53.018  1.00  0.00    -0.259 N 
HETATM   17  O1  UNL     1      26.739  -1.515  52.288  1.00  0.00    -0.272 OA
HETATM   18  C11 UNL     1      28.987  -1.095  53.466  1.00  0.00     0.158 C 
HETATM   19  C12 UNL     1      29.749   0.194  53.681  1.00  0.00     0.048 C 
HETATM   20  C13 UNL     1      29.105   1.046  54.733  1.00  0.00     0.169 C 
HETATM   21  O2  UNL     1      28.882   2.352  54.308  1.00  0.00    -0.387 OA
HETATM   22  C14 UNL     1      28.117   2.409  53.149  1.00  0.00     0.208 C 
ENDBRANCH  12  13
ENDBRANCH   1  12
TORSDOF 5
ENDMDL
MODEL 2
REMARK VINA RESULT:      -6.5      2.513      2.785
REMARK  5 active torsions:
REMARK  status: ('A' for Active; 'I' for Inactive)
REMARK    1  A    between atoms: C1_2  and  C2_3 
REMARK    2  A    between atoms: C2_3  and  P1_4 
REMARK    3  A    between atoms: C5_7  and  C6_8 
REMARK    4  A    between atoms: C6_8  and  C7_9 
REMARK    5  A    between atoms: C7_9  and  C8_10 
ROOT
HETATM    1  C6  UNL     1      24.458   2.703  53.101  1.00  0.00     0.032 C 
ENDROOT
BRANCH   1   2
HETATM    2  C5  UNL     1      23.393   2.983  52.157  1.00  0.00     0.052 C 
HETATM    3  C4  UNL     1      22.548   4.129  52.357  1.00  0.00     0.043 C 
HETATM    4  C3  UNL     1      21.864   4.650  51.354  1.00  0.00    -0.024 C 
HETATM    5  P1  UNL     1      22.180   4.011  49.906  1.00  0.00    -0.096 P 
HETATM    6  C15 UNL     1      22.368   2.233  50.213  1.00  0.00     0.180 C 
HETATM    7  H5  UNL     1      23.453   4.478  49.504  1.00  0.00     0.059 HD
HETATM    8  N2  UNL     1      23.383   2.086  51.231  1.00  0.00    -0.286 NA
BRANCH   5   9
HETATM    9  C2  UNL     1      20.937   4.386  48.679  1.00  0.00     0.048 C 
BRANCH   9  10
HETATM   10  C1  UNL     1      20.695   3.244  47.717  1.00  0.00     0.119 C 
HETATM   11 CL1  UNL     1      22.031   3.165  46.568  1.00  0.00    -0.130 Cl
ENDBRANCH   9  10
ENDBRANCH   5   9
ENDBRANCH   1   2
BRANCH   1  12
HETATM   12  C7  UNL     1      25.631   2.209  53.380  1.00  0.00     0.013 C 
BRANCH  12  13
HETATM   13  C8  UNL     1      26.892   1.519  53.217  1.00  0.00    -0.008 C 
HETATM   14  C9  UNL     1      26.647   0.224  53.135  1.00  0.00     0.069 C 
HETATM   15  C10 UNL     1      25.734  -0.911  53.124  1.00  0.00     0.261 C 
HETATM   16  N1  UNL     1      27.617  -0.837  52.993  1.00  0.00    -0.259 N 
HETATM   17  O1  UNL     1      26.697  -1.491  52.256  1.00  0.00    -0.272 OA
HETATM   18  C11 UNL     1      28.953  -1.095  53.428  1.00  0.00     0.158 C 
HETATM   19  C12 UNL     1      29.717   0.189  53.663  1.00  0.00     0.048 C 
HETATM   20  C13 UNL     1      29.079   1.020  54.736  1.00  0.00     0.169 C 
HETATM   21  O2  UNL     1      28.854   2.334  54.338  1.00  0.00    -0.387 OA
HETATM   22  C14 UNL     1      28.082   2.415  53.186  1.00  0.00     0.208 C 
ENDBRANCH  12  13
ENDBRANCH   1  12
TORSDOF 5
ENDMDL
MODEL 3
REMARK VINA RESULT:      -6.5      4.193      7.806
REMARK  5 active torsions:
REMARK  status: ('A' for Active; 'I' for Inactive)
REMARK    1  A    between atoms: C1_2  and  C2_3 
REMARK    2  A    between atoms: C2_3  and  P1_4 
REMARK    3  A    between atoms: C5_7  and  C6_8 
REMARK    4  A    between atoms: C6_8  and  C7_9 
REMARK    5  A    between atoms: C7_9  and  C8_10 
ROOT
HETATM    1  C6  UNL     1      23.358   1.240  51.790  1.00  0.00     0.032 C 
ENDROOT
BRANCH   1   2
HETATM    2  C5  UNL     1      24.765   1.104  52.115  1.00  0.00     0.052 C 
HETATM    3  C4  UNL     1      25.725   1.975  51.493  1.00  0.00     0.043 C 
HETATM    4  C3  UNL     1      26.913   2.174  52.037  1.00  0.00    -0.024 C 
HETATM    5  P1  UNL     1      27.118   1.508  53.492  1.00  0.00    -0.096 P 
HETATM    6  C15 UNL     1      26.286  -0.102  53.390  1.00  0.00     0.180 C 
HETATM    7  H5  UNL     1      26.377   2.276  54.419  1.00  0.00     0.059 HD
HETATM    8  N2  UNL     1      24.927   0.153  52.970  1.00  0.00    -0.286 NA
BRANCH   5   9
HETATM    9  C2  UNL     1      28.833   1.384  53.980  1.00  0.00     0.048 C 
BRANCH   9  10
HETATM   10  C1  UNL     1      29.190   0.024  54.537  1.00  0.00     0.119 C 
HETATM   11 CL1  UNL     1      29.849  -0.976  53.242  1.00  0.00    -0.130 Cl
ENDBRANCH   9  10
ENDBRANCH   5   9
ENDBRANCH   1   2
BRANCH   1  12
HETATM   12  C7  UNL     1      22.103   1.228  52.141  1.00  0.00     0.013 C 
BRANCH  12  13
HETATM   13  C8  UNL     1      20.820   0.738  52.595  1.00  0.00    -0.008 C 
HETATM   14  C9  UNL     1      21.013  -0.408  53.221  1.00  0.00     0.069 C 
HETATM   15  C10 UNL     1      21.877  -1.474  53.708  1.00  0.00     0.261 C 
HETATM   16  N1  UNL     1      20.004  -1.256  53.813  1.00  0.00    -0.259 N 
HETATM   17  O1  UNL     1      20.918  -1.579  54.750  1.00  0.00    -0.272 OA
HETATM   18  C11 UNL     1      18.646  -1.607  53.543  1.00  0.00     0.158 C 
HETATM   19  C12 UNL     1      17.930  -0.509  52.788  1.00  0.00     0.048 C 
HETATM   20  C13 UNL     1      18.569  -0.249  51.457  1.00  0.00     0.169 C 
HETATM   21  O2  UNL     1      18.861   1.095  51.252  1.00  0.00    -0.387 OA
HETATM   22  C14 UNL     1      19.670   1.621  52.251  1.00  0.00     0.208 C 
ENDBRANCH  12  13
ENDBRANCH   1  12
TORSDOF 5
ENDMDL
MODEL 4
REMARK VINA RESULT:      -6.4      3.864      5.027
REMARK  5 active torsions:
REMARK  status: ('A' for Active; 'I' for Inactive)
REMARK    1  A    between atoms: C1_2  and  C2_3 
REMARK    2  A    between atoms: C2_3  and  P1_4 
REMARK    3  A    between atoms: C5_7  and  C6_8 
REMARK    4  A    between atoms: C6_8  and  C7_9 
REMARK    5  A    between atoms: C7_9  and  C8_10 
ROOT
HETATM    1  C6  UNL     1      24.641   2.734  53.016  1.00  0.00     0.032 C 
ENDROOT
BRANCH   1   2
HETATM    2  C5  UNL     1      24.273   3.553  51.877  1.00  0.00     0.052 C 
HETATM    3  C4  UNL     1      23.678   4.844  52.092  1.00  0.00     0.043 C 
HETATM    4  C3  UNL     1      23.707   5.770  51.149  1.00  0.00    -0.024 C 
HETATM    5  P1  UNL     1      24.583   5.392  49.848  1.00  0.00    -0.096 P 
HETATM    6  C15 UNL     1      24.250   3.632  49.556  1.00  0.00     0.180 C 
HETATM    7  H5  UNL     1      25.946   5.480  50.213  1.00  0.00     0.059 HD
HETATM    8  N2  UNL     1      24.563   2.935  50.783  1.00  0.00    -0.286 NA
BRANCH   5   9
HETATM    9  C2  UNL     1      24.227   6.420  48.430  1.00  0.00     0.048 C 
BRANCH   9  10
HETATM   10  C1  UNL     1      25.437   7.181  47.936  1.00  0.00     0.119 C 
HETATM   11 CL1  UNL     1      26.899   6.336  48.446  1.00  0.00    -0.130 Cl
ENDBRANCH   9  10
ENDBRANCH   5   9
ENDBRANCH   1   2
BRANCH   1  12
HETATM   12  C7  UNL     1      25.461   1.916  53.612  1.00  0.00     0.013 C 
BRANCH  12  13
HETATM   13  C8  UNL     1      26.449   0.876  53.803  1.00  0.00    -0.008 C 
HETATM   14  C9  UNL     1      27.646   1.431  53.770  1.00  0.00     0.069 C 
HETATM   15  C10 UNL     1      28.521   2.588  53.637  1.00  0.00     0.261 C 
HETATM   16  N1  UNL     1      28.919   0.759  53.894  1.00  0.00    -0.259 N 
HETATM   17  O1  UNL     1      29.369   1.867  54.518  1.00  0.00    -0.272 OA
HETATM   18  C11 UNL     1      29.471  -0.505  53.528  1.00  0.00     0.158 C 
HETATM   19  C12 UNL     1      28.403  -1.573  53.441  1.00  0.00     0.048 C 
HETATM   20  C13 UNL     1      27.380  -1.243  52.396  1.00  0.00     0.169 C 
HETATM   21  O2  UNL     1      26.076  -1.309  52.876  1.00  0.00    -0.387 OA
HETATM   22  C14 UNL     1      25.875  -0.488  53.979  1.00  0.00     0.208 C 
ENDBRANCH  12  13
ENDBRANCH   1  12
TORSDOF 5
ENDMDL
MODEL 5
REMARK VINA RESULT:      -6.4      2.533      3.062
REMARK  5 active torsions:
REMARK  status: ('A' for Active; 'I' for Inactive)
REMARK    1  A    between atoms: C1_2  and  C2_3 
REMARK    2  A    between atoms: C2_3  and  P1_4 
REMARK    3  A    between atoms: C5_7  and  C6_8 
REMARK    4  A    between atoms: C6_8  and  C7_9 
REMARK    5  A    between atoms: C7_9  and  C8_10 
ROOT
HETATM    1  C6  UNL     1      24.407   2.777  53.106  1.00  0.00     0.032 C 
ENDROOT
BRANCH   1   2
HETATM    2  C5  UNL     1      23.571   3.512  52.176  1.00  0.00     0.052 C 
HETATM    3  C4  UNL     1      22.144   3.344  52.217  1.00  0.00     0.043 C 
HETATM    4  C3  UNL     1      21.338   4.257  51.704  1.00  0.00    -0.024 C 
HETATM    5  P1  UNL     1      22.067   5.605  51.198  1.00  0.00    -0.096 P 
HETATM    6  C15 UNL     1      23.609   5.038  50.426  1.00  0.00     0.180 C 
HETATM    7  H5  UNL     1      22.448   6.338  52.345  1.00  0.00     0.059 HD
HETATM    8  N2  UNL     1      24.307   4.244  51.411  1.00  0.00    -0.286 NA
BRANCH   5   9
HETATM    9  C2  UNL     1      21.055   6.592  50.106  1.00  0.00     0.048 C 
BRANCH   9  10
HETATM   10  C1  UNL     1      21.384   6.378  48.645  1.00  0.00     0.119 C 
HETATM   11 CL1  UNL     1      20.667   4.859  48.108  1.00  0.00    -0.130 Cl
ENDBRANCH   9  10
ENDBRANCH   5   9
ENDBRANCH   1   2
BRANCH   1  12
HETATM   12  C7  UNL     1      25.511   2.147  53.390  1.00  0.00     0.013 C 
BRANCH  12  13
HETATM   13  C8  UNL     1      26.779   1.474  53.214  1.00  0.00    -0.008 C 
HETATM   14  C9  UNL     1      26.559   0.173  53.191  1.00  0.00     0.069 C 
HETATM   15  C10 UNL     1      25.669  -0.979  53.254  1.00  0.00     0.261 C 
HETATM   16  N1  UNL     1      27.545  -0.874  53.059  1.00  0.00    -0.259 N 
HETATM   17  O1  UNL     1      26.616  -1.575  52.378  1.00  0.00    -0.272 OA
HETATM   18  C11 UNL     1      28.899  -1.090  53.460  1.00  0.00     0.158 C 
HETATM   19  C12 UNL     1      29.644   0.217  53.620  1.00  0.00     0.048 C 
HETATM   20  C13 UNL     1      29.024   1.078  54.679  1.00  0.00     0.169 C 
HETATM   21  O2  UNL     1      28.760   2.371  54.238  1.00  0.00    -0.387 OA
HETATM   22  C14 UNL     1      27.950   2.391  53.109  1.00  0.00     0.208 C 
ENDBRANCH  12  13
ENDBRANCH   1  12
TORSDOF 5
ENDMDL
MODEL 6
REMARK VINA RESULT:      -6.3      6.722      8.388
REMARK  5 active torsions:
REMARK  status: ('A' for Active; 'I' for Inactive)
REMARK    1  A    between atoms: C1_2  and  C2_3 
REMARK    2  A    between atoms: C2_3  and  P1_4 
REMARK    3  A    between atoms: C5_7  and  C6_8 
REMARK    4  A    between atoms: C6_8  and  C7_9 
REMARK    5  A    between atoms: C7_9  and  C8_10 
ROOT
HETATM    1  C6  UNL     1      26.910   4.312  49.139  1.00  0.00     0.032 C 
ENDROOT
BRANCH   1   2
HETATM    2  C5  UNL     1      27.602   5.444  48.553  1.00  0.00     0.052 C 
HETATM    3  C4  UNL     1      26.866   6.631  48.216  1.00  0.00     0.043 C 
HETATM    4  C3  UNL     1      27.480   7.794  48.077  1.00  0.00    -0.024 C 
HETATM    5  P1  UNL     1      29.045   7.791  48.469  1.00  0.00    -0.096 P 
HETATM    6  C15 UNL     1      29.678   6.208  47.846  1.00  0.00     0.180 C 
HETATM    7  H5  UNL     1      29.130   7.721  49.879  1.00  0.00     0.059 HD
HETATM    8  N2  UNL     1      28.855   5.169  48.422  1.00  0.00    -0.286 NA
BRANCH   5   9
HETATM    9  C2  UNL     1      29.936   9.204  47.836  1.00  0.00     0.048 C 
BRANCH   9  10
HETATM   10  C1  UNL     1      29.486  10.509  48.454  1.00  0.00     0.119 C 
HETATM   11 CL1  UNL     1      30.904  11.467  48.878  1.00  0.00    -0.130 Cl
ENDBRANCH   9  10
ENDBRANCH   5   9
ENDBRANCH   1   2
BRANCH   1  12
HETATM   12  C7  UNL     1      26.540   3.618  50.178  1.00  0.00     0.013 C 
BRANCH  12  13
HETATM   13  C8  UNL     1      25.943   2.566  50.971  1.00  0.00    -0.008 C 
HETATM   14  C9  UNL     1      24.636   2.601  50.790  1.00  0.00     0.069 C 
HETATM   15  C10 UNL     1      23.439   3.170  50.185  1.00  0.00     0.261 C 
HETATM   16  N1  UNL     1      23.649   1.745  51.408  1.00  0.00    -0.259 N 
HETATM   17  O1  UNL     1      22.944   1.841  50.262  1.00  0.00    -0.272 OA
HETATM   18  C11 UNL     1      23.478   1.086  52.663  1.00  0.00     0.158 C 
HETATM   19  C12 UNL     1      24.810   0.789  53.317  1.00  0.00     0.048 C 
HETATM   20  C13 UNL     1      25.575   2.046  53.605  1.00  0.00     0.169 C 
HETATM   21  O2  UNL     1      26.876   2.010  53.114  1.00  0.00    -0.387 OA
HETATM   22  C14 UNL     1      26.922   1.755  51.749  1.00  0.00     0.208 C 
ENDBRANCH  12  13
ENDBRANCH   1  12
TORSDOF 5
ENDMDL
MODEL 7
REMARK VINA RESULT:      -6.2      4.830      6.392
REMARK  5 active torsions:
REMARK  status: ('A' for Active; 'I' for Inactive)
REMARK    1  A    between atoms: C1_2  and  C2_3 
REMARK    2  A    between atoms: C2_3  and  P1_4 
REMARK    3  A    between atoms: C5_7  and  C6_8 
REMARK    4  A    between atoms: C6_8  and  C7_9 
REMARK    5  A    between atoms: C7_9  and  C8_10 
ROOT
HETATM    1  C6  UNL     1      25.192   2.339  51.017  1.00  0.00     0.032 C 
ENDROOT
BRANCH   1   2
HETATM    2  C5  UNL     1      25.389   3.702  50.561  1.00  0.00     0.052 C 
HETATM    3  C4  UNL     1      26.501   4.012  49.706  1.00  0.00     0.043 C 
HETATM    4  C3  UNL     1      26.494   5.098  48.951  1.00  0.00    -0.024 C 
HETATM    5  P1  UNL     1      25.107   5.922  48.952  1.00  0.00    -0.096 P 
HETATM    6  C15 UNL     1      24.527   5.856  50.670  1.00  0.00     0.180 C 
HETATM    7  H5  UNL     1      24.172   5.181  48.192  1.00  0.00     0.059 HD
HETATM    8  N2  UNL     1      24.462   4.461  51.040  1.00  0.00    -0.286 NA
BRANCH   5   9
HETATM    9  C2  UNL     1      25.273   7.588  48.328  1.00  0.00     0.048 C 
BRANCH   9  10
HETATM   10  C1  UNL     1      25.220   8.633  49.420  1.00  0.00     0.119 C 
HETATM   11 CL1  UNL     1      26.820   8.792  50.146  1.00  0.00    -0.130 Cl
ENDBRANCH   9  10
ENDBRANCH   5   9
ENDBRANCH   1   2
BRANCH   1  12
HETATM   12  C7  UNL     1      24.694   1.483  51.864  1.00  0.00     0.013 C 
BRANCH  12  13
HETATM   13  C8  UNL     1      23.872   0.931  52.918  1.00  0.00    -0.008 C 
HETATM   14  C9  UNL     1      24.542  -0.049  53.496  1.00  0.00     0.069 C 
HETATM   15  C10 UNL     1      25.722  -0.893  53.628  1.00  0.00     0.261 C 
HETATM   16  N1  UNL     1      24.090  -0.890  54.579  1.00  0.00    -0.259 N 
HETATM   17  O1  UNL     1      25.370  -0.921  55.003  1.00  0.00    -0.272 OA
HETATM   18  C11 UNL     1      22.852  -1.449  55.020  1.00  0.00     0.158 C 
HETATM   19  C12 UNL     1      21.676  -0.604  54.581  1.00  0.00     0.048 C 
HETATM   20  C13 UNL     1      21.588  -0.517  53.087  1.00  0.00     0.169 C 
HETATM   21  O2  UNL     1      21.491   0.792  52.628  1.00  0.00    -0.387 OA
HETATM   22  C14 UNL     1      22.543   1.588  53.066  1.00  0.00     0.208 C 
ENDBRANCH  12  13
ENDBRANCH   1  12
TORSDOF 5
ENDMDL
MODEL 8
REMARK VINA RESULT:      -6.2      5.400      6.840
REMARK  5 active torsions:
REMARK  status: ('A' for Active; 'I' for Inactive)
REMARK    1  A    between atoms: C1_2  and  C2_3 
REMARK    2  A    between atoms: C2_3  and  P1_4 
REMARK    3  A    between atoms: C5_7  and  C6_8 
REMARK    4  A    between atoms: C6_8  and  C7_9 
REMARK    5  A    between atoms: C7_9  and  C8_10 
ROOT
HETATM    1  C6  UNL     1      25.113   3.165  50.185  1.00  0.00     0.032 C 
ENDROOT
BRANCH   1   2
HETATM    2  C5  UNL     1      25.638   4.275  49.413  1.00  0.00     0.052 C 
HETATM    3  C4  UNL     1      24.740   5.274  48.901  1.00  0.00     0.043 C 
HETATM    4  C3  UNL     1      25.180   6.474  48.566  1.00  0.00    -0.024 C 
HETATM    5  P1  UNL     1      26.726   6.761  48.928  1.00  0.00    -0.096 P 
HETATM    6  C15 UNL     1      27.587   5.206  48.558  1.00  0.00     0.180 C 
HETATM    7  H5  UNL     1      26.810   6.934  50.329  1.00  0.00     0.059 HD
HETATM    8  N2  UNL     1      26.919   4.167  49.307  1.00  0.00    -0.286 NA
BRANCH   5   9
HETATM    9  C2  UNL     1      27.408   8.166  48.061  1.00  0.00     0.048 C 
BRANCH   9  10
HETATM   10  C1  UNL     1      28.227   9.070  48.957  1.00  0.00     0.119 C 
HETATM   11 CL1  UNL     1      29.895   8.499  48.982  1.00  0.00    -0.130 Cl
ENDBRANCH   9  10
ENDBRANCH   5   9
ENDBRANCH   1   2
BRANCH   1  12
HETATM   12  C7  UNL     1      24.848   2.599  51.329  1.00  0.00     0.013 C 
BRANCH  12  13
HETATM   13  C8  UNL     1      25.031   1.852  52.553  1.00  0.00    -0.008 C 
HETATM   14  C9  UNL     1      26.305   1.914  52.891  1.00  0.00     0.069 C 
HETATM   15  C10 UNL     1      27.672   2.362  52.661  1.00  0.00     0.261 C 
HETATM   16  N1  UNL     1      26.935   1.290  54.031  1.00  0.00    -0.259 N 
HETATM   17  O1  UNL     1      27.758   2.357  54.079  1.00  0.00    -0.272 OA
HETATM   18  C11 UNL     1      26.774   0.086  54.782  1.00  0.00     0.158 C 
HETATM   19  C12 UNL     1      25.351  -0.422  54.715  1.00  0.00     0.048 C 
HETATM   20  C13 UNL     1      24.949  -0.749  53.308  1.00  0.00     0.169 C 
HETATM   21  O2  UNL     1      23.752  -0.146  52.935  1.00  0.00    -0.387 OA
HETATM   22  C14 UNL     1      23.783   1.235  53.087  1.00  0.00     0.208 C 
ENDBRANCH  12  13
ENDBRANCH   1  12
TORSDOF 5
ENDMDL
MODEL 9
REMARK VINA RESULT:      -6.2      5.792      7.184
REMARK  5 active torsions:
REMARK  status: ('A' for Active; 'I' for Inactive)
REMARK    1  A    between atoms: C1_2  and  C2_3 
REMARK    2  A    between atoms: C2_3  and  P1_4 
REMARK    3  A    between atoms: C5_7  and  C6_8 
REMARK    4  A    between atoms: C6_8  and  C7_9 
REMARK    5  A    between atoms: C7_9  and  C8_10 
ROOT
HETATM    1  C6  UNL     1      26.583   3.190  50.000  1.00  0.00     0.032 C 
ENDROOT
BRANCH   1   2
HETATM    2  C5  UNL     1      26.621   4.434  49.253  1.00  0.00     0.052 C 
HETATM    3  C4  UNL     1      25.402   5.152  49.005  1.00  0.00     0.043 C 
HETATM    4  C3  UNL     1      25.421   6.441  48.711  1.00  0.00    -0.024 C 
HETATM    5  P1  UNL     1      26.869   7.144  48.817  1.00  0.00    -0.096 P 
HETATM    6  C15 UNL     1      28.032   5.917  48.156  1.00  0.00     0.180 C 
HETATM    7  H5  UNL     1      27.178   7.278  50.190  1.00  0.00     0.059 HD
HETATM    8  N2  UNL     1      27.836   4.701  48.912  1.00  0.00    -0.286 NA
BRANCH   5   9
HETATM    9  C2  UNL     1      26.956   8.719  47.978  1.00  0.00     0.048 C 
BRANCH   9  10
HETATM   10  C1  UNL     1      27.080   9.887  48.930  1.00  0.00     0.119 C 
HETATM   11 CL1  UNL     1      28.782  10.325  49.088  1.00  0.00    -0.130 Cl
ENDBRANCH   9  10
ENDBRANCH   5   9
ENDBRANCH   1   2
BRANCH   1  12
HETATM   12  C7  UNL     1      26.154   2.479  51.003  1.00  0.00     0.013 C 
BRANCH  12  13
HETATM   13  C8  UNL     1      25.251   1.886  51.965  1.00  0.00    -0.008 C 
HETATM   14  C9  UNL     1      25.708   0.689  52.280  1.00  0.00     0.069 C 
HETATM   15  C10 UNL     1      26.685  -0.385  52.157  1.00  0.00     0.261 C 
HETATM   16  N1  UNL     1      25.105  -0.261  53.186  1.00  0.00    -0.259 N 
HETATM   17  O1  UNL     1      26.357  -0.643  53.515  1.00  0.00    -0.272 OA
HETATM   18  C11 UNL     1      23.785  -0.641  53.574  1.00  0.00     0.158 C 
HETATM   19  C12 UNL     1      22.806   0.499  53.397  1.00  0.00     0.048 C 
HETATM   20  C13 UNL     1      22.716   0.929  51.963  1.00  0.00     0.169 C 
HETATM   21  O2  UNL     1      22.890   2.299  51.799  1.00  0.00    -0.387 OA
HETATM   22  C14 UNL     1      24.092   2.750  52.330  1.00  0.00     0.208 C 
ENDBRANCH  12  13
ENDBRANCH   1  12
TORSDOF 5
ENDMDL
