MODEL 1
REMARK VINA RESULT:      -8.1      0.000      0.000
REMARK  2 active torsions:
REMARK  status: ('A' for Active; 'I' for Inactive)
REMARK    1  A    between atoms: C9_11  and  N2_12 
REMARK    2  A    between atoms: N2_12  and  C10_13 
ROOT
HETATM    1 BR1  UNL     1      21.747   3.975  46.463  1.00  0.00    -0.051 Br
HETATM    2  C1  UNL     1      21.567   2.872  47.991  1.00  0.00     0.011 A 
HETATM    3  C2  UNL     1      20.443   2.137  48.319  1.00  0.00     0.022 A 
HETATM    4  C3  UNL     1      20.431   1.357  49.479  1.00  0.00     0.039 A 
HETATM    5  C4  UNL     1      21.510   1.285  50.329  1.00  0.00     0.079 A 
HETATM    6  C5  UNL     1      22.671   2.037  50.001  1.00  0.00    -0.006 A 
HETATM    7  C6  UNL     1      22.620   2.769  48.869  1.00  0.00     0.030 A 
HETATM    8  C7  UNL     1      23.681   1.837  51.001  1.00  0.00     0.160 C 
HETATM    9  N1  UNL     1      24.958   2.448  50.993  1.00  0.00    -0.391 N 
HETATM   10  C8  UNL     1      25.656   1.936  52.181  1.00  0.00     0.134 C 
HETATM   11  C9  UNL     1      25.410   1.108  53.226  1.00  0.00     0.139 C 
HETATM   12  N3  UNL     1      24.218   0.456  53.417  1.00  0.00    -0.249 N 
HETATM   13  C16 UNL     1      23.760  -0.553  53.977  1.00  0.00     0.199 A 
HETATM   14  N4  UNL     1      22.729   0.120  53.345  1.00  0.00    -0.148 NA
HETATM   15  C17 UNL     1      22.131  -0.088  52.230  1.00  0.00     0.274 C 
HETATM   16  O1  UNL     1      21.124   0.400  51.388  1.00  0.00    -0.324 OA
HETATM   17  H6  UNL     1      25.563   3.095  50.488  1.00  0.00     0.159 HD
ENDROOT
BRANCH  11  18
HETATM   18  N2  UNL     1      26.211   0.699  54.329  1.00  0.00    -0.340 N 
HETATM   19  H8  UNL     1      25.856   0.844  55.298  1.00  0.00     0.167 HD
BRANCH  18  20
HETATM   20  C10 UNL     1      27.482   0.099  54.032  1.00  0.00     0.033 A 
HETATM   21  C11 UNL     1      27.483  -1.103  53.363  1.00  0.00     0.029 A 
HETATM   22  C12 UNL     1      28.665  -1.758  53.034  1.00  0.00     0.002 A 
HETATM   23  C13 UNL     1      29.853  -1.161  53.402  1.00  0.00     0.000 A 
HETATM   24  C14 UNL     1      29.872   0.045  54.075  1.00  0.00     0.002 A 
HETATM   25  C15 UNL     1      28.670   0.682  54.392  1.00  0.00     0.029 A 
ENDBRANCH  18  20
ENDBRANCH  11  18
TORSDOF 2
ENDMDL
MODEL 2
REMARK VINA RESULT:      -8.0      2.507      3.650
REMARK  2 active torsions:
REMARK  status: ('A' for Active; 'I' for Inactive)
REMARK    1  A    between atoms: C9_11  and  N2_12 
REMARK    2  A    between atoms: N2_12  and  C10_13 
ROOT
HETATM    1 BR1  UNL     1      16.756  -1.274  52.702  1.00  0.00    -0.051 Br
HETATM    2  C1  UNL     1      18.191  -0.330  51.907  1.00  0.00     0.011 A 
HETATM    3  C2  UNL     1      18.107   0.436  50.759  1.00  0.00     0.022 A 
HETATM    4  C3  UNL     1      19.242   1.088  50.267  1.00  0.00     0.039 A 
HETATM    5  C4  UNL     1      20.466   1.001  50.887  1.00  0.00     0.079 A 
HETATM    6  C5  UNL     1      20.565   0.216  52.068  1.00  0.00    -0.006 A 
HETATM    7  C6  UNL     1      19.435  -0.387  52.490  1.00  0.00     0.030 A 
HETATM    8  C7  UNL     1      21.911   0.244  52.562  1.00  0.00     0.160 C 
HETATM    9  N1  UNL     1      22.363  -0.442  53.715  1.00  0.00    -0.391 N 
HETATM   10  C8  UNL     1      23.787  -0.104  53.851  1.00  0.00     0.134 C 
HETATM   11  C9  UNL     1      24.727   0.623  53.197  1.00  0.00     0.139 C 
HETATM   12  N3  UNL     1      24.480   1.325  52.045  1.00  0.00    -0.249 N 
HETATM   13  C16 UNL     1      24.917   2.295  51.406  1.00  0.00     0.199 A 
HETATM   14  N4  UNL     1      23.834   1.761  50.730  1.00  0.00    -0.148 NA
HETATM   15  C17 UNL     1      22.606   2.123  50.663  1.00  0.00     0.274 C 
HETATM   16  O1  UNL     1      21.367   1.792  50.100  1.00  0.00    -0.324 OA
HETATM   17  H6  UNL     1      22.083  -1.068  54.469  1.00  0.00     0.159 HD
ENDROOT
BRANCH  11  18
HETATM   18  N2  UNL     1      26.104   0.861  53.462  1.00  0.00    -0.340 N 
HETATM   19  H8  UNL     1      26.408   1.810  53.767  1.00  0.00     0.167 HD
BRANCH  18  20
HETATM   20  C10 UNL     1      27.008  -0.243  53.293  1.00  0.00     0.033 A 
HETATM   21  C11 UNL     1      28.302  -0.085  53.730  1.00  0.00     0.029 A 
HETATM   22  C12 UNL     1      29.246  -1.099  53.607  1.00  0.00     0.002 A 
HETATM   23  C13 UNL     1      28.844  -2.283  53.028  1.00  0.00     0.000 A 
HETATM   24  C14 UNL     1      27.548  -2.461  52.583  1.00  0.00     0.002 A 
HETATM   25  C15 UNL     1      26.620  -1.427  52.719  1.00  0.00     0.029 A 
ENDBRANCH  18  20
ENDBRANCH  11  18
TORSDOF 2
ENDMDL
MODEL 3
REMARK VINA RESULT:      -7.9      2.824      3.425
REMARK  2 active torsions:
REMARK  status: ('A' for Active; 'I' for Inactive)
REMARK    1  A    between atoms: C9_11  and  N2_12 
REMARK    2  A    between atoms: N2_12  and  C10_13 
ROOT
HETATM    1 BR1  UNL     1      26.442   8.198  47.121  1.00  0.00    -0.051 Br
HETATM    2  C1  UNL     1      25.242   6.991  47.951  1.00  0.00     0.011 A 
HETATM    3  C2  UNL     1      23.865   7.029  47.841  1.00  0.00     0.022 A 
HETATM    4  C3  UNL     1      23.083   6.079  48.505  1.00  0.00     0.039 A 
HETATM    5  C4  UNL     1      23.634   5.085  49.279  1.00  0.00     0.079 A 
HETATM    6  C5  UNL     1      25.049   5.036  49.399  1.00  0.00    -0.006 A 
HETATM    7  C6  UNL     1      25.747   5.981  48.735  1.00  0.00     0.030 A 
HETATM    8  C7  UNL     1      25.430   3.940  50.244  1.00  0.00     0.160 C 
HETATM    9  N1  UNL     1      26.764   3.611  50.588  1.00  0.00    -0.391 N 
HETATM   10  C8  UNL     1      26.676   2.415  51.437  1.00  0.00     0.134 C 
HETATM   11  C9  UNL     1      25.720   1.610  51.964  1.00  0.00     0.139 C 
HETATM   12  N3  UNL     1      24.375   1.796  51.767  1.00  0.00    -0.249 N 
HETATM   13  C16 UNL     1      23.312   1.156  51.771  1.00  0.00     0.199 A 
HETATM   14  N4  UNL     1      23.040   2.479  51.470  1.00  0.00    -0.148 NA
HETATM   15  C17 UNL     1      22.813   3.071  50.356  1.00  0.00     0.274 C 
HETATM   16  O1  UNL     1      22.532   4.319  49.785  1.00  0.00    -0.324 OA
HETATM   17  H6  UNL     1      27.739   3.883  50.473  1.00  0.00     0.159 HD
ENDROOT
BRANCH  11  18
HETATM   18  N2  UNL     1      25.795   0.455  52.792  1.00  0.00    -0.340 N 
HETATM   19  H8  UNL     1      24.915  -0.028  53.073  1.00  0.00     0.167 HD
BRANCH  18  20
HETATM   20  C10 UNL     1      27.102   0.016  53.194  1.00  0.00     0.033 A 
HETATM   21  C11 UNL     1      27.512  -1.233  52.789  1.00  0.00     0.029 A 
HETATM   22  C12 UNL     1      28.760  -1.741  53.130  1.00  0.00     0.002 A 
HETATM   23  C13 UNL     1      29.588  -0.948  53.896  1.00  0.00     0.000 A 
HETATM   24  C14 UNL     1      29.195   0.309  54.312  1.00  0.00     0.002 A 
HETATM   25  C15 UNL     1      27.935   0.796  53.955  1.00  0.00     0.029 A 
ENDBRANCH  18  20
ENDBRANCH  11  18
TORSDOF 2
ENDMDL
MODEL 4
REMARK VINA RESULT:      -7.8      4.813      7.106
REMARK  2 active torsions:
REMARK  status: ('A' for Active; 'I' for Inactive)
REMARK    1  A    between atoms: C9_11  and  N2_12 
REMARK    2  A    between atoms: N2_12  and  C10_13 
ROOT
HETATM    1 BR1  UNL     1      27.561  -2.262  52.693  1.00  0.00    -0.051 Br
HETATM    2  C1  UNL     1      26.332  -0.824  52.777  1.00  0.00     0.011 A 
HETATM    3  C2  UNL     1      25.241  -0.751  53.623  1.00  0.00     0.022 A 
HETATM    4  C3  UNL     1      24.404   0.368  53.591  1.00  0.00     0.039 A 
HETATM    5  C4  UNL     1      24.619   1.423  52.736  1.00  0.00     0.079 A 
HETATM    6  C5  UNL     1      25.738   1.359  51.861  1.00  0.00    -0.006 A 
HETATM    7  C6  UNL     1      26.507   0.254  51.941  1.00  0.00     0.030 A 
HETATM    8  C7  UNL     1      25.793   2.542  51.051  1.00  0.00     0.160 C 
HETATM    9  N1  UNL     1      26.773   2.799  50.062  1.00  0.00    -0.391 N 
HETATM   10  C8  UNL     1      26.454   4.126  49.516  1.00  0.00     0.134 C 
HETATM   11  C9  UNL     1      25.520   5.095  49.679  1.00  0.00     0.139 C 
HETATM   12  N3  UNL     1      24.476   5.005  50.566  1.00  0.00    -0.249 N 
HETATM   13  C16 UNL     1      23.703   5.733  51.207  1.00  0.00     0.199 A 
HETATM   14  N4  UNL     1      23.411   4.409  51.485  1.00  0.00    -0.148 NA
HETATM   15  C17 UNL     1      23.712   3.659  52.480  1.00  0.00     0.274 C 
HETATM   16  O1  UNL     1      23.568   2.364  52.994  1.00  0.00    -0.324 OA
HETATM   17  H6  UNL     1      27.596   2.421  49.595  1.00  0.00     0.159 HD
ENDROOT
BRANCH  11  18
HETATM   18  N2  UNL     1      25.340   6.362  49.058  1.00  0.00    -0.340 N 
HETATM   19  H8  UNL     1      24.463   6.550  48.527  1.00  0.00     0.167 HD
BRANCH  18  20
HETATM   20  C10 UNL     1      26.397   7.323  49.205  1.00  0.00     0.033 A 
HETATM   21  C11 UNL     1      27.484   7.214  48.368  1.00  0.00     0.029 A 
HETATM   22  C12 UNL     1      28.555   8.099  48.438  1.00  0.00     0.002 A 
HETATM   23  C13 UNL     1      28.496   9.103  49.381  1.00  0.00     0.000 A 
HETATM   24  C14 UNL     1      27.414   9.229  50.230  1.00  0.00     0.002 A 
HETATM   25  C15 UNL     1      26.352   8.327  50.138  1.00  0.00     0.029 A 
ENDBRANCH  18  20
ENDBRANCH  11  18
TORSDOF 2
ENDMDL
MODEL 5
REMARK VINA RESULT:      -7.7      3.624      4.628
REMARK  2 active torsions:
REMARK  status: ('A' for Active; 'I' for Inactive)
REMARK    1  A    between atoms: C9_11  and  N2_12 
REMARK    2  A    between atoms: N2_12  and  C10_13 
ROOT
HETATM    1 BR1  UNL     1      27.914   8.706  46.981  1.00  0.00    -0.051 Br
HETATM    2  C1  UNL     1      26.407   7.694  47.516  1.00  0.00     0.011 A 
HETATM    3  C2  UNL     1      25.098   7.952  47.151  1.00  0.00     0.022 A 
HETATM    4  C3  UNL     1      24.067   7.129  47.612  1.00  0.00     0.039 A 
HETATM    5  C4  UNL     1      24.299   6.049  48.431  1.00  0.00     0.079 A 
HETATM    6  C5  UNL     1      25.640   5.773  48.813  1.00  0.00    -0.006 A 
HETATM    7  C6  UNL     1      26.589   6.605  48.335  1.00  0.00     0.030 A 
HETATM    8  C7  UNL     1      25.678   4.619  49.664  1.00  0.00     0.160 C 
HETATM    9  N1  UNL     1      26.854   4.077  50.238  1.00  0.00    -0.391 N 
HETATM   10  C8  UNL     1      26.421   2.898  51.001  1.00  0.00     0.134 C 
HETATM   11  C9  UNL     1      25.270   2.247  51.302  1.00  0.00     0.139 C 
HETATM   12  N3  UNL     1      24.033   2.648  50.864  1.00  0.00    -0.249 N 
HETATM   13  C16 UNL     1      22.903   2.185  50.639  1.00  0.00     0.199 A 
HETATM   14  N4  UNL     1      22.901   3.539  50.352  1.00  0.00    -0.148 NA
HETATM   15  C17 UNL     1      22.987   4.176  49.243  1.00  0.00     0.274 C 
HETATM   16  O1  UNL     1      23.016   5.461  48.686  1.00  0.00    -0.324 OA
HETATM   17  H6  UNL     1      27.863   4.191  50.321  1.00  0.00     0.159 HD
ENDROOT
BRANCH  11  18
HETATM   18  N2  UNL     1      25.005   1.083  52.076  1.00  0.00    -0.340 N 
HETATM   19  H8  UNL     1      24.036   0.702  52.109  1.00  0.00     0.167 HD
BRANCH  18  20
HETATM   20  C10 UNL     1      26.112   0.493  52.776  1.00  0.00     0.033 A 
HETATM   21  C11 UNL     1      26.419   0.987  54.023  1.00  0.00     0.029 A 
HETATM   22  C12 UNL     1      27.473   0.478  54.774  1.00  0.00     0.002 A 
HETATM   23  C13 UNL     1      28.212  -0.550  54.227  1.00  0.00     0.000 A 
HETATM   24  C14 UNL     1      27.920  -1.059  52.977  1.00  0.00     0.002 A 
HETATM   25  C15 UNL     1      26.855  -0.530  52.244  1.00  0.00     0.029 A 
ENDBRANCH  18  20
ENDBRANCH  11  18
TORSDOF 2
ENDMDL
MODEL 6
REMARK VINA RESULT:      -7.6      1.679      1.749
REMARK  2 active torsions:
REMARK  status: ('A' for Active; 'I' for Inactive)
REMARK    1  A    between atoms: C9_11  and  N2_12 
REMARK    2  A    between atoms: N2_12  and  C10_13 
ROOT
HETATM    1 BR1  UNL     1      21.164   6.009  48.357  1.00  0.00    -0.051 Br
HETATM    2  C1  UNL     1      20.870   4.716  49.708  1.00  0.00     0.011 A 
HETATM    3  C2  UNL     1      19.656   4.455  50.317  1.00  0.00     0.022 A 
HETATM    4  C3  UNL     1      19.566   3.472  51.306  1.00  0.00     0.039 A 
HETATM    5  C4  UNL     1      20.653   2.735  51.712  1.00  0.00     0.079 A 
HETATM    6  C5  UNL     1      21.906   2.994  51.094  1.00  0.00    -0.006 A 
HETATM    7  C6  UNL     1      21.928   3.955  50.147  1.00  0.00     0.030 A 
HETATM    8  C7  UNL     1      22.912   2.135  51.649  1.00  0.00     0.160 C 
HETATM    9  N1  UNL     1      24.277   2.138  51.271  1.00  0.00    -0.391 N 
HETATM   10  C8  UNL     1      24.918   1.086  52.071  1.00  0.00     0.134 C 
HETATM   11  C9  UNL     1      24.579   0.188  53.029  1.00  0.00     0.139 C 
HETATM   12  N3  UNL     1      23.313   0.065  53.543  1.00  0.00    -0.249 N 
HETATM   13  C16 UNL     1      22.587  -0.772  54.103  1.00  0.00     0.199 A 
HETATM   14  N4  UNL     1      21.882   0.410  53.954  1.00  0.00    -0.148 NA
HETATM   15  C17 UNL     1      20.998   0.775  53.100  1.00  0.00     0.274 C 
HETATM   16  O1  UNL     1      20.172   1.842  52.726  1.00  0.00    -0.324 OA
HETATM   17  H6  UNL     1      24.967   2.584  50.668  1.00  0.00     0.159 HD
ENDROOT
BRANCH  11  18
HETATM   18  N2  UNL     1      25.336  -0.795  53.727  1.00  0.00    -0.340 N 
HETATM   19  H8  UNL     1      24.847  -1.621  54.133  1.00  0.00     0.167 HD
BRANCH  18  20
HETATM   20  C10 UNL     1      26.753  -0.584  53.829  1.00  0.00     0.033 A 
HETATM   21  C11 UNL     1      27.576  -1.390  53.077  1.00  0.00     0.029 A 
HETATM   22  C12 UNL     1      28.960  -1.260  53.112  1.00  0.00     0.002 A 
HETATM   23  C13 UNL     1      29.492  -0.287  53.931  1.00  0.00     0.000 A 
HETATM   24  C14 UNL     1      28.682   0.531  54.694  1.00  0.00     0.002 A 
HETATM   25  C15 UNL     1      27.295   0.379  54.640  1.00  0.00     0.029 A 
ENDBRANCH  18  20
ENDBRANCH  11  18
TORSDOF 2
ENDMDL
MODEL 7
REMARK VINA RESULT:      -7.3      3.405      6.292
REMARK  2 active torsions:
REMARK  status: ('A' for Active; 'I' for Inactive)
REMARK    1  A    between atoms: C9_11  and  N2_12 
REMARK    2  A    between atoms: N2_12  and  C10_13 
ROOT
HETATM    1 BR1  UNL     1      25.962   8.065  47.828  1.00  0.00    -0.051 Br
HETATM    2  C1  UNL     1      26.224   6.361  48.610  1.00  0.00     0.011 A 
HETATM    3  C2  UNL     1      27.364   5.589  48.482  1.00  0.00     0.022 A 
HETATM    4  C3  UNL     1      27.439   4.342  49.110  1.00  0.00     0.039 A 
HETATM    5  C4  UNL     1      26.408   3.836  49.866  1.00  0.00     0.079 A 
HETATM    6  C5  UNL     1      25.231   4.621  50.005  1.00  0.00    -0.006 A 
HETATM    7  C6  UNL     1      25.221   5.814  49.375  1.00  0.00     0.030 A 
HETATM    8  C7  UNL     1      24.275   3.929  50.820  1.00  0.00     0.160 C 
HETATM    9  N1  UNL     1      22.988   4.419  51.149  1.00  0.00    -0.391 N 
HETATM   10  C8  UNL     1      22.379   3.401  52.016  1.00  0.00     0.134 C 
HETATM   11  C9  UNL     1      22.692   2.186  52.531  1.00  0.00     0.139 C 
HETATM   12  N3  UNL     1      23.879   1.540  52.292  1.00  0.00    -0.249 N 
HETATM   13  C16 UNL     1      24.619   0.684  52.802  1.00  0.00     0.199 A 
HETATM   14  N4  UNL     1      25.182   1.119  51.615  1.00  0.00    -0.148 NA
HETATM   15  C17 UNL     1      26.123   1.955  51.372  1.00  0.00     0.274 C 
HETATM   16  O1  UNL     1      26.851   2.557  50.338  1.00  0.00    -0.324 OA
HETATM   17  H6  UNL     1      22.338   5.193  51.015  1.00  0.00     0.159 HD
ENDROOT
BRANCH  11  18
HETATM   18  N2  UNL     1      21.976   1.297  53.381  1.00  0.00    -0.340 N 
HETATM   19  H8  UNL     1      22.339   1.103  54.339  1.00  0.00     0.167 HD
BRANCH  18  20
HETATM   20  C10 UNL     1      20.773   0.711  52.857  1.00  0.00     0.033 A 
HETATM   21  C11 UNL     1      20.121  -0.218  53.634  1.00  0.00     0.029 A 
HETATM   22  C12 UNL     1      18.951  -0.838  53.210  1.00  0.00     0.002 A 
HETATM   23  C13 UNL     1      18.455  -0.490  51.971  1.00  0.00     0.000 A 
HETATM   24  C14 UNL     1      19.095   0.440  51.176  1.00  0.00     0.002 A 
HETATM   25  C15 UNL     1      20.269   1.048  51.627  1.00  0.00     0.029 A 
ENDBRANCH  18  20
ENDBRANCH  11  18
TORSDOF 2
ENDMDL
MODEL 8
REMARK VINA RESULT:      -7.3      3.239      7.243
REMARK  2 active torsions:
REMARK  status: ('A' for Active; 'I' for Inactive)
REMARK    1  A    between atoms: C9_11  and  N2_12 
REMARK    2  A    between atoms: N2_12  and  C10_13 
ROOT
HETATM    1 BR1  UNL     1      26.102   4.609  49.459  1.00  0.00    -0.051 Br
HETATM    2  C1  UNL     1      25.747   3.105  50.552  1.00  0.00     0.011 A 
HETATM    3  C2  UNL     1      26.703   2.272  51.103  1.00  0.00     0.022 A 
HETATM    4  C3  UNL     1      26.314   1.189  51.896  1.00  0.00     0.039 A 
HETATM    5  C4  UNL     1      24.994   0.907  52.161  1.00  0.00     0.079 A 
HETATM    6  C5  UNL     1      24.002   1.757  51.600  1.00  0.00    -0.006 A 
HETATM    7  C6  UNL     1      24.442   2.784  50.844  1.00  0.00     0.030 A 
HETATM    8  C7  UNL     1      22.696   1.302  51.982  1.00  0.00     0.160 C 
HETATM    9  N1  UNL     1      21.481   1.911  51.586  1.00  0.00    -0.391 N 
HETATM   10  C8  UNL     1      20.413   1.133  52.230  1.00  0.00     0.134 C 
HETATM   11  C9  UNL     1      20.289   0.046  53.031  1.00  0.00     0.139 C 
HETATM   12  N3  UNL     1      21.354  -0.690  53.486  1.00  0.00    -0.249 N 
HETATM   13  C16 UNL     1      21.661  -1.448  54.419  1.00  0.00     0.199 A 
HETATM   14  N4  UNL     1      22.749  -1.307  53.575  1.00  0.00    -0.148 NA
HETATM   15  C17 UNL     1      23.807  -0.588  53.659  1.00  0.00     0.274 C 
HETATM   16  O1  UNL     1      24.996  -0.259  52.995  1.00  0.00    -0.324 OA
HETATM   17  H6  UNL     1      21.074   2.666  51.035  1.00  0.00     0.159 HD
ENDROOT
BRANCH  11  18
HETATM   18  N2  UNL     1      19.152  -0.604  53.589  1.00  0.00    -0.340 N 
HETATM   19  H8  UNL     1      19.174  -0.902  54.587  1.00  0.00     0.167 HD
BRANCH  18  20
HETATM   20  C10 UNL     1      18.023  -0.811  52.725  1.00  0.00     0.033 A 
HETATM   21  C11 UNL     1      18.003  -0.140  51.525  1.00  0.00     0.029 A 
HETATM   22  C12 UNL     1      16.951  -0.278  50.626  1.00  0.00     0.002 A 
HETATM   23  C13 UNL     1      15.915  -1.118  50.975  1.00  0.00     0.000 A 
HETATM   24  C14 UNL     1      15.918  -1.801  52.175  1.00  0.00     0.002 A 
HETATM   25  C15 UNL     1      16.987  -1.644  53.060  1.00  0.00     0.029 A 
ENDBRANCH  18  20
ENDBRANCH  11  18
TORSDOF 2
ENDMDL
MODEL 9
REMARK VINA RESULT:      -7.2      1.884      2.188
REMARK  2 active torsions:
REMARK  status: ('A' for Active; 'I' for Inactive)
REMARK    1  A    between atoms: C9_11  and  N2_12 
REMARK    2  A    between atoms: N2_12  and  C10_13 
ROOT
HETATM    1 BR1  UNL     1      21.414   3.902  45.622  1.00  0.00    -0.051 Br
HETATM    2  C1  UNL     1      21.558   3.706  47.500  1.00  0.00     0.011 A 
HETATM    3  C2  UNL     1      20.505   3.767  48.394  1.00  0.00     0.022 A 
HETATM    4  C3  UNL     1      20.740   3.606  49.763  1.00  0.00     0.039 A 
HETATM    5  C4  UNL     1      21.997   3.385  50.273  1.00  0.00     0.079 A 
HETATM    6  C5  UNL     1      23.087   3.320  49.363  1.00  0.00    -0.006 A 
HETATM    7  C6  UNL     1      22.796   3.484  48.056  1.00  0.00     0.030 A 
HETATM    8  C7  UNL     1      24.309   3.089  50.079  1.00  0.00     0.160 C 
HETATM    9  N1  UNL     1      25.588   2.984  49.482  1.00  0.00    -0.391 N 
HETATM   10  C8  UNL     1      26.525   2.721  50.583  1.00  0.00     0.134 C 
HETATM   11  C9  UNL     1      26.496   2.584  51.932  1.00  0.00     0.139 C 
HETATM   12  N3  UNL     1      25.353   2.688  52.683  1.00  0.00    -0.249 N 
HETATM   13  C16 UNL     1      24.890   2.315  53.772  1.00  0.00     0.199 A 
HETATM   14  N4  UNL     1      23.940   3.078  53.115  1.00  0.00    -0.148 NA
HETATM   15  C17 UNL     1      22.906   2.750  52.432  1.00  0.00     0.274 C 
HETATM   16  O1  UNL     1      21.836   3.273  51.694  1.00  0.00    -0.324 OA
HETATM   17  H6  UNL     1      26.095   3.023  48.598  1.00  0.00     0.159 HD
ENDROOT
BRANCH  11  18
HETATM   18  N2  UNL     1      27.519   2.322  52.887  1.00  0.00    -0.340 N 
HETATM   19  H8  UNL     1      27.899   3.108  53.455  1.00  0.00     0.167 HD
BRANCH  18  20
HETATM   20  C10 UNL     1      27.970   0.964  53.012  1.00  0.00     0.033 A 
HETATM   21  C11 UNL     1      29.226   0.751  53.531  1.00  0.00     0.029 A 
HETATM   22  C12 UNL     1      29.747  -0.528  53.689  1.00  0.00     0.002 A 
HETATM   23  C13 UNL     1      28.959  -1.593  53.307  1.00  0.00     0.000 A 
HETATM   24  C14 UNL     1      27.695  -1.400  52.785  1.00  0.00     0.002 A 
HETATM   25  C15 UNL     1      27.196  -0.104  52.637  1.00  0.00     0.029 A 
ENDBRANCH  18  20
ENDBRANCH  11  18
TORSDOF 2
ENDMDL
