MODEL 1
REMARK VINA RESULT:      -9.3      0.000      0.000
REMARK  8 active torsions:
REMARK  status: ('A' for Active; 'I' for Inactive)
REMARK    1  A    between atoms: C2_2  and  C3_3 
REMARK    2  A    between atoms: C3_3  and  C4_4 
REMARK    3  A    between atoms: C4_4  and  C5_5 
REMARK    4  A    between atoms: C7_7  and  O1_8 
REMARK    5  A    between atoms: O1_8  and  C8_9 
REMARK    6  A    between atoms: C8_9  and  C9_10 
REMARK    7  A    between atoms: C11_12  and  C12_13 
REMARK    8  A    between atoms: C12_13  and  O3_15 
ROOT
HETATM    1  C5  UNL     1      25.890   0.959  53.179  1.00  0.00    -0.017 C 
HETATM    2  C6  UNL     1      26.480   1.686  52.067  1.00  0.00     0.107 C 
HETATM    3  C7  UNL     1      25.443   2.484  51.350  1.00  0.00     0.068 C 
HETATM    4  C11 UNL     1      24.152   2.096  51.426  1.00  0.00     0.083 C 
HETATM    5  C14 UNL     1      23.653   1.108  52.323  1.00  0.00     0.034 A 
HETATM    6  C15 UNL     1      24.524   0.496  53.225  1.00  0.00     0.095 A 
HETATM    7  O4  UNL     1      23.878  -0.374  53.918  1.00  0.00    -0.304 OA
HETATM    8  C16 UNL     1      22.598  -0.382  53.537  1.00  0.00     0.142 A 
HETATM    9  C17 UNL     1      22.434   0.548  52.526  1.00  0.00     0.067 A 
HETATM   10  C18 UNL     1      21.158   0.771  51.902  1.00  0.00     0.197 A 
HETATM   11  O5  UNL     1      20.859   1.551  51.003  1.00  0.00    -0.286 OA
HETATM   12  C19 UNL     1      20.014   0.006  52.356  1.00  0.00     0.029 A 
HETATM   13  C20 UNL     1      18.723   0.172  51.823  1.00  0.00     0.016 A 
HETATM   14  C21 UNL     1      17.670  -0.572  52.303  1.00  0.00     0.001 A 
HETATM   15  C22 UNL     1      17.847  -1.484  53.296  1.00  0.00     0.001 A 
HETATM   16  C23 UNL     1      19.088  -1.665  53.833  1.00  0.00     0.016 A 
HETATM   17  C24 UNL     1      20.163  -0.936  53.378  1.00  0.00     0.031 A 
HETATM   18  C25 UNL     1      21.469  -1.157  53.998  1.00  0.00     0.217 A 
HETATM   19  O6  UNL     1      21.547  -2.008  54.902  1.00  0.00    -0.284 OA
ENDROOT
BRANCH   1  20
HETATM   20  C4  UNL     1      26.678   0.808  54.207  1.00  0.00     0.010 C 
BRANCH  20  21
HETATM   21  C3  UNL     1      27.995   0.336  54.568  1.00  0.00    -0.004 C 
BRANCH  21  22
HETATM   22  C2  UNL     1      29.157  -0.089  54.150  1.00  0.00    -0.031 C 
HETATM   23  C1  UNL     1      29.451  -1.354  53.405  1.00  0.00     0.036 C 
ENDBRANCH  21  22
ENDBRANCH  20  21
ENDBRANCH   1  20
BRANCH   3  24
HETATM   24  O1  UNL     1      25.909   3.598  50.632  1.00  0.00    -0.354 OA
BRANCH  24  25
HETATM   25  C8  UNL     1      26.736   3.394  49.484  1.00  0.00     0.175 C 
BRANCH  25  26
HETATM   26  C9  UNL     1      27.192   4.699  48.860  1.00  0.00     0.022 C 
HETATM   27  C10 UNL     1      26.009   5.645  48.981  1.00  0.00     0.007 C 
ENDBRANCH  25  26
ENDBRANCH  24  25
ENDBRANCH   3  24
BRANCH   4  28
HETATM   28  C12 UNL     1      23.347   3.028  50.612  1.00  0.00     0.296 C 
HETATM   29  O2  UNL     1      22.767   3.543  49.637  1.00  0.00    -0.259 OA
BRANCH  28  30
HETATM   30  O3  UNL     1      22.747   4.157  51.042  1.00  0.00    -0.322 OA
HETATM   31  C13 UNL     1      22.361   4.608  52.284  1.00  0.00     0.213 C 
ENDBRANCH  28  30
ENDBRANCH   4  28
TORSDOF 8
ENDMDL
MODEL 2
REMARK VINA RESULT:      -8.8      1.533      6.720
REMARK  8 active torsions:
REMARK  status: ('A' for Active; 'I' for Inactive)
REMARK    1  A    between atoms: C2_2  and  C3_3 
REMARK    2  A    between atoms: C3_3  and  C4_4 
REMARK    3  A    between atoms: C4_4  and  C5_5 
REMARK    4  A    between atoms: C7_7  and  O1_8 
REMARK    5  A    between atoms: O1_8  and  C8_9 
REMARK    6  A    between atoms: C8_9  and  C9_10 
REMARK    7  A    between atoms: C11_12  and  C12_13 
REMARK    8  A    between atoms: C12_13  and  O3_15 
ROOT
HETATM    1  C5  UNL     1      25.947   0.633  52.335  1.00  0.00    -0.017 C 
HETATM    2  C6  UNL     1      24.962   0.359  53.369  1.00  0.00     0.107 C 
HETATM    3  C7  UNL     1      23.664   1.020  53.050  1.00  0.00     0.068 C 
HETATM    4  C11 UNL     1      23.664   2.106  52.247  1.00  0.00     0.083 C 
HETATM    5  C14 UNL     1      24.783   2.553  51.487  1.00  0.00     0.034 A 
HETATM    6  C15 UNL     1      25.972   1.826  51.523  1.00  0.00     0.095 A 
HETATM    7  O4  UNL     1      26.853   2.412  50.791  1.00  0.00    -0.304 OA
HETATM    8  C16 UNL     1      26.317   3.508  50.246  1.00  0.00     0.142 A 
HETATM    9  C17 UNL     1      25.007   3.617  50.676  1.00  0.00     0.067 A 
HETATM   10  C18 UNL     1      24.162   4.703  50.261  1.00  0.00     0.197 A 
HETATM   11  O5  UNL     1      22.993   4.935  50.554  1.00  0.00    -0.286 OA
HETATM   12  C19 UNL     1      24.700   5.703  49.359  1.00  0.00     0.029 A 
HETATM   13  C20 UNL     1      23.943   6.787  48.880  1.00  0.00     0.016 A 
HETATM   14  C21 UNL     1      24.502   7.699  48.014  1.00  0.00     0.001 A 
HETATM   15  C22 UNL     1      25.792   7.579  47.602  1.00  0.00     0.001 A 
HETATM   16  C23 UNL     1      26.550   6.537  48.050  1.00  0.00     0.016 A 
HETATM   17  C24 UNL     1      26.022   5.605  48.915  1.00  0.00     0.031 A 
HETATM   18  C25 UNL     1      26.871   4.498  49.351  1.00  0.00     0.217 A 
HETATM   19  O6  UNL     1      28.041   4.460  48.928  1.00  0.00    -0.284 OA
ENDROOT
BRANCH   1  20
HETATM   20  C4  UNL     1      26.796  -0.334  52.124  1.00  0.00     0.010 C 
BRANCH  20  21
HETATM   21  C3  UNL     1      27.651  -1.265  52.822  1.00  0.00    -0.004 C 
BRANCH  21  22
HETATM   22  C2  UNL     1      28.865  -1.567  53.195  1.00  0.00    -0.031 C 
HETATM   23  C1  UNL     1      29.953  -0.624  53.609  1.00  0.00     0.036 C 
ENDBRANCH  21  22
ENDBRANCH  20  21
ENDBRANCH   1  20
BRANCH   3  24
HETATM   24  O1  UNL     1      22.520   0.447  53.629  1.00  0.00    -0.354 OA
BRANCH  24  25
HETATM   25  C8  UNL     1      22.570  -0.910  54.081  1.00  0.00     0.175 C 
BRANCH  25  26
HETATM   26  C9  UNL     1      21.192  -1.530  54.204  1.00  0.00     0.022 C 
HETATM   27  C10 UNL     1      20.233  -0.518  53.601  1.00  0.00     0.007 C 
ENDBRANCH  25  26
ENDBRANCH  24  25
ENDBRANCH   3  24
BRANCH   4  28
HETATM   28  C12 UNL     1      22.271   2.577  52.119  1.00  0.00     0.296 C 
HETATM   29  O2  UNL     1      21.199   3.166  52.356  1.00  0.00    -0.259 OA
BRANCH  28  30
HETATM   30  O3  UNL     1      21.403   2.258  51.137  1.00  0.00    -0.322 OA
HETATM   31  C13 UNL     1      21.413   1.313  50.137  1.00  0.00     0.213 C 
ENDBRANCH  28  30
ENDBRANCH   4  28
TORSDOF 8
ENDMDL
MODEL 3
REMARK VINA RESULT:      -7.9      1.988      8.431
REMARK  8 active torsions:
REMARK  status: ('A' for Active; 'I' for Inactive)
REMARK    1  A    between atoms: C2_2  and  C3_3 
REMARK    2  A    between atoms: C3_3  and  C4_4 
REMARK    3  A    between atoms: C4_4  and  C5_5 
REMARK    4  A    between atoms: C7_7  and  O1_8 
REMARK    5  A    between atoms: O1_8  and  C8_9 
REMARK    6  A    between atoms: C8_9  and  C9_10 
REMARK    7  A    between atoms: C11_12  and  C12_13 
REMARK    8  A    between atoms: C12_13  and  O3_15 
ROOT
HETATM    1  C5  UNL     1      21.788   2.870  51.487  1.00  0.00    -0.017 C 
HETATM    2  C6  UNL     1      21.979   1.479  51.861  1.00  0.00     0.107 C 
HETATM    3  C7  UNL     1      23.426   1.183  52.070  1.00  0.00     0.068 C 
HETATM    4  C11 UNL     1      24.347   1.954  51.451  1.00  0.00     0.083 C 
HETATM    5  C14 UNL     1      24.061   3.179  50.783  1.00  0.00     0.034 A 
HETATM    6  C15 UNL     1      22.755   3.668  50.772  1.00  0.00     0.095 A 
HETATM    7  O4  UNL     1      22.715   4.764  50.100  1.00  0.00    -0.304 OA
HETATM    8  C16 UNL     1      23.941   5.055  49.654  1.00  0.00     0.142 A 
HETATM    9  C17 UNL     1      24.808   4.062  50.074  1.00  0.00     0.067 A 
HETATM   10  C18 UNL     1      26.208   4.091  49.746  1.00  0.00     0.197 A 
HETATM   11  O5  UNL     1      27.092   3.293  50.041  1.00  0.00    -0.286 OA
HETATM   12  C19 UNL     1      26.720   5.199  48.963  1.00  0.00     0.029 A 
HETATM   13  C20 UNL     1      28.076   5.326  48.615  1.00  0.00     0.016 A 
HETATM   14  C21 UNL     1      28.509   6.407  47.882  1.00  0.00     0.001 A 
HETATM   15  C22 UNL     1      27.644   7.373  47.475  1.00  0.00     0.001 A 
HETATM   16  C23 UNL     1      26.323   7.277  47.800  1.00  0.00     0.016 A 
HETATM   17  C24 UNL     1      25.856   6.210  48.533  1.00  0.00     0.031 A 
HETATM   18  C25 UNL     1      24.434   6.163  48.869  1.00  0.00     0.217 A 
HETATM   19  O6  UNL     1      23.708   7.088  48.460  1.00  0.00    -0.284 OA
ENDROOT
BRANCH   1  20
HETATM   20  C4  UNL     1      20.677   3.400  51.918  1.00  0.00     0.010 C 
BRANCH  20  21
HETATM   21  C3  UNL     1      19.320   3.679  51.510  1.00  0.00    -0.004 C 
BRANCH  21  22
HETATM   22  C2  UNL     1      18.086   3.254  51.450  1.00  0.00    -0.031 C 
HETATM   23  C1  UNL     1      16.839   4.033  51.732  1.00  0.00     0.036 C 
ENDBRANCH  21  22
ENDBRANCH  20  21
ENDBRANCH   1  20
BRANCH   3  24
HETATM   24  O1  UNL     1      23.719   0.097  52.910  1.00  0.00    -0.354 OA
BRANCH  24  25
HETATM   25  C8  UNL     1      22.774  -0.970  53.029  1.00  0.00     0.175 C 
BRANCH  25  26
HETATM   26  C9  UNL     1      22.255  -1.129  54.446  1.00  0.00     0.022 C 
HETATM   27  C10 UNL     1      20.748  -1.272  54.315  1.00  0.00     0.007 C 
ENDBRANCH  25  26
ENDBRANCH  24  25
ENDBRANCH   3  24
BRANCH   4  28
HETATM   28  C12 UNL     1      25.684   1.434  51.798  1.00  0.00     0.296 C 
HETATM   29  O2  UNL     1      26.731   0.760  51.768  1.00  0.00    -0.259 OA
BRANCH  28  30
HETATM   30  O3  UNL     1      26.464   1.844  52.819  1.00  0.00    -0.322 OA
HETATM   31  C13 UNL     1      27.158   1.179  53.804  1.00  0.00     0.213 C 
ENDBRANCH  28  30
ENDBRANCH   4  28
TORSDOF 8
ENDMDL
MODEL 4
REMARK VINA RESULT:      -7.8      1.267      1.616
REMARK  8 active torsions:
REMARK  status: ('A' for Active; 'I' for Inactive)
REMARK    1  A    between atoms: C2_2  and  C3_3 
REMARK    2  A    between atoms: C3_3  and  C4_4 
REMARK    3  A    between atoms: C4_4  and  C5_5 
REMARK    4  A    between atoms: C7_7  and  O1_8 
REMARK    5  A    between atoms: O1_8  and  C8_9 
REMARK    6  A    between atoms: C8_9  and  C9_10 
REMARK    7  A    between atoms: C11_12  and  C12_13 
REMARK    8  A    between atoms: C12_13  and  O3_15 
ROOT
HETATM    1  C5  UNL     1      24.752   1.896  52.339  1.00  0.00    -0.017 C 
HETATM    2  C6  UNL     1      25.243   2.452  51.088  1.00  0.00     0.107 C 
HETATM    3  C7  UNL     1      24.109   2.910  50.234  1.00  0.00     0.068 C 
HETATM    4  C11 UNL     1      22.891   2.354  50.412  1.00  0.00     0.083 C 
HETATM    5  C14 UNL     1      22.534   1.515  51.506  1.00  0.00     0.034 A 
HETATM    6  C15 UNL     1      23.472   1.250  52.504  1.00  0.00     0.095 A 
HETATM    7  O4  UNL     1      22.956   0.458  53.377  1.00  0.00    -0.304 OA
HETATM    8  C16 UNL     1      21.698   0.174  53.026  1.00  0.00     0.142 A 
HETATM    9  C17 UNL     1      21.412   0.831  51.844  1.00  0.00     0.067 A 
HETATM   10  C18 UNL     1      20.128   0.718  51.207  1.00  0.00     0.197 A 
HETATM   11  O5  UNL     1      19.728   1.234  50.167  1.00  0.00    -0.286 OA
HETATM   12  C19 UNL     1      19.106  -0.099  51.831  1.00  0.00     0.029 A 
HETATM   13  C20 UNL     1      17.815  -0.249  51.296  1.00  0.00     0.016 A 
HETATM   14  C21 UNL     1      16.880  -1.027  51.940  1.00  0.00     0.001 A 
HETATM   15  C22 UNL     1      17.177  -1.668  53.102  1.00  0.00     0.001 A 
HETATM   16  C23 UNL     1      18.422  -1.539  53.644  1.00  0.00     0.016 A 
HETATM   17  C24 UNL     1      19.380  -0.768  53.028  1.00  0.00     0.031 A 
HETATM   18  C25 UNL     1      20.693  -0.649  53.660  1.00  0.00     0.217 A 
HETATM   19  O6  UNL     1      20.885  -1.266  54.723  1.00  0.00    -0.284 OA
ENDROOT
BRANCH   1  20
HETATM   20  C4  UNL     1      25.537   2.089  53.363  1.00  0.00     0.010 C 
BRANCH  20  21
HETATM   21  C3  UNL     1      26.678   1.522  54.041  1.00  0.00    -0.004 C 
BRANCH  21  22
HETATM   22  C2  UNL     1      27.470   0.492  54.174  1.00  0.00    -0.031 C 
HETATM   23  C1  UNL     1      27.791  -0.551  53.149  1.00  0.00     0.036 C 
ENDBRANCH  21  22
ENDBRANCH  20  21
ENDBRANCH   1  20
BRANCH   3  24
HETATM   24  O1  UNL     1      24.411   3.903  49.289  1.00  0.00    -0.354 OA
BRANCH  24  25
HETATM   25  C8  UNL     1      24.387   5.277  49.686  1.00  0.00     0.175 C 
BRANCH  25  26
HETATM   26  C9  UNL     1      25.777   5.840  49.910  1.00  0.00     0.022 C 
HETATM   27  C10 UNL     1      26.657   5.184  48.858  1.00  0.00     0.007 C 
ENDBRANCH  25  26
ENDBRANCH  24  25
ENDBRANCH   3  24
BRANCH   4  28
HETATM   28  C12 UNL     1      21.967   2.957  49.431  1.00  0.00     0.296 C 
HETATM   29  O2  UNL     1      21.331   3.157  48.378  1.00  0.00    -0.259 OA
BRANCH  28  30
HETATM   30  O3  UNL     1      21.197   4.048  49.620  1.00  0.00    -0.322 OA
HETATM   31  C13 UNL     1      20.568   4.582  50.720  1.00  0.00     0.213 C 
ENDBRANCH  28  30
ENDBRANCH   4  28
TORSDOF 8
ENDMDL
MODEL 5
REMARK VINA RESULT:      -7.8      2.357      7.682
REMARK  8 active torsions:
REMARK  status: ('A' for Active; 'I' for Inactive)
REMARK    1  A    between atoms: C2_2  and  C3_3 
REMARK    2  A    between atoms: C3_3  and  C4_4 
REMARK    3  A    between atoms: C4_4  and  C5_5 
REMARK    4  A    between atoms: C7_7  and  O1_8 
REMARK    5  A    between atoms: O1_8  and  C8_9 
REMARK    6  A    between atoms: C8_9  and  C9_10 
REMARK    7  A    between atoms: C11_12  and  C12_13 
REMARK    8  A    between atoms: C12_13  and  O3_15 
ROOT
HETATM    1  C5  UNL     1      25.654   2.135  51.547  1.00  0.00    -0.017 C 
HETATM    2  C6  UNL     1      24.503   2.218  52.431  1.00  0.00     0.107 C 
HETATM    3  C7  UNL     1      23.478   3.150  51.878  1.00  0.00     0.068 C 
HETATM    4  C11 UNL     1      23.871   4.118  51.022  1.00  0.00     0.083 C 
HETATM    5  C14 UNL     1      25.159   4.194  50.418  1.00  0.00     0.034 A 
HETATM    6  C15 UNL     1      26.100   3.198  50.679  1.00  0.00     0.095 A 
HETATM    7  O4  UNL     1      27.193   3.470  50.058  1.00  0.00    -0.304 OA
HETATM    8  C16 UNL     1      27.042   4.607  49.373  1.00  0.00     0.142 A 
HETATM    9  C17 UNL     1      25.761   5.083  49.589  1.00  0.00     0.067 A 
HETATM   10  C18 UNL     1      25.295   6.302  48.986  1.00  0.00     0.197 A 
HETATM   11  O5  UNL     1      24.199   6.847  49.081  1.00  0.00    -0.286 OA
HETATM   12  C19 UNL     1      26.192   7.042  48.120  1.00  0.00     0.029 A 
HETATM   13  C20 UNL     1      25.817   8.230  47.467  1.00  0.00     0.016 A 
HETATM   14  C21 UNL     1      26.706   8.884  46.645  1.00  0.00     0.001 A 
HETATM   15  C22 UNL     1      27.963   8.404  46.445  1.00  0.00     0.001 A 
HETATM   16  C23 UNL     1      28.352   7.253  47.064  1.00  0.00     0.016 A 
HETATM   17  C24 UNL     1      27.488   6.573  47.892  1.00  0.00     0.031 A 
HETATM   18  C25 UNL     1      27.951   5.335  48.518  1.00  0.00     0.217 A 
HETATM   19  O6  UNL     1      29.114   4.963  48.282  1.00  0.00    -0.284 OA
ENDROOT
BRANCH   1  20
HETATM   20  C4  UNL     1      26.239   0.969  51.526  1.00  0.00     0.010 C 
BRANCH  20  21
HETATM   21  C3  UNL     1      26.744  -0.062  52.402  1.00  0.00    -0.004 C 
BRANCH  21  22
HETATM   22  C2  UNL     1      26.629  -0.677  53.548  1.00  0.00    -0.031 C 
HETATM   23  C1  UNL     1      26.246  -0.082  54.868  1.00  0.00     0.036 C 
ENDBRANCH  21  22
ENDBRANCH  20  21
ENDBRANCH   1  20
BRANCH   3  24
HETATM   24  O1  UNL     1      22.158   2.942  52.307  1.00  0.00    -0.354 OA
BRANCH  24  25
HETATM   25  C8  UNL     1      21.739   1.621  52.663  1.00  0.00     0.175 C 
BRANCH  25  26
HETATM   26  C9  UNL     1      20.641   1.098  51.758  1.00  0.00     0.022 C 
HETATM   27  C10 UNL     1      21.351   0.540  50.535  1.00  0.00     0.007 C 
ENDBRANCH  25  26
ENDBRANCH  24  25
ENDBRANCH   3  24
BRANCH   4  28
HETATM   28  C12 UNL     1      22.681   4.910  50.653  1.00  0.00     0.296 C 
HETATM   29  O2  UNL     1      21.760   5.748  50.704  1.00  0.00    -0.259 OA
BRANCH  28  30
HETATM   30  O3  UNL     1      21.950   4.783  49.527  1.00  0.00    -0.322 OA
HETATM   31  C13 UNL     1      21.674   3.724  48.693  1.00  0.00     0.213 C 
ENDBRANCH  28  30
ENDBRANCH   4  28
TORSDOF 8
ENDMDL
MODEL 6
REMARK VINA RESULT:      -7.5      1.616      4.735
REMARK  8 active torsions:
REMARK  status: ('A' for Active; 'I' for Inactive)
REMARK    1  A    between atoms: C2_2  and  C3_3 
REMARK    2  A    between atoms: C3_3  and  C4_4 
REMARK    3  A    between atoms: C4_4  and  C5_5 
REMARK    4  A    between atoms: C7_7  and  O1_8 
REMARK    5  A    between atoms: O1_8  and  C8_9 
REMARK    6  A    between atoms: C8_9  and  C9_10 
REMARK    7  A    between atoms: C11_12  and  C12_13 
REMARK    8  A    between atoms: C12_13  and  O3_15 
ROOT
HETATM    1  C5  UNL     1      23.091   3.513  51.676  1.00  0.00    -0.017 C 
HETATM    2  C6  UNL     1      24.279   3.535  52.513  1.00  0.00     0.107 C 
HETATM    3  C7  UNL     1      24.549   2.183  53.081  1.00  0.00     0.068 C 
HETATM    4  C11 UNL     1      23.525   1.311  53.209  1.00  0.00     0.083 C 
HETATM    5  C14 UNL     1      22.232   1.490  52.639  1.00  0.00     0.034 A 
HETATM    6  C15 UNL     1      21.975   2.616  51.858  1.00  0.00     0.095 A 
HETATM    7  O4  UNL     1      20.750   2.593  51.465  1.00  0.00    -0.304 OA
HETATM    8  C16 UNL     1      20.156   1.492  51.935  1.00  0.00     0.142 A 
HETATM    9  C17 UNL     1      21.076   0.781  52.683  1.00  0.00     0.067 A 
HETATM   10  C18 UNL     1      20.733  -0.457  53.328  1.00  0.00     0.197 A 
HETATM   11  O5  UNL     1      21.431  -1.195  54.017  1.00  0.00    -0.286 OA
HETATM   12  C19 UNL     1      19.387  -0.975  53.177  1.00  0.00     0.029 A 
HETATM   13  C20 UNL     1      18.966  -2.188  53.749  1.00  0.00     0.016 A 
HETATM   14  C21 UNL     1      17.679  -2.638  53.562  1.00  0.00     0.001 A 
HETATM   15  C22 UNL     1      16.785  -1.926  52.825  1.00  0.00     0.001 A 
HETATM   16  C23 UNL     1      17.166  -0.746  52.257  1.00  0.00     0.016 A 
HETATM   17  C24 UNL     1      18.446  -0.268  52.423  1.00  0.00     0.031 A 
HETATM   18  C25 UNL     1      18.808   0.994  51.779  1.00  0.00     0.217 A 
HETATM   19  O6  UNL     1      17.933   1.584  51.120  1.00  0.00    -0.284 OA
ENDROOT
BRANCH   1  20
HETATM   20  C4  UNL     1      23.127   4.333  50.661  1.00  0.00     0.010 C 
BRANCH  20  21
HETATM   21  C3  UNL     1      23.885   4.628  49.468  1.00  0.00    -0.004 C 
BRANCH  21  22
HETATM   22  C2  UNL     1      24.886   5.280  48.942  1.00  0.00    -0.031 C 
HETATM   23  C1  UNL     1      25.964   6.032  49.662  1.00  0.00     0.036 C 
ENDBRANCH  21  22
ENDBRANCH  20  21
ENDBRANCH   1  20
BRANCH   3  24
HETATM   24  O1  UNL     1      25.879   1.923  53.449  1.00  0.00    -0.354 OA
BRANCH  24  25
HETATM   25  C8  UNL     1      26.924   2.141  52.497  1.00  0.00     0.175 C 
BRANCH  25  26
HETATM   26  C9  UNL     1      28.269   2.373  53.157  1.00  0.00     0.022 C 
HETATM   27  C10 UNL     1      28.735   1.005  53.628  1.00  0.00     0.007 C 
ENDBRANCH  25  26
ENDBRANCH  24  25
ENDBRANCH   3  24
BRANCH   4  28
HETATM   28  C12 UNL     1      24.053   0.075  53.818  1.00  0.00     0.296 C 
HETATM   29  O2  UNL     1      24.363  -0.783  54.668  1.00  0.00    -0.259 OA
BRANCH  28  30
HETATM   30  O3  UNL     1      24.648  -0.948  53.170  1.00  0.00    -0.322 OA
HETATM   31  C13 UNL     1      25.952  -1.380  53.081  1.00  0.00     0.213 C 
ENDBRANCH  28  30
ENDBRANCH   4  28
TORSDOF 8
ENDMDL
MODEL 7
REMARK VINA RESULT:      -7.3      3.204      8.269
REMARK  8 active torsions:
REMARK  status: ('A' for Active; 'I' for Inactive)
REMARK    1  A    between atoms: C2_2  and  C3_3 
REMARK    2  A    between atoms: C3_3  and  C4_4 
REMARK    3  A    between atoms: C4_4  and  C5_5 
REMARK    4  A    between atoms: C7_7  and  O1_8 
REMARK    5  A    between atoms: O1_8  and  C8_9 
REMARK    6  A    between atoms: C8_9  and  C9_10 
REMARK    7  A    between atoms: C11_12  and  C12_13 
REMARK    8  A    between atoms: C12_13  and  O3_15 
ROOT
HETATM    1  C5  UNL     1      25.426   2.845  50.955  1.00  0.00    -0.017 C 
HETATM    2  C6  UNL     1      24.163   3.109  51.625  1.00  0.00     0.107 C 
HETATM    3  C7  UNL     1      23.369   4.125  50.875  1.00  0.00     0.068 C 
HETATM    4  C11 UNL     1      24.017   4.994  50.069  1.00  0.00     0.083 C 
HETATM    5  C14 UNL     1      25.386   4.886  49.693  1.00  0.00     0.034 A 
HETATM    6  C15 UNL     1      26.139   3.802  50.143  1.00  0.00     0.095 A 
HETATM    7  O4  UNL     1      27.346   3.911  49.710  1.00  0.00    -0.304 OA
HETATM    8  C16 UNL     1      27.453   5.020  48.974  1.00  0.00     0.142 A 
HETATM    9  C17 UNL     1      26.224   5.654  48.952  1.00  0.00     0.067 A 
HETATM   10  C18 UNL     1      26.020   6.886  48.239  1.00  0.00     0.197 A 
HETATM   11  O5  UNL     1      25.000   7.560  48.128  1.00  0.00    -0.286 OA
HETATM   12  C19 UNL     1      27.133   7.469  47.517  1.00  0.00     0.029 A 
HETATM   13  C20 UNL     1      27.023   8.657  46.772  1.00  0.00     0.016 A 
HETATM   14  C21 UNL     1      28.111   9.158  46.094  1.00  0.00     0.001 A 
HETATM   15  C22 UNL     1      29.314   8.524  46.127  1.00  0.00     0.001 A 
HETATM   16  C23 UNL     1      29.449   7.370  46.841  1.00  0.00     0.016 A 
HETATM   17  C24 UNL     1      28.381   6.840  47.529  1.00  0.00     0.031 A 
HETATM   18  C25 UNL     1      28.575   5.591  48.264  1.00  0.00     0.217 A 
HETATM   19  O6  UNL     1      29.706   5.073  48.244  1.00  0.00    -0.284 OA
ENDROOT
BRANCH   1  20
HETATM   20  C4  UNL     1      25.857   1.620  51.072  1.00  0.00     0.010 C 
BRANCH  20  21
HETATM   21  C3  UNL     1      26.293   0.660  52.059  1.00  0.00    -0.004 C 
BRANCH  21  22
HETATM   22  C2  UNL     1      26.927  -0.457  52.293  1.00  0.00    -0.031 C 
HETATM   23  C1  UNL     1      27.915  -0.734  53.384  1.00  0.00     0.036 C 
ENDBRANCH  21  22
ENDBRANCH  20  21
ENDBRANCH   1  20
BRANCH   3  24
HETATM   24  O1  UNL     1      21.980   4.096  51.079  1.00  0.00    -0.354 OA
BRANCH  24  25
HETATM   25  C8  UNL     1      21.262   2.885  50.826  1.00  0.00     0.175 C 
BRANCH  25  26
HETATM   26  C9  UNL     1      21.433   2.397  49.400  1.00  0.00     0.022 C 
HETATM   27  C10 UNL     1      21.415   0.879  49.484  1.00  0.00     0.007 C 
ENDBRANCH  25  26
ENDBRANCH  24  25
ENDBRANCH   3  24
BRANCH   4  28
HETATM   28  C12 UNL     1      23.012   5.899  49.477  1.00  0.00     0.296 C 
HETATM   29  O2  UNL     1      22.241   6.866  49.323  1.00  0.00    -0.259 OA
BRANCH  28  30
HETATM   30  O3  UNL     1      22.378   5.733  48.298  1.00  0.00    -0.322 OA
HETATM   31  C13 UNL     1      21.065   5.861  47.905  1.00  0.00     0.213 C 
ENDBRANCH  28  30
ENDBRANCH   4  28
TORSDOF 8
ENDMDL
MODEL 8
REMARK VINA RESULT:      -7.2      2.460      6.751
REMARK  8 active torsions:
REMARK  status: ('A' for Active; 'I' for Inactive)
REMARK    1  A    between atoms: C2_2  and  C3_3 
REMARK    2  A    between atoms: C3_3  and  C4_4 
REMARK    3  A    between atoms: C4_4  and  C5_5 
REMARK    4  A    between atoms: C7_7  and  O1_8 
REMARK    5  A    between atoms: O1_8  and  C8_9 
REMARK    6  A    between atoms: C8_9  and  C9_10 
REMARK    7  A    between atoms: C11_12  and  C12_13 
REMARK    8  A    between atoms: C12_13  and  O3_15 
ROOT
HETATM    1  C5  UNL     1      25.009   2.099  52.151  1.00  0.00    -0.017 C 
HETATM    2  C6  UNL     1      24.196   1.347  53.092  1.00  0.00     0.107 C 
HETATM    3  C7  UNL     1      22.745   1.611  52.865  1.00  0.00     0.068 C 
HETATM    4  C11 UNL     1      22.377   2.767  52.271  1.00  0.00     0.083 C 
HETATM    5  C14 UNL     1      23.273   3.672  51.634  1.00  0.00     0.034 A 
HETATM    6  C15 UNL     1      24.631   3.364  51.568  1.00  0.00     0.095 A 
HETATM    7  O4  UNL     1      25.258   4.320  50.977  1.00  0.00    -0.304 OA
HETATM    8  C16 UNL     1      24.387   5.269  50.625  1.00  0.00     0.142 A 
HETATM    9  C17 UNL     1      23.124   4.880  51.034  1.00  0.00     0.067 A 
HETATM   10  C18 UNL     1      21.966   5.701  50.800  1.00  0.00     0.197 A 
HETATM   11  O5  UNL     1      20.794   5.495  51.100  1.00  0.00    -0.286 OA
HETATM   12  C19 UNL     1      22.132   6.964  50.108  1.00  0.00     0.029 A 
HETATM   13  C20 UNL     1      21.057   7.821  49.814  1.00  0.00     0.016 A 
HETATM   14  C21 UNL     1      21.272   9.002  49.141  1.00  0.00     0.001 A 
HETATM   15  C22 UNL     1      22.520   9.372  48.748  1.00  0.00     0.001 A 
HETATM   16  C23 UNL     1      23.581   8.559  49.019  1.00  0.00     0.016 A 
HETATM   17  C24 UNL     1      23.402   7.369  49.688  1.00  0.00     0.031 A 
HETATM   18  C25 UNL     1      24.571   6.528  49.939  1.00  0.00     0.217 A 
HETATM   19  O6  UNL     1      25.678   6.936  49.546  1.00  0.00    -0.284 OA
ENDROOT
BRANCH   1  20
HETATM   20  C4  UNL     1      26.112   1.503  51.790  1.00  0.00     0.010 C 
BRANCH  20  21
HETATM   21  C3  UNL     1      27.167   0.661  52.304  1.00  0.00    -0.004 C 
BRANCH  21  22
HETATM   22  C2  UNL     1      27.511  -0.527  52.723  1.00  0.00    -0.031 C 
HETATM   23  C1  UNL     1      26.770  -1.814  52.528  1.00  0.00     0.036 C 
ENDBRANCH  21  22
ENDBRANCH  20  21
ENDBRANCH   1  20
BRANCH   3  24
HETATM   24  O1  UNL     1      21.860   0.612  53.301  1.00  0.00    -0.354 OA
BRANCH  24  25
HETATM   25  C8  UNL     1      22.236  -0.762  53.168  1.00  0.00     0.175 C 
BRANCH  25  26
HETATM   26  C9  UNL     1      21.543  -1.653  54.181  1.00  0.00     0.022 C 
HETATM   27  C10 UNL     1      20.056  -1.390  54.007  1.00  0.00     0.007 C 
ENDBRANCH  25  26
ENDBRANCH  24  25
ENDBRANCH   3  24
BRANCH   4  28
HETATM   28  C12 UNL     1      20.903   2.789  52.194  1.00  0.00     0.296 C 
HETATM   29  O2  UNL     1      19.710   2.987  52.493  1.00  0.00    -0.259 OA
BRANCH  28  30
HETATM   30  O3  UNL     1      20.145   2.314  51.185  1.00  0.00    -0.322 OA
HETATM   31  C13 UNL     1      19.010   1.538  51.141  1.00  0.00     0.213 C 
ENDBRANCH  28  30
ENDBRANCH   4  28
TORSDOF 8
ENDMDL
MODEL 9
REMARK VINA RESULT:      -7.0      4.996     10.030
REMARK  8 active torsions:
REMARK  status: ('A' for Active; 'I' for Inactive)
REMARK    1  A    between atoms: C2_2  and  C3_3 
REMARK    2  A    between atoms: C3_3  and  C4_4 
REMARK    3  A    between atoms: C4_4  and  C5_5 
REMARK    4  A    between atoms: C7_7  and  O1_8 
REMARK    5  A    between atoms: O1_8  and  C8_9 
REMARK    6  A    between atoms: C8_9  and  C9_10 
REMARK    7  A    between atoms: C11_12  and  C12_13 
REMARK    8  A    between atoms: C12_13  and  O3_15 
ROOT
HETATM    1  C5  UNL     1      26.078   4.516  49.565  1.00  0.00    -0.017 C 
HETATM    2  C6  UNL     1      24.887   5.295  49.863  1.00  0.00     0.107 C 
HETATM    3  C7  UNL     1      24.745   6.429  48.904  1.00  0.00     0.068 C 
HETATM    4  C11 UNL     1      25.849   6.903  48.285  1.00  0.00     0.083 C 
HETATM    5  C14 UNL     1      27.122   6.265  48.297  1.00  0.00     0.034 A 
HETATM    6  C15 UNL     1      27.275   5.046  48.957  1.00  0.00     0.095 A 
HETATM    7  O4  UNL     1      28.499   4.661  48.865  1.00  0.00    -0.304 OA
HETATM    8  C16 UNL     1      29.194   5.559  48.162  1.00  0.00     0.142 A 
HETATM    9  C17 UNL     1      28.341   6.585  47.795  1.00  0.00     0.067 A 
HETATM   10  C18 UNL     1      28.799   7.712  47.028  1.00  0.00     0.197 A 
HETATM   11  O5  UNL     1      28.170   8.688  46.631  1.00  0.00    -0.286 OA
HETATM   12  C19 UNL     1      30.190   7.764  46.623  1.00  0.00     0.029 A 
HETATM   13  C20 UNL     1      30.722   8.812  45.851  1.00  0.00     0.016 A 
HETATM   14  C21 UNL     1      32.048   8.802  45.483  1.00  0.00     0.001 A 
HETATM   15  C22 UNL     1      32.874   7.788  45.854  1.00  0.00     0.001 A 
HETATM   16  C23 UNL     1      32.384   6.757  46.601  1.00  0.00     0.016 A 
HETATM   17  C24 UNL     1      31.063   6.734  46.985  1.00  0.00     0.031 A 
HETATM   18  C25 UNL     1      30.585   5.598  47.771  1.00  0.00     0.217 A 
HETATM   19  O6  UNL     1      31.403   4.710  48.069  1.00  0.00    -0.284 OA
ENDROOT
BRANCH   1  20
HETATM   20  C4  UNL     1      25.970   3.241  49.820  1.00  0.00     0.010 C 
BRANCH  20  21
HETATM   21  C3  UNL     1      26.420   2.227  50.744  1.00  0.00    -0.004 C 
BRANCH  21  22
HETATM   22  C2  UNL     1      26.125   1.471  51.767  1.00  0.00    -0.031 C 
HETATM   23  C1  UNL     1      26.830   0.228  52.217  1.00  0.00     0.036 C 
ENDBRANCH  21  22
ENDBRANCH  20  21
ENDBRANCH   1  20
BRANCH   3  24
HETATM   24  O1  UNL     1      23.444   6.926  48.724  1.00  0.00    -0.354 OA
BRANCH  24  25
HETATM   25  C8  UNL     1      22.367   6.007  48.520  1.00  0.00     0.175 C 
BRANCH  25  26
HETATM   26  C9  UNL     1      22.482   5.263  47.204  1.00  0.00     0.022 C 
HETATM   27  C10 UNL     1      22.338   3.791  47.553  1.00  0.00     0.007 C 
ENDBRANCH  25  26
ENDBRANCH  24  25
ENDBRANCH   3  24
BRANCH   4  28
HETATM   28  C12 UNL     1      25.439   8.030  47.425  1.00  0.00     0.296 C 
HETATM   29  O2  UNL     1      25.173   8.703  46.410  1.00  0.00    -0.259 OA
BRANCH  28  30
HETATM   30  O3  UNL     1      25.056   9.256  47.836  1.00  0.00    -0.322 OA
HETATM   31  C13 UNL     1      25.746  10.389  48.200  1.00  0.00     0.213 C 
ENDBRANCH  28  30
ENDBRANCH   4  28
TORSDOF 8
ENDMDL
