MODEL 1
REMARK VINA RESULT:      -9.3      0.000      0.000
REMARK  3 active torsions:
REMARK  status: ('A' for Active; 'I' for Inactive)
REMARK    1  A    between atoms: C4_5  and  N1_6 
REMARK    2  A    between atoms: N1_6  and  C5_7 
REMARK    3  A    between atoms: C6_10  and  C7_11 
ROOT
HETATM    1  C5  UNL     1      23.085   0.706  52.540  1.00  0.00     0.161 A 
HETATM    2  N2  UNL     1      23.286  -0.248  53.494  1.00  0.00    -0.131 NA
HETATM    3  N3  UNL     1      24.530  -0.569  53.869  1.00  0.00    -0.147 NA
HETATM    4  C6  UNL     1      25.604   0.036  53.318  1.00  0.00     0.099 A 
HETATM    5  C12 UNL     1      25.424   1.010  52.347  1.00  0.00     0.009 A 
HETATM    6  C13 UNL     1      26.531   1.637  51.774  1.00  0.00     0.015 A 
HETATM    7  C14 UNL     1      26.412   2.611  50.803  1.00  0.00     0.001 A 
HETATM    8  C15 UNL     1      25.127   2.950  50.408  1.00  0.00     0.001 A 
HETATM    9  C16 UNL     1      24.015   2.330  50.973  1.00  0.00     0.016 A 
HETATM   10  C17 UNL     1      24.135   1.365  51.935  1.00  0.00     0.024 A 
ENDROOT
BRANCH   1  11
HETATM   11  N1  UNL     1      21.800   1.071  52.119  1.00  0.00    -0.339 N 
HETATM   12  H3  UNL     1      21.897   2.016  51.664  1.00  0.00     0.167 HD
BRANCH  11  13
HETATM   13  C4  UNL     1      20.534   0.451  52.193  1.00  0.00     0.033 A 
HETATM   14  C3  UNL     1      20.136  -0.275  53.324  1.00  0.00     0.031 A 
HETATM   15  C2  UNL     1      18.886  -0.824  53.267  1.00  0.00     0.026 A 
HETATM   16  C1  UNL     1      18.011  -0.719  52.208  1.00  0.00     0.034 A 
HETATM   17 CL1  UNL     1      16.429  -1.456  52.223  1.00  0.00    -0.084 Cl
HETATM   18  C19 UNL     1      18.439   0.010  51.098  1.00  0.00     0.026 A 
HETATM   19  C18 UNL     1      19.691   0.590  51.092  1.00  0.00     0.031 A 
ENDBRANCH  11  13
ENDBRANCH   1  11
BRANCH   4  20
HETATM   20  C7  UNL     1      26.942  -0.356  53.769  1.00  0.00     0.008 C 
HETATM   21  C8  UNL     1      27.363   0.124  54.902  1.00  0.00     0.094 C 
HETATM   22  N4  UNL     1      28.370   0.899  54.888  1.00  0.00    -0.258 NA
HETATM   23  C9  UNL     1      29.448   0.535  54.013  1.00  0.00     0.113 C 
HETATM   24  C10 UNL     1      29.311  -0.504  53.172  1.00  0.00    -0.003 C 
HETATM   25  C11 UNL     1      28.014  -1.243  53.192  1.00  0.00     0.072 C 
ENDBRANCH   4  20
TORSDOF 3
ENDMDL
MODEL 2
REMARK VINA RESULT:      -9.2      3.056      4.534
REMARK  3 active torsions:
REMARK  status: ('A' for Active; 'I' for Inactive)
REMARK    1  A    between atoms: C4_5  and  N1_6 
REMARK    2  A    between atoms: N1_6  and  C5_7 
REMARK    3  A    between atoms: C6_10  and  C7_11 
ROOT
HETATM    1  C5  UNL     1      24.460   2.368  51.576  1.00  0.00     0.161 A 
HETATM    2  N2  UNL     1      25.807   2.494  51.403  1.00  0.00    -0.131 NA
HETATM    3  N3  UNL     1      26.643   1.642  52.008  1.00  0.00    -0.147 NA
HETATM    4  C6  UNL     1      26.179   0.649  52.797  1.00  0.00     0.099 A 
HETATM    5  C12 UNL     1      24.813   0.500  52.987  1.00  0.00     0.009 A 
HETATM    6  C13 UNL     1      24.328  -0.524  53.801  1.00  0.00     0.015 A 
HETATM    7  C14 UNL     1      22.981  -0.718  54.027  1.00  0.00     0.001 A 
HETATM    8  C15 UNL     1      22.107   0.159  53.404  1.00  0.00     0.001 A 
HETATM    9  C16 UNL     1      22.579   1.186  52.590  1.00  0.00     0.016 A 
HETATM   10  C17 UNL     1      23.915   1.376  52.366  1.00  0.00     0.024 A 
ENDROOT
BRANCH   1  11
HETATM   11  N1  UNL     1      23.551   3.238  50.961  1.00  0.00    -0.339 N 
HETATM   12  H3  UNL     1      23.168   3.852  51.726  1.00  0.00     0.167 HD
BRANCH  11  13
HETATM   13  C4  UNL     1      23.111   3.411  49.631  1.00  0.00     0.033 A 
HETATM   14  C3  UNL     1      23.112   4.670  49.015  1.00  0.00     0.031 A 
HETATM   15  C2  UNL     1      22.663   4.700  47.724  1.00  0.00     0.026 A 
HETATM   16  C1  UNL     1      22.220   3.612  47.004  1.00  0.00     0.034 A 
HETATM   17 CL1  UNL     1      21.662   3.743  45.355  1.00  0.00    -0.084 Cl
HETATM   18  C19 UNL     1      22.232   2.374  47.648  1.00  0.00     0.026 A 
HETATM   19  C18 UNL     1      22.675   2.276  48.950  1.00  0.00     0.031 A 
ENDBRANCH  11  13
ENDBRANCH   1  11
BRANCH   4  20
HETATM   20  C7  UNL     1      27.142  -0.254  53.433  1.00  0.00     0.008 C 
HETATM   21  C8  UNL     1      27.679   0.128  54.554  1.00  0.00     0.094 C 
HETATM   22  N4  UNL     1      28.933   0.335  54.579  1.00  0.00    -0.258 NA
HETATM   23  C9  UNL     1      29.753  -0.608  53.872  1.00  0.00     0.113 C 
HETATM   24  C10 UNL     1      29.182  -1.570  53.127  1.00  0.00    -0.003 C 
HETATM   25  C11 UNL     1      27.692  -1.609  53.072  1.00  0.00     0.072 C 
ENDBRANCH   4  20
TORSDOF 3
ENDMDL
MODEL 3
REMARK VINA RESULT:      -9.1      3.979      6.191
REMARK  3 active torsions:
REMARK  status: ('A' for Active; 'I' for Inactive)
REMARK    1  A    between atoms: C4_5  and  N1_6 
REMARK    2  A    between atoms: N1_6  and  C5_7 
REMARK    3  A    between atoms: C6_10  and  C7_11 
ROOT
HETATM    1  C5  UNL     1      25.465   2.874  51.065  1.00  0.00     0.161 A 
HETATM    2  N2  UNL     1      26.825   2.796  51.136  1.00  0.00    -0.131 NA
HETATM    3  N3  UNL     1      27.405   1.809  51.829  1.00  0.00    -0.147 NA
HETATM    4  C6  UNL     1      26.667   0.877  52.469  1.00  0.00     0.099 A 
HETATM    5  C12 UNL     1      25.282   0.935  52.411  1.00  0.00     0.009 A 
HETATM    6  C13 UNL     1      24.515  -0.025  53.071  1.00  0.00     0.015 A 
HETATM    7  C14 UNL     1      23.135  -0.016  53.048  1.00  0.00     0.001 A 
HETATM    8  C15 UNL     1      22.525   1.002  52.333  1.00  0.00     0.001 A 
HETATM    9  C16 UNL     1      23.281   1.967  51.670  1.00  0.00     0.016 A 
HETATM   10  C17 UNL     1      24.649   1.956  51.693  1.00  0.00     0.024 A 
ENDROOT
BRANCH   1  11
HETATM   11  N1  UNL     1      24.819   3.891  50.351  1.00  0.00    -0.339 N 
HETATM   12  H3  UNL     1      23.922   3.472  49.992  1.00  0.00     0.167 HD
BRANCH  11  13
HETATM   13  C4  UNL     1      25.134   5.236  50.064  1.00  0.00     0.033 A 
HETATM   14  C3  UNL     1      26.046   5.579  49.057  1.00  0.00     0.031 A 
HETATM   15  C2  UNL     1      26.261   6.917  48.881  1.00  0.00     0.026 A 
HETATM   16  C1  UNL     1      25.663   7.927  49.602  1.00  0.00     0.034 A 
HETATM   17 CL1  UNL     1      25.999   9.614  49.308  1.00  0.00    -0.084 Cl
HETATM   18  C19 UNL     1      24.761   7.550  50.598  1.00  0.00     0.026 A 
HETATM   19  C18 UNL     1      24.500   6.216  50.826  1.00  0.00     0.031 A 
ENDBRANCH  11  13
ENDBRANCH   1  11
BRANCH   4  20
HETATM   20  C7  UNL     1      27.357  -0.180  53.212  1.00  0.00     0.008 C 
HETATM   21  C8  UNL     1      27.863   0.126  54.371  1.00  0.00     0.094 C 
HETATM   22  N4  UNL     1      29.125   0.067  54.510  1.00  0.00    -0.258 NA
HETATM   23  C9  UNL     1      29.785  -1.054  53.903  1.00  0.00     0.113 C 
HETATM   24  C10 UNL     1      29.093  -1.904  53.127  1.00  0.00    -0.003 C 
HETATM   25  C11 UNL     1      27.638  -1.633  52.932  1.00  0.00     0.072 C 
ENDBRANCH   4  20
TORSDOF 3
ENDMDL
MODEL 4
REMARK VINA RESULT:      -9.0      3.530      7.978
REMARK  3 active torsions:
REMARK  status: ('A' for Active; 'I' for Inactive)
REMARK    1  A    between atoms: C4_5  and  N1_6 
REMARK    2  A    between atoms: N1_6  and  C5_7 
REMARK    3  A    between atoms: C6_10  and  C7_11 
ROOT
HETATM    1  C5  UNL     1      23.422   0.281  53.237  1.00  0.00     0.161 A 
HETATM    2  N2  UNL     1      23.729   1.370  52.476  1.00  0.00    -0.131 NA
HETATM    3  N3  UNL     1      22.761   2.032  51.830  1.00  0.00    -0.147 NA
HETATM    4  C6  UNL     1      21.471   1.641  51.915  1.00  0.00     0.099 A 
HETATM    5  C12 UNL     1      21.134   0.536  52.684  1.00  0.00     0.009 A 
HETATM    6  C13 UNL     1      19.803   0.128  52.775  1.00  0.00     0.015 A 
HETATM    7  C14 UNL     1      19.411  -0.963  53.523  1.00  0.00     0.001 A 
HETATM    8  C15 UNL     1      20.407  -1.654  54.195  1.00  0.00     0.001 A 
HETATM    9  C16 UNL     1      21.739  -1.256  54.112  1.00  0.00     0.016 A 
HETATM   10  C17 UNL     1      22.126  -0.174  53.370  1.00  0.00     0.024 A 
ENDROOT
BRANCH   1  11
HETATM   11  N1  UNL     1      24.405  -0.438  53.928  1.00  0.00    -0.339 N 
HETATM   12  H3  UNL     1      23.896  -1.012  54.650  1.00  0.00     0.167 HD
BRANCH  11  13
HETATM   13  C4  UNL     1      25.810  -0.516  53.829  1.00  0.00     0.033 A 
HETATM   14  C3  UNL     1      26.435  -1.293  52.844  1.00  0.00     0.031 A 
HETATM   15  C2  UNL     1      27.802  -1.281  52.857  1.00  0.00     0.026 A 
HETATM   16  C1  UNL     1      28.590  -0.580  53.744  1.00  0.00     0.034 A 
HETATM   17 CL1  UNL     1      30.333  -0.624  53.686  1.00  0.00    -0.084 Cl
HETATM   18  C19 UNL     1      27.935   0.182  54.712  1.00  0.00     0.026 A 
HETATM   19  C18 UNL     1      26.557   0.213  54.752  1.00  0.00     0.031 A 
ENDBRANCH  11  13
ENDBRANCH   1  11
BRANCH   4  20
HETATM   20  C7  UNL     1      20.454   2.404  51.187  1.00  0.00     0.008 C 
HETATM   21  C8  UNL     1      20.019   3.503  51.729  1.00  0.00     0.094 C 
HETATM   22  N4  UNL     1      18.797   3.560  52.072  1.00  0.00    -0.258 NA
HETATM   23  C9  UNL     1      17.847   2.986  51.161  1.00  0.00     0.113 C 
HETATM   24  C10 UNL     1      18.274   2.316  50.078  1.00  0.00    -0.003 C 
HETATM   25  C11 UNL     1      19.748   2.202  49.872  1.00  0.00     0.072 C 
ENDBRANCH   4  20
TORSDOF 3
ENDMDL
MODEL 5
REMARK VINA RESULT:      -8.4      2.260      3.484
REMARK  3 active torsions:
REMARK  status: ('A' for Active; 'I' for Inactive)
REMARK    1  A    between atoms: C4_5  and  N1_6 
REMARK    2  A    between atoms: N1_6  and  C5_7 
REMARK    3  A    between atoms: C6_10  and  C7_11 
ROOT
HETATM    1  C5  UNL     1      22.200   0.760  51.593  1.00  0.00     0.161 A 
HETATM    2  N2  UNL     1      23.293   1.405  51.094  1.00  0.00    -0.131 NA
HETATM    3  N3  UNL     1      24.468   1.321  51.728  1.00  0.00    -0.147 NA
HETATM    4  C6  UNL     1      24.599   0.606  52.865  1.00  0.00     0.099 A 
HETATM    5  C12 UNL     1      23.502  -0.059  53.393  1.00  0.00     0.009 A 
HETATM    6  C13 UNL     1      23.632  -0.799  54.568  1.00  0.00     0.015 A 
HETATM    7  C14 UNL     1      22.575  -1.479  55.137  1.00  0.00     0.001 A 
HETATM    8  C15 UNL     1      21.353  -1.399  54.488  1.00  0.00     0.001 A 
HETATM    9  C16 UNL     1      21.211  -0.662  53.314  1.00  0.00     0.016 A 
HETATM   10  C17 UNL     1      22.261   0.011  52.750  1.00  0.00     0.024 A 
ENDROOT
BRANCH   1  11
HETATM   11  N1  UNL     1      20.952   0.822  50.960  1.00  0.00    -0.339 N 
HETATM   12  H3  UNL     1      20.964   0.080  50.213  1.00  0.00     0.167 HD
BRANCH  11  13
HETATM   13  C4  UNL     1      19.804   1.624  51.139  1.00  0.00     0.033 A 
HETATM   14  C3  UNL     1      18.519   1.068  51.181  1.00  0.00     0.031 A 
HETATM   15  C2  UNL     1      17.494   1.955  51.360  1.00  0.00     0.026 A 
HETATM   16  C1  UNL     1      17.628   3.319  51.497  1.00  0.00     0.034 A 
HETATM   17 CL1  UNL     1      16.259   4.378  51.722  1.00  0.00    -0.084 Cl
HETATM   18  C19 UNL     1      18.922   3.839  51.449  1.00  0.00     0.026 A 
HETATM   19  C18 UNL     1      20.000   2.997  51.272  1.00  0.00     0.031 A 
ENDBRANCH  11  13
ENDBRANCH   1  11
BRANCH   4  20
HETATM   20  C7  UNL     1      25.911   0.550  53.516  1.00  0.00     0.008 C 
HETATM   21  C8  UNL     1      26.262   1.560  54.256  1.00  0.00     0.094 C 
HETATM   22  N4  UNL     1      27.263   2.254  53.891  1.00  0.00    -0.258 NA
HETATM   23  C9  UNL     1      28.393   1.529  53.381  1.00  0.00     0.113 C 
HETATM   24  C10 UNL     1      28.312   0.202  53.192  1.00  0.00    -0.003 C 
HETATM   25  C11 UNL     1      27.022  -0.467  53.530  1.00  0.00     0.072 C 
ENDBRANCH   4  20
TORSDOF 3
ENDMDL
MODEL 6
REMARK VINA RESULT:      -8.1      3.997      7.905
REMARK  3 active torsions:
REMARK  status: ('A' for Active; 'I' for Inactive)
REMARK    1  A    between atoms: C4_5  and  N1_6 
REMARK    2  A    between atoms: N1_6  and  C5_7 
REMARK    3  A    between atoms: C6_10  and  C7_11 
ROOT
HETATM    1  C5  UNL     1      24.695   2.446  51.906  1.00  0.00     0.161 A 
HETATM    2  N2  UNL     1      24.878   3.233  50.807  1.00  0.00    -0.131 NA
HETATM    3  N3  UNL     1      23.954   3.261  49.841  1.00  0.00    -0.147 NA
HETATM    4  C6  UNL     1      22.829   2.518  49.928  1.00  0.00     0.099 A 
HETATM    5  C12 UNL     1      22.620   1.710  51.036  1.00  0.00     0.009 A 
HETATM    6  C13 UNL     1      21.460   0.941  51.130  1.00  0.00     0.015 A 
HETATM    7  C14 UNL     1      21.201   0.119  52.208  1.00  0.00     0.001 A 
HETATM    8  C15 UNL     1      22.153   0.084  53.215  1.00  0.00     0.001 A 
HETATM    9  C16 UNL     1      23.315   0.848  53.131  1.00  0.00     0.016 A 
HETATM   10  C17 UNL     1      23.570   1.662  52.062  1.00  0.00     0.024 A 
ENDROOT
BRANCH   1  11
HETATM   11  N1  UNL     1      25.638   2.388  52.940  1.00  0.00    -0.339 N 
HETATM   12  H3  UNL     1      25.341   3.108  53.649  1.00  0.00     0.167 HD
BRANCH  11  13
HETATM   13  C4  UNL     1      26.794   1.610  53.167  1.00  0.00     0.033 A 
HETATM   14  C3  UNL     1      27.981   2.180  53.643  1.00  0.00     0.031 A 
HETATM   15  C2  UNL     1      29.025   1.316  53.821  1.00  0.00     0.026 A 
HETATM   16  C1  UNL     1      28.997  -0.039  53.572  1.00  0.00     0.034 A 
HETATM   17 CL1  UNL     1      30.382  -1.068  53.828  1.00  0.00    -0.084 Cl
HETATM   18  C19 UNL     1      27.798  -0.573  53.098  1.00  0.00     0.026 A 
HETATM   19  C18 UNL     1      26.706   0.246  52.898  1.00  0.00     0.031 A 
ENDBRANCH  11  13
ENDBRANCH   1  11
BRANCH   4  20
HETATM   20  C7  UNL     1      21.852   2.589  48.838  1.00  0.00     0.008 C 
HETATM   21  C8  UNL     1      22.199   2.106  47.682  1.00  0.00     0.094 C 
HETATM   22  N4  UNL     1      22.291   2.906  46.700  1.00  0.00    -0.258 NA
HETATM   23  C9  UNL     1      21.268   3.908  46.590  1.00  0.00     0.113 C 
HETATM   24  C10 UNL     1      20.353   4.044  47.563  1.00  0.00    -0.003 C 
HETATM   25  C11 UNL     1      20.448   3.126  48.736  1.00  0.00     0.072 C 
ENDBRANCH   4  20
TORSDOF 3
ENDMDL
MODEL 7
REMARK VINA RESULT:      -8.0      5.322      8.063
REMARK  3 active torsions:
REMARK  status: ('A' for Active; 'I' for Inactive)
REMARK    1  A    between atoms: C4_5  and  N1_6 
REMARK    2  A    between atoms: N1_6  and  C5_7 
REMARK    3  A    between atoms: C6_10  and  C7_11 
ROOT
HETATM    1  C5  UNL     1      26.092   4.269  49.812  1.00  0.00     0.161 A 
HETATM    2  N2  UNL     1      26.896   3.224  50.162  1.00  0.00    -0.131 NA
HETATM    3  N3  UNL     1      26.563   2.436  51.192  1.00  0.00    -0.147 NA
HETATM    4  C6  UNL     1      25.435   2.655  51.902  1.00  0.00     0.099 A 
HETATM    5  C12 UNL     1      24.601   3.710  51.565  1.00  0.00     0.009 A 
HETATM    6  C13 UNL     1      23.435   3.940  52.295  1.00  0.00     0.015 A 
HETATM    7  C14 UNL     1      22.570   4.975  52.005  1.00  0.00     0.001 A 
HETATM    8  C15 UNL     1      22.906   5.796  50.940  1.00  0.00     0.001 A 
HETATM    9  C16 UNL     1      24.068   5.576  50.204  1.00  0.00     0.016 A 
HETATM   10  C17 UNL     1      24.925   4.549  50.492  1.00  0.00     0.024 A 
ENDROOT
BRANCH   1  11
HETATM   11  N1  UNL     1      26.404   5.116  48.742  1.00  0.00    -0.339 N 
HETATM   12  H3  UNL     1      25.616   5.019  48.051  1.00  0.00     0.167 HD
BRANCH  11  13
HETATM   13  C4  UNL     1      27.481   5.986  48.466  1.00  0.00     0.033 A 
HETATM   14  C3  UNL     1      28.776   5.502  48.238  1.00  0.00     0.031 A 
HETATM   15  C2  UNL     1      29.727   6.450  47.981  1.00  0.00     0.026 A 
HETATM   16  C1  UNL     1      29.512   7.810  47.931  1.00  0.00     0.034 A 
HETATM   17 CL1  UNL     1      30.789   8.950  47.595  1.00  0.00    -0.084 Cl
HETATM   18  C19 UNL     1      28.210   8.257  48.164  1.00  0.00     0.026 A 
HETATM   19  C18 UNL     1      27.205   7.351  48.429  1.00  0.00     0.031 A 
ENDBRANCH  11  13
ENDBRANCH   1  11
BRANCH   4  20
HETATM   20  C7  UNL     1      25.122   1.759  53.019  1.00  0.00     0.008 C 
HETATM   21  C8  UNL     1      25.742   1.956  54.144  1.00  0.00     0.094 C 
HETATM   22  N4  UNL     1      26.526   1.049  54.565  1.00  0.00    -0.258 NA
HETATM   23  C9  UNL     1      26.075  -0.306  54.418  1.00  0.00     0.113 C 
HETATM   24  C10 UNL     1      24.941  -0.570  53.749  1.00  0.00    -0.003 C 
HETATM   25  C11 UNL     1      24.189   0.587  53.180  1.00  0.00     0.072 C 
ENDBRANCH   4  20
TORSDOF 3
ENDMDL
MODEL 8
REMARK VINA RESULT:      -8.0      5.393      7.723
REMARK  3 active torsions:
REMARK  status: ('A' for Active; 'I' for Inactive)
REMARK    1  A    between atoms: C4_5  and  N1_6 
REMARK    2  A    between atoms: N1_6  and  C5_7 
REMARK    3  A    between atoms: C6_10  and  C7_11 
ROOT
HETATM    1  C5  UNL     1      26.131   4.245  49.626  1.00  0.00     0.161 A 
HETATM    2  N2  UNL     1      27.277   3.839  49.008  1.00  0.00    -0.131 NA
HETATM    3  N3  UNL     1      28.101   4.742  48.462  1.00  0.00    -0.147 NA
HETATM    4  C6  UNL     1      27.820   6.062  48.510  1.00  0.00     0.099 A 
HETATM    5  C12 UNL     1      26.661   6.499  49.134  1.00  0.00     0.009 A 
HETATM    6  C13 UNL     1      26.367   7.862  49.186  1.00  0.00     0.015 A 
HETATM    7  C14 UNL     1      25.228   8.352  49.792  1.00  0.00     0.001 A 
HETATM    8  C15 UNL     1      24.369   7.425  50.360  1.00  0.00     0.001 A 
HETATM    9  C16 UNL     1      24.652   6.062  50.314  1.00  0.00     0.016 A 
HETATM   10  C17 UNL     1      25.782   5.577  49.713  1.00  0.00     0.024 A 
ENDROOT
BRANCH   1  11
HETATM   11  N1  UNL     1      25.243   3.333  50.209  1.00  0.00    -0.339 N 
HETATM   12  H3  UNL     1      24.332   3.437  49.691  1.00  0.00     0.167 HD
BRANCH  11  13
HETATM   13  C4  UNL     1      25.353   2.397  51.260  1.00  0.00     0.033 A 
HETATM   14  C3  UNL     1      26.518   1.643  51.454  1.00  0.00     0.031 A 
HETATM   15  C2  UNL     1      26.494   0.774  52.509  1.00  0.00     0.026 A 
HETATM   16  C1  UNL     1      25.436   0.589  53.372  1.00  0.00     0.034 A 
HETATM   17 CL1  UNL     1      25.494  -0.547  54.696  1.00  0.00    -0.084 Cl
HETATM   18  C19 UNL     1      24.292   1.356  53.150  1.00  0.00     0.026 A 
HETATM   19  C18 UNL     1      24.252   2.252  52.102  1.00  0.00     0.031 A 
ENDBRANCH  11  13
ENDBRANCH   1  11
BRANCH   4  20
HETATM   20  C7  UNL     1      28.759   7.005  47.896  1.00  0.00     0.008 C 
HETATM   21  C8  UNL     1      29.857   7.271  48.541  1.00  0.00     0.094 C 
HETATM   22  N4  UNL     1      30.038   8.460  48.953  1.00  0.00    -0.258 NA
HETATM   23  C9  UNL     1      29.660   9.514  48.055  1.00  0.00     0.113 C 
HETATM   24  C10 UNL     1      29.032   9.225  46.903  1.00  0.00    -0.003 C 
HETATM   25  C11 UNL     1      28.753   7.789  46.610  1.00  0.00     0.072 C 
ENDBRANCH   4  20
TORSDOF 3
ENDMDL
MODEL 9
REMARK VINA RESULT:      -7.9      5.412      8.323
REMARK  3 active torsions:
REMARK  status: ('A' for Active; 'I' for Inactive)
REMARK    1  A    between atoms: C4_5  and  N1_6 
REMARK    2  A    between atoms: N1_6  and  C5_7 
REMARK    3  A    between atoms: C6_10  and  C7_11 
ROOT
HETATM    1  C5  UNL     1      26.151   3.751  50.042  1.00  0.00     0.161 A 
HETATM    2  N2  UNL     1      27.195   3.924  49.180  1.00  0.00    -0.131 NA
HETATM    3  N3  UNL     1      27.383   5.107  48.584  1.00  0.00    -0.147 NA
HETATM    4  C6  UNL     1      26.554   6.147  48.818  1.00  0.00     0.099 A 
HETATM    5  C12 UNL     1      25.486   5.996  49.690  1.00  0.00     0.009 A 
HETATM    6  C13 UNL     1      24.626   7.067  49.935  1.00  0.00     0.015 A 
HETATM    7  C14 UNL     1      23.549   6.972  50.791  1.00  0.00     0.001 A 
HETATM    8  C15 UNL     1      23.345   5.751  51.414  1.00  0.00     0.001 A 
HETATM    9  C16 UNL     1      24.197   4.674  51.177  1.00  0.00     0.016 A 
HETATM   10  C17 UNL     1      25.266   4.769  50.328  1.00  0.00     0.024 A 
ENDROOT
BRANCH   1  11
HETATM   11  N1  UNL     1      25.919   2.529  50.686  1.00  0.00    -0.339 N 
HETATM   12  H3  UNL     1      24.979   2.194  50.350  1.00  0.00     0.167 HD
BRANCH  11  13
HETATM   13  C4  UNL     1      26.656   1.756  51.608  1.00  0.00     0.033 A 
HETATM   14  C3  UNL     1      26.466   0.372  51.724  1.00  0.00     0.031 A 
HETATM   15  C2  UNL     1      27.243  -0.258  52.655  1.00  0.00     0.026 A 
HETATM   16  C1  UNL     1      28.175   0.351  53.467  1.00  0.00     0.034 A 
HETATM   17 CL1  UNL     1      29.126  -0.536  54.631  1.00  0.00    -0.084 Cl
HETATM   18  C19 UNL     1      28.338   1.729  53.325  1.00  0.00     0.026 A 
HETATM   19  C18 UNL     1      27.585   2.424  52.403  1.00  0.00     0.031 A 
ENDBRANCH  11  13
ENDBRANCH   1  11
BRANCH   4  20
HETATM   20  C7  UNL     1      26.809   7.419  48.137  1.00  0.00     0.008 C 
HETATM   21  C8  UNL     1      27.776   8.163  48.589  1.00  0.00     0.094 C 
HETATM   22  N4  UNL     1      27.481   9.299  49.077  1.00  0.00    -0.258 NA
HETATM   23  C9  UNL     1      26.486  10.060  48.376  1.00  0.00     0.113 C 
HETATM   24  C10 UNL     1      25.829   9.515  47.339  1.00  0.00    -0.003 C 
HETATM   25  C11 UNL     1      26.176   8.114  46.960  1.00  0.00     0.072 C 
ENDBRANCH   4  20
TORSDOF 3
ENDMDL
