MODEL 1
REMARK VINA RESULT:      -7.6      0.000      0.000
REMARK  4 active torsions:
REMARK  status: ('A' for Active; 'I' for Inactive)
REMARK    1  A    between atoms: O1_2  and  C2_3 
REMARK    2  A    between atoms: C6_9  and  N3_10 
REMARK    3  A    between atoms: N3_10  and  C8_12 
REMARK    4  A    between atoms: C17_21  and  O2_22 
ROOT
HETATM    1  C2  UNL     1      21.104   0.435  51.760  1.00  0.00     0.103 A 
HETATM    2  C3  UNL     1      21.635   1.271  50.809  1.00  0.00     0.072 A 
HETATM    3  C4  UNL     1      22.958   1.707  50.841  1.00  0.00     0.075 A 
HETATM    4  N1  UNL     1      23.506   2.530  49.915  1.00  0.00    -0.241 NA
HETATM    5  C5  UNL     1      24.818   2.867  50.086  1.00  0.00     0.236 A 
HETATM    6  N2  UNL     1      25.594   2.436  51.109  1.00  0.00    -0.223 NA
HETATM    7  C6  UNL     1      25.052   1.599  52.058  1.00  0.00     0.144 A 
HETATM    8  C15 UNL     1      23.703   1.252  51.887  1.00  0.00     0.042 A 
HETATM    9  C16 UNL     1      23.283   0.410  52.899  1.00  0.00     0.057 A 
HETATM   10  C17 UNL     1      21.944   0.027  52.777  1.00  0.00     0.102 A 
ENDROOT
BRANCH   7  11
HETATM   11  N3  UNL     1      26.019   1.185  53.011  1.00  0.00    -0.335 N 
HETATM   12  C7  UNL     1      26.041   2.210  54.039  1.00  0.00     0.158 C 
BRANCH  11  13
HETATM   13  C8  UNL     1      26.793  -0.005  52.943  1.00  0.00     0.036 A 
HETATM   14  C9  UNL     1      26.217  -1.175  52.435  1.00  0.00     0.029 A 
HETATM   15  C10 UNL     1      27.047  -2.304  52.408  1.00  0.00     0.003 A 
HETATM   16  C11 UNL     1      28.345  -2.241  52.859  1.00  0.00     0.007 A 
HETATM   17  C12 UNL     1      28.906  -1.088  53.357  1.00  0.00    -0.060 A 
HETATM   18  C13 UNL     1      30.312  -1.051  53.837  1.00  0.00     0.048 C 
HETATM   19  C14 UNL     1      28.085   0.038  53.387  1.00  0.00     0.036 A 
ENDBRANCH  11  13
ENDBRANCH   7  11
BRANCH  10  20
HETATM   20  O2  UNL     1      21.438  -0.823  53.743  1.00  0.00    -0.353 OA
HETATM   21  C18 UNL     1      22.276  -1.254  54.785  1.00  0.00     0.210 C 
ENDBRANCH  10  20
BRANCH   1  22
HETATM   22  O1  UNL     1      19.808  -0.022  51.789  1.00  0.00    -0.353 OA
HETATM   23  C1  UNL     1      18.755   0.918  51.698  1.00  0.00     0.210 C 
ENDBRANCH   1  22
TORSDOF 4
ENDMDL
MODEL 2
REMARK VINA RESULT:      -7.5      2.306      5.887
REMARK  4 active torsions:
REMARK  status: ('A' for Active; 'I' for Inactive)
REMARK    1  A    between atoms: O1_2  and  C2_3 
REMARK    2  A    between atoms: C6_9  and  N3_10 
REMARK    3  A    between atoms: N3_10  and  C8_12 
REMARK    4  A    between atoms: C17_21  and  O2_22 
ROOT
HETATM    1  C2  UNL     1      27.425   0.267  53.693  1.00  0.00     0.103 A 
HETATM    2  C3  UNL     1      27.814   1.094  52.669  1.00  0.00     0.072 A 
HETATM    3  C4  UNL     1      26.928   1.932  51.996  1.00  0.00     0.075 A 
HETATM    4  N1  UNL     1      27.287   2.758  50.985  1.00  0.00    -0.241 NA
HETATM    5  C5  UNL     1      26.299   3.517  50.426  1.00  0.00     0.236 A 
HETATM    6  N2  UNL     1      25.002   3.496  50.815  1.00  0.00    -0.223 NA
HETATM    7  C6  UNL     1      24.621   2.663  51.841  1.00  0.00     0.144 A 
HETATM    8  C15 UNL     1      25.632   1.879  52.417  1.00  0.00     0.042 A 
HETATM    9  C16 UNL     1      25.123   1.093  53.433  1.00  0.00     0.057 A 
HETATM   10  C17 UNL     1      26.091   0.291  54.048  1.00  0.00     0.102 A 
ENDROOT
BRANCH   7  11
HETATM   11  N3  UNL     1      23.249   2.822  52.170  1.00  0.00    -0.335 N 
HETATM   12  C7  UNL     1      23.133   4.118  52.814  1.00  0.00     0.158 C 
BRANCH  11  13
HETATM   13  C8  UNL     1      22.219   1.879  51.906  1.00  0.00     0.036 A 
HETATM   14  C9  UNL     1      21.676   1.793  50.619  1.00  0.00     0.029 A 
HETATM   15  C10 UNL     1      20.661   0.842  50.445  1.00  0.00     0.003 A 
HETATM   16  C11 UNL     1      20.243   0.052  51.491  1.00  0.00     0.007 A 
HETATM   17  C12 UNL     1      20.782   0.140  52.753  1.00  0.00    -0.060 A 
HETATM   18  C13 UNL     1      20.309  -0.727  53.863  1.00  0.00     0.048 C 
HETATM   19  C14 UNL     1      21.791   1.084  52.933  1.00  0.00     0.036 A 
ENDBRANCH  11  13
ENDBRANCH   7  11
BRANCH  10  20
HETATM   20  O2  UNL     1      25.673  -0.525  55.082  1.00  0.00    -0.353 OA
HETATM   21  C18 UNL     1      24.382  -1.078  55.041  1.00  0.00     0.210 C 
ENDBRANCH  10  20
BRANCH   1  22
HETATM   22  O1  UNL     1      28.247  -0.587  54.389  1.00  0.00    -0.353 OA
HETATM   23  C1  UNL     1      29.544  -0.842  53.883  1.00  0.00     0.210 C 
ENDBRANCH   1  22
TORSDOF 4
ENDMDL
MODEL 3
REMARK VINA RESULT:      -7.5      2.146      5.056
REMARK  4 active torsions:
REMARK  status: ('A' for Active; 'I' for Inactive)
REMARK    1  A    between atoms: O1_2  and  C2_3 
REMARK    2  A    between atoms: C6_9  and  N3_10 
REMARK    3  A    between atoms: N3_10  and  C8_12 
REMARK    4  A    between atoms: C17_21  and  O2_22 
ROOT
HETATM    1  C2  UNL     1      20.011  -0.878  53.508  1.00  0.00     0.103 A 
HETATM    2  C3  UNL     1      20.805  -1.386  54.506  1.00  0.00     0.072 A 
HETATM    3  C4  UNL     1      22.174  -1.142  54.581  1.00  0.00     0.075 A 
HETATM    4  N1  UNL     1      22.977  -1.630  55.556  1.00  0.00    -0.241 NA
HETATM    5  C5  UNL     1      24.301  -1.300  55.489  1.00  0.00     0.236 A 
HETATM    6  N2  UNL     1      24.852  -0.528  54.523  1.00  0.00    -0.223 NA
HETATM    7  C6  UNL     1      24.049  -0.024  53.525  1.00  0.00     0.144 A 
HETATM    8  C15 UNL     1      22.688  -0.362  53.588  1.00  0.00     0.042 A 
HETATM    9  C16 UNL     1      21.995   0.205  52.537  1.00  0.00     0.057 A 
HETATM   10  C17 UNL     1      20.629  -0.095  52.552  1.00  0.00     0.102 A 
ENDROOT
BRANCH   7  11
HETATM   11  N3  UNL     1      24.770   0.822  52.643  1.00  0.00    -0.335 N 
HETATM   12  C7  UNL     1      25.990   0.112  52.304  1.00  0.00     0.158 C 
BRANCH  11  13
HETATM   13  C8  UNL     1      24.351   2.106  52.198  1.00  0.00     0.036 A 
HETATM   14  C9  UNL     1      24.171   3.134  53.131  1.00  0.00     0.029 A 
HETATM   15  C10 UNL     1      23.752   4.365  52.609  1.00  0.00     0.003 A 
HETATM   16  C11 UNL     1      23.538   4.529  51.261  1.00  0.00     0.007 A 
HETATM   17  C12 UNL     1      23.718   3.515  50.349  1.00  0.00    -0.060 A 
HETATM   18  C13 UNL     1      23.479   3.723  48.897  1.00  0.00     0.048 C 
HETATM   19  C14 UNL     1      24.134   2.288  50.861  1.00  0.00     0.036 A 
ENDBRANCH  11  13
ENDBRANCH   7  11
BRANCH  10  20
HETATM   20  O2  UNL     1      19.852   0.437  51.540  1.00  0.00    -0.353 OA
HETATM   21  C18 UNL     1      20.205   1.679  50.984  1.00  0.00     0.210 C 
ENDBRANCH  10  20
BRANCH   1  22
HETATM   22  O1  UNL     1      18.660  -1.088  53.374  1.00  0.00    -0.353 OA
HETATM   23  C1  UNL     1      18.137  -2.365  53.692  1.00  0.00     0.210 C 
ENDBRANCH   1  22
TORSDOF 4
ENDMDL
MODEL 4
REMARK VINA RESULT:      -7.4      2.857      5.730
REMARK  4 active torsions:
REMARK  status: ('A' for Active; 'I' for Inactive)
REMARK    1  A    between atoms: O1_2  and  C2_3 
REMARK    2  A    between atoms: C6_9  and  N3_10 
REMARK    3  A    between atoms: N3_10  and  C8_12 
REMARK    4  A    between atoms: C17_21  and  O2_22 
ROOT
HETATM    1  C2  UNL     1      25.015   0.094  53.823  1.00  0.00     0.103 A 
HETATM    2  C3  UNL     1      23.906  -0.109  53.039  1.00  0.00     0.072 A 
HETATM    3  C4  UNL     1      23.384   0.873  52.201  1.00  0.00     0.075 A 
HETATM    4  N1  UNL     1      22.293   0.696  51.417  1.00  0.00    -0.241 NA
HETATM    5  C5  UNL     1      21.904   1.758  50.651  1.00  0.00     0.236 A 
HETATM    6  N2  UNL     1      22.532   2.957  50.625  1.00  0.00    -0.223 NA
HETATM    7  C6  UNL     1      23.642   3.152  51.415  1.00  0.00     0.144 A 
HETATM    8  C15 UNL     1      24.044   2.065  52.207  1.00  0.00     0.042 A 
HETATM    9  C16 UNL     1      25.166   2.387  52.946  1.00  0.00     0.057 A 
HETATM   10  C17 UNL     1      25.615   1.336  53.753  1.00  0.00     0.102 A 
ENDROOT
BRANCH   7  11
HETATM   11  N3  UNL     1      24.219   4.433  51.211  1.00  0.00    -0.335 N 
HETATM   12  C7  UNL     1      23.515   5.342  52.097  1.00  0.00     0.158 C 
BRANCH  11  13
HETATM   13  C8  UNL     1      25.276   4.732  50.309  1.00  0.00     0.036 A 
HETATM   14  C9  UNL     1      26.115   3.703  49.864  1.00  0.00     0.029 A 
HETATM   15  C10 UNL     1      27.135   4.085  48.982  1.00  0.00     0.003 A 
HETATM   16  C11 UNL     1      27.282   5.395  48.591  1.00  0.00     0.007 A 
HETATM   17  C12 UNL     1      26.453   6.401  49.030  1.00  0.00    -0.060 A 
HETATM   18  C13 UNL     1      26.637   7.808  48.590  1.00  0.00     0.048 C 
HETATM   19  C14 UNL     1      25.437   6.029  49.909  1.00  0.00     0.036 A 
ENDBRANCH  11  13
ENDBRANCH   7  11
BRANCH  10  20
HETATM   20  O2  UNL     1      26.739   1.565  54.524  1.00  0.00    -0.353 OA
HETATM   21  C18 UNL     1      27.919   2.006  53.903  1.00  0.00     0.210 C 
ENDBRANCH  10  20
BRANCH   1  22
HETATM   22  O1  UNL     1      25.573  -0.828  54.675  1.00  0.00    -0.353 OA
HETATM   23  C1  UNL     1      24.922  -1.100  55.902  1.00  0.00     0.210 C 
ENDBRANCH   1  22
TORSDOF 4
ENDMDL
MODEL 5
REMARK VINA RESULT:      -7.4      2.820      6.433
REMARK  4 active torsions:
REMARK  status: ('A' for Active; 'I' for Inactive)
REMARK    1  A    between atoms: O1_2  and  C2_3 
REMARK    2  A    between atoms: C6_9  and  N3_10 
REMARK    3  A    between atoms: N3_10  and  C8_12 
REMARK    4  A    between atoms: C17_21  and  O2_22 
ROOT
HETATM    1  C2  UNL     1      26.073   0.061  53.321  1.00  0.00     0.103 A 
HETATM    2  C3  UNL     1      25.122  -0.656  54.004  1.00  0.00     0.072 A 
HETATM    3  C4  UNL     1      23.757  -0.405  53.886  1.00  0.00     0.075 A 
HETATM    4  N1  UNL     1      22.800  -1.099  54.547  1.00  0.00    -0.241 NA
HETATM    5  C5  UNL     1      21.504  -0.730  54.324  1.00  0.00     0.236 A 
HETATM    6  N2  UNL     1      21.122   0.269  53.494  1.00  0.00    -0.223 NA
HETATM    7  C6  UNL     1      22.082   0.983  52.815  1.00  0.00     0.144 A 
HETATM    8  C15 UNL     1      23.416   0.611  53.043  1.00  0.00     0.042 A 
HETATM    9  C16 UNL     1      24.277   1.398  52.303  1.00  0.00     0.057 A 
HETATM   10  C17 UNL     1      25.623   1.067  52.488  1.00  0.00     0.102 A 
ENDROOT
BRANCH   7  11
HETATM   11  N3  UNL     1      21.508   1.939  51.936  1.00  0.00    -0.335 N 
HETATM   12  C7  UNL     1      20.585   2.724  52.736  1.00  0.00     0.158 C 
BRANCH  11  13
HETATM   13  C8  UNL     1      21.801   2.074  50.552  1.00  0.00     0.036 A 
HETATM   14  C9  UNL     1      21.516   1.017  49.680  1.00  0.00     0.029 A 
HETATM   15  C10 UNL     1      21.841   1.230  48.334  1.00  0.00     0.003 A 
HETATM   16  C11 UNL     1      22.405   2.414  47.919  1.00  0.00     0.007 A 
HETATM   17  C12 UNL     1      22.681   3.450  48.780  1.00  0.00    -0.060 A 
HETATM   18  C13 UNL     1      23.290   4.718  48.302  1.00  0.00     0.048 C 
HETATM   19  C14 UNL     1      22.361   3.244  50.121  1.00  0.00     0.036 A 
ENDBRANCH  11  13
ENDBRANCH   7  11
BRANCH  10  20
HETATM   20  O2  UNL     1      26.558   1.799  51.781  1.00  0.00    -0.353 OA
HETATM   21  C18 UNL     1      26.121   2.708  50.803  1.00  0.00     0.210 C 
ENDBRANCH  10  20
BRANCH   1  22
HETATM   22  O1  UNL     1      27.431  -0.131  53.401  1.00  0.00    -0.353 OA
HETATM   23  C1  UNL     1      28.087   0.162  54.621  1.00  0.00     0.210 C 
ENDBRANCH   1  22
TORSDOF 4
ENDMDL
MODEL 6
REMARK VINA RESULT:      -7.3      2.912      6.635
REMARK  4 active torsions:
REMARK  status: ('A' for Active; 'I' for Inactive)
REMARK    1  A    between atoms: O1_2  and  C2_3 
REMARK    2  A    between atoms: C6_9  and  N3_10 
REMARK    3  A    between atoms: N3_10  and  C8_12 
REMARK    4  A    between atoms: C17_21  and  O2_22 
ROOT
HETATM    1  C2  UNL     1      26.324  -0.170  53.536  1.00  0.00     0.103 A 
HETATM    2  C3  UNL     1      25.329  -0.734  54.295  1.00  0.00     0.072 A 
HETATM    3  C4  UNL     1      23.976  -0.508  54.056  1.00  0.00     0.075 A 
HETATM    4  N1  UNL     1      22.977  -1.055  54.789  1.00  0.00    -0.241 NA
HETATM    5  C5  UNL     1      21.699  -0.735  54.428  1.00  0.00     0.236 A 
HETATM    6  N2  UNL     1      21.373   0.081  53.397  1.00  0.00    -0.223 NA
HETATM    7  C6  UNL     1      22.378   0.643  52.642  1.00  0.00     0.144 A 
HETATM    8  C15 UNL     1      23.692   0.320  53.011  1.00  0.00     0.042 A 
HETATM    9  C16 UNL     1      24.601   0.942  52.178  1.00  0.00     0.057 A 
HETATM   10  C17 UNL     1      25.932   0.652  52.497  1.00  0.00     0.102 A 
ENDROOT
BRANCH   7  11
HETATM   11  N3  UNL     1      21.862   1.406  51.562  1.00  0.00    -0.335 N 
HETATM   12  C7  UNL     1      21.052   0.497  50.772  1.00  0.00     0.158 C 
BRANCH  11  13
HETATM   13  C8  UNL     1      22.110   2.787  51.330  1.00  0.00     0.036 A 
HETATM   14  C9  UNL     1      21.781   3.722  52.318  1.00  0.00     0.029 A 
HETATM   15  C10 UNL     1      22.052   5.061  52.006  1.00  0.00     0.003 A 
HETATM   16  C11 UNL     1      22.607   5.410  50.798  1.00  0.00     0.007 A 
HETATM   17  C12 UNL     1      22.930   4.486  49.831  1.00  0.00    -0.060 A 
HETATM   18  C13 UNL     1      23.529   4.894  48.534  1.00  0.00     0.048 C 
HETATM   19  C14 UNL     1      22.662   3.152  50.134  1.00  0.00     0.036 A 
ENDBRANCH  11  13
ENDBRANCH   7  11
BRANCH  10  20
HETATM   20  O2  UNL     1      26.912   1.226  51.710  1.00  0.00    -0.353 OA
HETATM   21  C18 UNL     1      26.608   2.381  50.970  1.00  0.00     0.210 C 
ENDBRANCH  10  20
BRANCH   1  22
HETATM   22  O1  UNL     1      27.673  -0.345  53.726  1.00  0.00    -0.353 OA
HETATM   23  C1  UNL     1      28.282   0.247  54.858  1.00  0.00     0.210 C 
ENDBRANCH   1  22
TORSDOF 4
ENDMDL
MODEL 7
REMARK VINA RESULT:      -7.2      2.925      6.501
REMARK  4 active torsions:
REMARK  status: ('A' for Active; 'I' for Inactive)
REMARK    1  A    between atoms: O1_2  and  C2_3 
REMARK    2  A    between atoms: C6_9  and  N3_10 
REMARK    3  A    between atoms: N3_10  and  C8_12 
REMARK    4  A    between atoms: C17_21  and  O2_22 
ROOT
HETATM    1  C2  UNL     1      26.995  -0.312  53.535  1.00  0.00     0.103 A 
HETATM    2  C3  UNL     1      25.742  -0.825  53.758  1.00  0.00     0.072 A 
HETATM    3  C4  UNL     1      24.575  -0.102  53.521  1.00  0.00     0.075 A 
HETATM    4  N1  UNL     1      23.328  -0.587  53.731  1.00  0.00    -0.241 NA
HETATM    5  C5  UNL     1      22.285   0.249  53.450  1.00  0.00     0.236 A 
HETATM    6  N2  UNL     1      22.418   1.513  52.982  1.00  0.00    -0.223 NA
HETATM    7  C6  UNL     1      23.678   2.019  52.763  1.00  0.00     0.144 A 
HETATM    8  C15 UNL     1      24.754   1.166  53.052  1.00  0.00     0.042 A 
HETATM    9  C16 UNL     1      25.958   1.789  52.788  1.00  0.00     0.057 A 
HETATM   10  C17 UNL     1      27.068   0.981  53.054  1.00  0.00     0.102 A 
ENDROOT
BRANCH   7  11
HETATM   11  N3  UNL     1      23.634   3.323  52.202  1.00  0.00    -0.335 N 
HETATM   12  C7  UNL     1      23.793   4.247  53.310  1.00  0.00     0.158 C 
BRANCH  11  13
HETATM   13  C8  UNL     1      23.467   3.627  50.824  1.00  0.00     0.036 A 
HETATM   14  C9  UNL     1      23.761   4.915  50.362  1.00  0.00     0.029 A 
HETATM   15  C10 UNL     1      23.564   5.133  48.991  1.00  0.00     0.003 A 
HETATM   16  C11 UNL     1      23.110   4.127  48.171  1.00  0.00     0.007 A 
HETATM   17  C12 UNL     1      22.824   2.862  48.631  1.00  0.00    -0.060 A 
HETATM   18  C13 UNL     1      22.335   1.795  47.720  1.00  0.00     0.048 C 
HETATM   19  C14 UNL     1      23.018   2.639  49.993  1.00  0.00     0.036 A 
ENDBRANCH  11  13
ENDBRANCH   7  11
BRANCH  10  20
HETATM   20  O2  UNL     1      28.317   1.520  52.812  1.00  0.00    -0.353 OA
HETATM   21  C18 UNL     1      28.831   2.485  53.695  1.00  0.00     0.210 C 
ENDBRANCH  10  20
BRANCH   1  22
HETATM   22  O1  UNL     1      28.181  -0.970  53.756  1.00  0.00    -0.353 OA
HETATM   23  C1  UNL     1      28.457  -2.141  53.011  1.00  0.00     0.210 C 
ENDBRANCH   1  22
TORSDOF 4
ENDMDL
MODEL 8
REMARK VINA RESULT:      -6.8      7.729     10.669
REMARK  4 active torsions:
REMARK  status: ('A' for Active; 'I' for Inactive)
REMARK    1  A    between atoms: O1_2  and  C2_3 
REMARK    2  A    between atoms: C6_9  and  N3_10 
REMARK    3  A    between atoms: N3_10  and  C8_12 
REMARK    4  A    between atoms: C17_21  and  O2_22 
ROOT
HETATM    1  C2  UNL     1      32.815   6.401  48.969  1.00  0.00     0.103 A 
HETATM    2  C3  UNL     1      32.538   7.699  49.322  1.00  0.00     0.072 A 
HETATM    3  C4  UNL     1      31.278   8.271  49.167  1.00  0.00     0.075 A 
HETATM    4  N1  UNL     1      30.980   9.547  49.510  1.00  0.00    -0.241 NA
HETATM    5  C5  UNL     1      29.696   9.961  49.294  1.00  0.00     0.236 A 
HETATM    6  N2  UNL     1      28.717   9.186  48.769  1.00  0.00    -0.223 NA
HETATM    7  C6  UNL     1      29.005   7.887  48.416  1.00  0.00     0.144 A 
HETATM    8  C15 UNL     1      30.323   7.458  48.633  1.00  0.00     0.042 A 
HETATM    9  C16 UNL     1      30.480   6.143  48.242  1.00  0.00     0.057 A 
HETATM   10  C17 UNL     1      31.777   5.659  48.440  1.00  0.00     0.102 A 
ENDROOT
BRANCH   7  11
HETATM   11  N3  UNL     1      27.853   7.197  47.955  1.00  0.00    -0.335 N 
HETATM   12  C7  UNL     1      27.587   7.699  46.619  1.00  0.00     0.158 C 
BRANCH  11  13
HETATM   13  C8  UNL     1      27.128   6.214  48.682  1.00  0.00     0.036 A 
HETATM   14  C9  UNL     1      27.541   4.878  48.634  1.00  0.00     0.029 A 
HETATM   15  C10 UNL     1      26.768   3.973  49.375  1.00  0.00     0.003 A 
HETATM   16  C11 UNL     1      25.677   4.396  50.096  1.00  0.00     0.007 A 
HETATM   17  C12 UNL     1      25.278   5.712  50.141  1.00  0.00    -0.060 A 
HETATM   18  C13 UNL     1      24.094   6.140  50.931  1.00  0.00     0.048 C 
HETATM   19  C14 UNL     1      26.041   6.617  49.406  1.00  0.00     0.036 A 
ENDBRANCH  11  13
ENDBRANCH   7  11
BRANCH  10  20
HETATM   20  O2  UNL     1      32.026   4.347  48.084  1.00  0.00    -0.353 OA
HETATM   21  C18 UNL     1      31.682   3.909  46.794  1.00  0.00     0.210 C 
ENDBRANCH  10  20
BRANCH   1  22
HETATM   22  O1  UNL     1      34.036   5.782  49.088  1.00  0.00    -0.353 OA
HETATM   23  C1  UNL     1      35.154   6.356  48.437  1.00  0.00     0.210 C 
ENDBRANCH   1  22
TORSDOF 4
ENDMDL
MODEL 9
REMARK VINA RESULT:      -6.8      2.397      5.924
REMARK  4 active torsions:
REMARK  status: ('A' for Active; 'I' for Inactive)
REMARK    1  A    between atoms: O1_2  and  C2_3 
REMARK    2  A    between atoms: C6_9  and  N3_10 
REMARK    3  A    between atoms: N3_10  and  C8_12 
REMARK    4  A    between atoms: C17_21  and  O2_22 
ROOT
HETATM    1  C2  UNL     1      23.228  -0.167  53.590  1.00  0.00     0.103 A 
HETATM    2  C3  UNL     1      24.567  -0.054  53.309  1.00  0.00     0.072 A 
HETATM    3  C4  UNL     1      25.083   0.933  52.472  1.00  0.00     0.075 A 
HETATM    4  N1  UNL     1      26.399   1.066  52.182  1.00  0.00    -0.241 NA
HETATM    5  C5  UNL     1      26.746   2.086  51.342  1.00  0.00     0.236 A 
HETATM    6  N2  UNL     1      25.870   2.960  50.792  1.00  0.00    -0.223 NA
HETATM    7  C6  UNL     1      24.529   2.837  51.078  1.00  0.00     0.144 A 
HETATM    8  C15 UNL     1      24.167   1.789  51.938  1.00  0.00     0.042 A 
HETATM    9  C16 UNL     1      22.802   1.778  52.146  1.00  0.00     0.057 A 
HETATM   10  C17 UNL     1      22.383   0.754  53.002  1.00  0.00     0.102 A 
ENDROOT
BRANCH   7  11
HETATM   11  N3  UNL     1      23.765   3.875  50.482  1.00  0.00    -0.335 N 
HETATM   12  C7  UNL     1      23.729   4.959  51.447  1.00  0.00     0.158 C 
BRANCH  11  13
HETATM   13  C8  UNL     1      23.168   3.829  49.193  1.00  0.00     0.036 A 
HETATM   14  C9  UNL     1      22.740   2.602  48.675  1.00  0.00     0.029 A 
HETATM   15  C10 UNL     1      22.167   2.644  47.396  1.00  0.00     0.003 A 
HETATM   16  C11 UNL     1      22.046   3.831  46.712  1.00  0.00     0.007 A 
HETATM   17  C12 UNL     1      22.467   5.035  47.228  1.00  0.00    -0.060 A 
HETATM   18  C13 UNL     1      22.322   6.302  46.465  1.00  0.00     0.048 C 
HETATM   19  C14 UNL     1      23.038   4.999  48.499  1.00  0.00     0.036 A 
ENDBRANCH  11  13
ENDBRANCH   7  11
BRANCH  10  20
HETATM   20  O2  UNL     1      21.030   0.669  53.274  1.00  0.00    -0.353 OA
HETATM   21  C18 UNL     1      20.126   0.497  52.213  1.00  0.00     0.210 C 
ENDBRANCH  10  20
BRANCH   1  22
HETATM   22  O1  UNL     1      22.657  -1.120  54.398  1.00  0.00    -0.353 OA
HETATM   23  C1  UNL     1      23.302  -1.456  55.613  1.00  0.00     0.210 C 
ENDBRANCH   1  22
TORSDOF 4
ENDMDL
