MODEL 1
REMARK VINA RESULT:      -8.4      0.000      0.000
REMARK  2 active torsions:
REMARK  status: ('A' for Active; 'I' for Inactive)
REMARK    1  A    between atoms: O1_2  and  C2_3 
REMARK    2  A    between atoms: C4_5  and  N1_6 
ROOT
HETATM    1  C2  UNL     1      23.186   4.184  51.930  1.00  0.00     0.076 C 
HETATM    2  C3  UNL     1      22.600   3.159  52.581  1.00  0.00     0.063 C 
HETATM    3  C4  UNL     1      22.785   1.818  51.907  1.00  0.00     0.152 C 
HETATM    4  N2  UNL     1      22.337   2.137  50.544  1.00  0.00    -0.269 NA
HETATM    5  C12 UNL     1      22.610   1.458  49.525  1.00  0.00     0.090 C 
HETATM    6  C13 UNL     1      21.933   2.200  48.426  1.00  0.00     0.075 C 
HETATM    7  C14 UNL     1      22.660   3.494  48.308  1.00  0.00     0.003 C 
HETATM    8  C15 UNL     1      23.695   3.811  49.070  1.00  0.00     0.132 C 
HETATM    9  O2  UNL     1      24.561   3.482  50.069  1.00  0.00    -0.351 OA
HETATM   10  C16 UNL     1      24.564   3.896  51.398  1.00  0.00     0.188 C 
HETATM   11  C17 UNL     1      25.088   2.758  52.248  1.00  0.00     0.034 C 
HETATM   12  C18 UNL     1      26.517   2.388  51.965  1.00  0.00     0.038 C 
HETATM   13  C19 UNL     1      26.721   1.020  51.419  1.00  0.00     0.272 C 
HETATM   14  N3  UNL     1      25.999  -0.035  52.079  1.00  0.00     0.084 N 
HETATM   15  C20 UNL     1      26.800  -0.829  52.957  1.00  0.00     0.309 C 
HETATM   16  C21 UNL     1      24.759   0.417  52.677  1.00  0.00     0.281 C 
HETATM   17  C22 UNL     1      24.244   1.540  51.855  1.00  0.00     0.076 C 
ENDROOT
BRANCH   3  18
HETATM   18  N1  UNL     1      21.927   0.822  52.380  1.00  0.00    -0.348 N 
HETATM   19  C5  UNL     1      22.424  -0.410  52.834  1.00  0.00     0.156 C 
HETATM   20  C6  UNL     1      22.072  -0.590  54.280  1.00  0.00    -0.070 C 
HETATM   21  C7  UNL     1      23.053  -1.165  55.242  1.00  0.00     0.044 C 
HETATM   22  C8  UNL     1      20.881  -0.244  54.754  1.00  0.00    -0.014 C 
HETATM   23  C9  UNL     1      19.934   0.322  53.768  1.00  0.00     0.058 C 
HETATM   24  C10 UNL     1      19.064  -0.761  53.144  1.00  0.00     0.019 C 
HETATM   25  C11 UNL     1      20.596   1.147  52.717  1.00  0.00     0.277 C 
HETATM   26  F1  UNL     1      19.826   0.986  51.555  1.00  0.00    -0.226 F 
ENDBRANCH   3  18
BRANCH   1  27
HETATM   27  O1  UNL     1      22.489   5.384  51.808  1.00  0.00    -0.358 OA
HETATM   28  C1  UNL     1      21.222   5.368  51.188  1.00  0.00     0.209 C 
ENDBRANCH   1  27
TORSDOF 2
ENDMDL
MODEL 2
REMARK VINA RESULT:      -8.4      1.751      2.890
REMARK  2 active torsions:
REMARK  status: ('A' for Active; 'I' for Inactive)
REMARK    1  A    between atoms: O1_2  and  C2_3 
REMARK    2  A    between atoms: C4_5  and  N1_6 
ROOT
HETATM    1  C2  UNL     1      22.750   4.652  51.684  1.00  0.00     0.076 C 
HETATM    2  C3  UNL     1      21.648   3.981  52.078  1.00  0.00     0.063 C 
HETATM    3  C4  UNL     1      21.612   2.540  51.621  1.00  0.00     0.152 C 
HETATM    4  N2  UNL     1      21.860   2.706  50.183  1.00  0.00    -0.269 NA
HETATM    5  C12 UNL     1      22.255   1.796  49.416  1.00  0.00     0.090 C 
HETATM    6  C13 UNL     1      22.348   2.476  48.094  1.00  0.00     0.075 C 
HETATM    7  C14 UNL     1      23.458   3.461  48.227  1.00  0.00     0.003 C 
HETATM    8  C15 UNL     1      24.161   3.608  49.339  1.00  0.00     0.132 C 
HETATM    9  O2  UNL     1      24.408   3.243  50.628  1.00  0.00    -0.351 OA
HETATM   10  C16 UNL     1      24.040   3.886  51.807  1.00  0.00     0.188 C 
HETATM   11  C17 UNL     1      23.777   2.830  52.859  1.00  0.00     0.034 C 
HETATM   12  C18 UNL     1      24.986   2.020  53.232  1.00  0.00     0.038 C 
HETATM   13  C19 UNL     1      24.907   0.573  52.901  1.00  0.00     0.272 C 
HETATM   14  N3  UNL     1      23.676  -0.085  53.247  1.00  0.00     0.084 N 
HETATM   15  C20 UNL     1      23.756  -0.891  54.424  1.00  0.00     0.309 C 
HETATM   16  C21 UNL     1      22.535   0.808  53.234  1.00  0.00     0.281 C 
HETATM   17  C22 UNL     1      22.790   1.852  52.211  1.00  0.00     0.076 C 
ENDROOT
BRANCH   3  18
HETATM   18  N1  UNL     1      20.355   1.940  51.737  1.00  0.00    -0.348 N 
HETATM   19  C5  UNL     1      19.279   2.617  52.335  1.00  0.00     0.156 C 
HETATM   20  C6  UNL     1      18.178   2.789  51.334  1.00  0.00    -0.070 C 
HETATM   21  C7  UNL     1      17.412   4.064  51.248  1.00  0.00     0.044 C 
HETATM   22  C8  UNL     1      17.845   1.818  50.492  1.00  0.00    -0.014 C 
HETATM   23  C9  UNL     1      18.627   0.567  50.609  1.00  0.00     0.058 C 
HETATM   24  C10 UNL     1      17.966  -0.415  51.566  1.00  0.00     0.019 C 
HETATM   25  C11 UNL     1      20.055   0.793  50.974  1.00  0.00     0.277 C 
HETATM   26  F1  UNL     1      20.440  -0.321  51.736  1.00  0.00    -0.226 F 
ENDBRANCH   3  18
BRANCH   1  27
HETATM   27  O1  UNL     1      22.606   5.954  51.212  1.00  0.00    -0.358 OA
HETATM   28  C1  UNL     1      21.439   6.285  50.492  1.00  0.00     0.209 C 
ENDBRANCH   1  27
TORSDOF 2
ENDMDL
MODEL 3
REMARK VINA RESULT:      -8.4      2.451      4.896
REMARK  2 active torsions:
REMARK  status: ('A' for Active; 'I' for Inactive)
REMARK    1  A    between atoms: O1_2  and  C2_3 
REMARK    2  A    between atoms: C4_5  and  N1_6 
ROOT
HETATM    1  C2  UNL     1      20.498   3.985  51.636  1.00  0.00     0.076 C 
HETATM    2  C3  UNL     1      21.683   3.722  52.225  1.00  0.00     0.063 C 
HETATM    3  C4  UNL     1      22.855   3.715  51.270  1.00  0.00     0.152 C 
HETATM    4  N2  UNL     1      22.358   2.792  50.241  1.00  0.00    -0.269 NA
HETATM    5  C12 UNL     1      22.813   2.710  49.074  1.00  0.00     0.090 C 
HETATM    6  C13 UNL     1      21.976   1.648  48.452  1.00  0.00     0.075 C 
HETATM    7  C14 UNL     1      20.604   2.222  48.357  1.00  0.00     0.003 C 
HETATM    8  C15 UNL     1      20.307   3.446  48.764  1.00  0.00     0.132 C 
HETATM    9  O2  UNL     1      20.701   4.628  49.314  1.00  0.00    -0.351 OA
HETATM   10  C16 UNL     1      20.527   5.091  50.615  1.00  0.00     0.188 C 
HETATM   11  C17 UNL     1      21.726   5.939  50.981  1.00  0.00     0.034 C 
HETATM   12  C18 UNL     1      21.872   7.185  50.154  1.00  0.00     0.038 C 
HETATM   13  C19 UNL     1      23.090   7.243  49.304  1.00  0.00     0.272 C 
HETATM   14  N3  UNL     1      24.321   6.859  49.942  1.00  0.00     0.084 N 
HETATM   15  C20 UNL     1      25.156   7.958  50.309  1.00  0.00     0.309 C 
HETATM   16  C21 UNL     1      24.128   5.897  51.009  1.00  0.00     0.281 C 
HETATM   17  C22 UNL     1      22.948   5.069  50.663  1.00  0.00     0.076 C 
ENDROOT
BRANCH   3  18
HETATM   18  N1  UNL     1      24.011   3.133  51.796  1.00  0.00    -0.348 N 
HETATM   19  C5  UNL     1      24.019   2.565  53.080  1.00  0.00     0.156 C 
HETATM   20  C6  UNL     1      24.339   1.104  52.979  1.00  0.00    -0.070 C 
HETATM   21  C7  UNL     1      23.617   0.102  53.813  1.00  0.00     0.044 C 
HETATM   22  C8  UNL     1      25.270   0.651  52.147  1.00  0.00    -0.014 C 
HETATM   23  C9  UNL     1      25.964   1.677  51.337  1.00  0.00     0.058 C 
HETATM   24  C10 UNL     1      27.223   2.177  52.033  1.00  0.00     0.019 C 
HETATM   25  C11 UNL     1      25.085   2.813  50.939  1.00  0.00     0.277 C 
HETATM   26  F1  UNL     1      25.915   3.943  50.879  1.00  0.00    -0.226 F 
ENDBRANCH   3  18
BRANCH   1  27
HETATM   27  O1  UNL     1      19.386   3.235  52.010  1.00  0.00    -0.358 OA
HETATM   28  C1  UNL     1      19.509   1.831  52.074  1.00  0.00     0.209 C 
ENDBRANCH   1  27
TORSDOF 2
ENDMDL
MODEL 4
REMARK VINA RESULT:      -8.0      2.008      4.772
REMARK  2 active torsions:
REMARK  status: ('A' for Active; 'I' for Inactive)
REMARK    1  A    between atoms: O1_2  and  C2_3 
REMARK    2  A    between atoms: C4_5  and  N1_6 
ROOT
HETATM    1  C2  UNL     1      22.139   2.523  49.015  1.00  0.00     0.076 C 
HETATM    2  C3  UNL     1      23.207   2.086  49.712  1.00  0.00     0.063 C 
HETATM    3  C4  UNL     1      23.092   2.293  51.206  1.00  0.00     0.152 C 
HETATM    4  N2  UNL     1      22.755   3.721  51.255  1.00  0.00    -0.269 NA
HETATM    5  C12 UNL     1      22.231   4.299  52.238  1.00  0.00     0.090 C 
HETATM    6  C13 UNL     1      22.099   5.709  51.778  1.00  0.00     0.075 C 
HETATM    7  C14 UNL     1      21.086   5.682  50.685  1.00  0.00     0.003 C 
HETATM    8  C15 UNL     1      20.481   4.572  50.293  1.00  0.00     0.132 C 
HETATM    9  O2  UNL     1      20.298   3.227  50.417  1.00  0.00    -0.351 OA
HETATM   10  C16 UNL     1      20.802   2.198  49.627  1.00  0.00     0.188 C 
HETATM   11  C17 UNL     1      21.054   0.999  50.516  1.00  0.00     0.034 C 
HETATM   12  C18 UNL     1      19.812   0.424  51.137  1.00  0.00     0.038 C 
HETATM   13  C19 UNL     1      19.747   0.509  52.620  1.00  0.00     0.272 C 
HETATM   14  N3  UNL     1      20.942   0.128  53.324  1.00  0.00     0.084 N 
HETATM   15  C20 UNL     1      20.882  -1.171  53.915  1.00  0.00     0.309 C 
HETATM   16  C21 UNL     1      22.149   0.359  52.556  1.00  0.00     0.281 C 
HETATM   17  C22 UNL     1      21.907   1.527  51.675  1.00  0.00     0.076 C 
ENDROOT
BRANCH   3  18
HETATM   18  N1  UNL     1      24.300   2.149  51.893  1.00  0.00    -0.348 N 
HETATM   19  C5  UNL     1      24.331   1.694  53.221  1.00  0.00     0.156 C 
HETATM   20  C6  UNL     1      25.103   0.412  53.293  1.00  0.00    -0.070 C 
HETATM   21  C7  UNL     1      24.637  -0.717  54.148  1.00  0.00     0.044 C 
HETATM   22  C8  UNL     1      26.222   0.233  52.601  1.00  0.00    -0.014 C 
HETATM   23  C9  UNL     1      26.652   1.376  51.765  1.00  0.00     0.058 C 
HETATM   24  C10 UNL     1      27.596   2.298  52.525  1.00  0.00     0.019 C 
HETATM   25  C11 UNL     1      25.515   2.141  51.177  1.00  0.00     0.277 C 
HETATM   26  F1  UNL     1      25.949   3.472  51.087  1.00  0.00    -0.226 F 
ENDBRANCH   3  18
BRANCH   1  27
HETATM   27  O1  UNL     1      22.355   3.217  47.827  1.00  0.00    -0.358 OA
HETATM   28  C1  UNL     1      21.266   3.413  46.952  1.00  0.00     0.209 C 
ENDBRANCH   1  27
TORSDOF 2
ENDMDL
MODEL 5
REMARK VINA RESULT:      -7.9     10.977     13.659
REMARK  2 active torsions:
REMARK  status: ('A' for Active; 'I' for Inactive)
REMARK    1  A    between atoms: O1_2  and  C2_3 
REMARK    2  A    between atoms: C4_5  and  N1_6 
ROOT
HETATM    1  C2  UNL     1      32.070   5.505  47.618  1.00  0.00     0.076 C 
HETATM    2  C3  UNL     1      31.518   6.650  47.169  1.00  0.00     0.063 C 
HETATM    3  C4  UNL     1      32.481   7.545  46.423  1.00  0.00     0.152 C 
HETATM    4  N2  UNL     1      33.582   7.625  47.392  1.00  0.00    -0.269 NA
HETATM    5  C12 UNL     1      34.755   7.972  47.115  1.00  0.00     0.090 C 
HETATM    6  C13 UNL     1      35.459   7.883  48.424  1.00  0.00     0.075 C 
HETATM    7  C14 UNL     1      35.491   6.433  48.765  1.00  0.00     0.003 C 
HETATM    8  C15 UNL     1      34.977   5.498  47.981  1.00  0.00     0.132 C 
HETATM    9  O2  UNL     1      34.330   5.154  46.832  1.00  0.00    -0.351 OA
HETATM   10  C16 UNL     1      32.992   4.819  46.646  1.00  0.00     0.188 C 
HETATM   11  C17 UNL     1      32.566   5.311  45.280  1.00  0.00     0.034 C 
HETATM   12  C18 UNL     1      33.283   4.648  44.137  1.00  0.00     0.038 C 
HETATM   13  C19 UNL     1      34.137   5.548  43.317  1.00  0.00     0.272 C 
HETATM   14  N3  UNL     1      33.546   6.805  42.942  1.00  0.00     0.084 N 
HETATM   15  C20 UNL     1      33.094   6.856  41.587  1.00  0.00     0.309 C 
HETATM   16  C21 UNL     1      32.564   7.276  43.898  1.00  0.00     0.281 C 
HETATM   17  C22 UNL     1      32.970   6.789  45.239  1.00  0.00     0.076 C 
ENDROOT
BRANCH   3  18
HETATM   18  N1  UNL     1      32.019   8.851  46.242  1.00  0.00    -0.348 N 
HETATM   19  C5  UNL     1      30.662   9.171  46.412  1.00  0.00     0.156 C 
HETATM   20  C6  UNL     1      30.518  10.166  47.523  1.00  0.00    -0.070 C 
HETATM   21  C7  UNL     1      29.410  10.053  48.514  1.00  0.00     0.044 C 
HETATM   22  C8  UNL     1      31.366  11.177  47.667  1.00  0.00    -0.014 C 
HETATM   23  C9  UNL     1      32.451  11.255  46.664  1.00  0.00     0.058 C 
HETATM   24  C10 UNL     1      32.051  12.121  45.477  1.00  0.00     0.019 C 
HETATM   25  C11 UNL     1      32.938   9.920  46.212  1.00  0.00     0.277 C 
HETATM   26  F1  UNL     1      33.335  10.084  44.876  1.00  0.00    -0.226 F 
ENDBRANCH   3  18
BRANCH   1  27
HETATM   27  O1  UNL     1      31.752   5.069  48.902  1.00  0.00    -0.358 OA
HETATM   28  C1  UNL     1      31.789   6.001  49.960  1.00  0.00     0.209 C 
ENDBRANCH   1  27
TORSDOF 2
ENDMDL
MODEL 6
REMARK VINA RESULT:      -7.8      9.857     12.728
REMARK  2 active torsions:
REMARK  status: ('A' for Active; 'I' for Inactive)
REMARK    1  A    between atoms: O1_2  and  C2_3 
REMARK    2  A    between atoms: C4_5  and  N1_6 
ROOT
HETATM    1  C2  UNL     1      32.462   3.994  47.035  1.00  0.00     0.076 C 
HETATM    2  C3  UNL     1      31.533   4.967  46.936  1.00  0.00     0.063 C 
HETATM    3  C4  UNL     1      32.103   6.326  46.597  1.00  0.00     0.152 C 
HETATM    4  N2  UNL     1      33.145   6.446  47.625  1.00  0.00    -0.269 NA
HETATM    5  C12 UNL     1      34.117   7.238  47.569  1.00  0.00     0.090 C 
HETATM    6  C13 UNL     1      34.857   6.963  48.831  1.00  0.00     0.075 C 
HETATM    7  C14 UNL     1      35.397   5.582  48.688  1.00  0.00     0.003 C 
HETATM    8  C15 UNL     1      35.206   4.843  47.607  1.00  0.00     0.132 C 
HETATM    9  O2  UNL     1      34.674   4.702  46.361  1.00  0.00    -0.351 OA
HETATM   10  C16 UNL     1      33.526   4.018  45.970  1.00  0.00     0.188 C 
HETATM   11  C17 UNL     1      32.906   4.760  44.805  1.00  0.00     0.034 C 
HETATM   12  C18 UNL     1      33.763   4.793  43.572  1.00  0.00     0.038 C 
HETATM   13  C19 UNL     1      34.225   6.144  43.156  1.00  0.00     0.272 C 
HETATM   14  N3  UNL     1      33.225   7.179  43.160  1.00  0.00     0.084 N 
HETATM   15  C20 UNL     1      32.732   7.518  41.863  1.00  0.00     0.309 C 
HETATM   16  C21 UNL     1      32.178   6.950  44.135  1.00  0.00     0.281 C 
HETATM   17  C22 UNL     1      32.776   6.214  45.276  1.00  0.00     0.076 C 
ENDROOT
BRANCH   3  18
HETATM   18  N1  UNL     1      31.214   7.383  46.811  1.00  0.00    -0.348 N 
HETATM   19  C5  UNL     1      29.831   7.214  46.642  1.00  0.00     0.156 C 
HETATM   20  C6  UNL     1      29.133   7.467  47.944  1.00  0.00    -0.070 C 
HETATM   21  C7  UNL     1      28.003   6.603  48.389  1.00  0.00     0.044 C 
HETATM   22  C8  UNL     1      29.494   8.463  48.745  1.00  0.00    -0.014 C 
HETATM   23  C9  UNL     1      30.619   9.297  48.268  1.00  0.00     0.058 C 
HETATM   24  C10 UNL     1      30.124  10.492  47.464  1.00  0.00     0.019 C 
HETATM   25  C11 UNL     1      31.647   8.530  47.508  1.00  0.00     0.277 C 
HETATM   26  F1  UNL     1      32.169   9.419  46.557  1.00  0.00    -0.226 F 
ENDBRANCH   3  18
BRANCH   1  27
HETATM   27  O1  UNL     1      32.361   3.079  48.079  1.00  0.00    -0.358 OA
HETATM   28  C1  UNL     1      33.043   1.849  47.967  1.00  0.00     0.209 C 
ENDBRANCH   1  27
TORSDOF 2
ENDMDL
MODEL 7
REMARK VINA RESULT:      -7.6      2.418      4.846
REMARK  2 active torsions:
REMARK  status: ('A' for Active; 'I' for Inactive)
REMARK    1  A    between atoms: O1_2  and  C2_3 
REMARK    2  A    between atoms: C4_5  and  N1_6 
ROOT
HETATM    1  C2  UNL     1      25.338   4.506  48.981  1.00  0.00     0.076 C 
HETATM    2  C3  UNL     1      25.592   3.469  49.805  1.00  0.00     0.063 C 
HETATM    3  C4  UNL     1      24.548   3.269  50.880  1.00  0.00     0.152 C 
HETATM    4  N2  UNL     1      24.484   4.622  51.448  1.00  0.00    -0.269 NA
HETATM    5  C12 UNL     1      23.535   5.062  52.141  1.00  0.00     0.090 C 
HETATM    6  C13 UNL     1      23.955   6.455  52.456  1.00  0.00     0.075 C 
HETATM    7  C14 UNL     1      23.935   7.184  51.157  1.00  0.00     0.003 C 
HETATM    8  C15 UNL     1      23.584   6.611  50.016  1.00  0.00     0.132 C 
HETATM    9  O2  UNL     1      23.166   5.507  49.337  1.00  0.00    -0.351 OA
HETATM   10  C16 UNL     1      23.904   4.634  48.542  1.00  0.00     0.188 C 
HETATM   11  C17 UNL     1      23.317   3.247  48.691  1.00  0.00     0.034 C 
HETATM   12  C18 UNL     1      21.908   3.118  48.185  1.00  0.00     0.038 C 
HETATM   13  C19 UNL     1      20.889   2.795  49.218  1.00  0.00     0.272 C 
HETATM   14  N3  UNL     1      21.240   1.749  50.141  1.00  0.00     0.084 N 
HETATM   15  C20 UNL     1      20.608   0.497  49.872  1.00  0.00     0.309 C 
HETATM   16  C21 UNL     1      22.669   1.641  50.357  1.00  0.00     0.281 C 
HETATM   17  C22 UNL     1      23.253   2.996  50.203  1.00  0.00     0.076 C 
ENDROOT
BRANCH   3  18
HETATM   18  N1  UNL     1      24.956   2.426  51.916  1.00  0.00    -0.348 N 
HETATM   19  C5  UNL     1      24.166   2.252  53.065  1.00  0.00     0.156 C 
HETATM   20  C6  UNL     1      23.759   0.814  53.179  1.00  0.00    -0.070 C 
HETATM   21  C7  UNL     1      22.379   0.439  53.597  1.00  0.00     0.044 C 
HETATM   22  C8  UNL     1      24.607  -0.173  52.914  1.00  0.00    -0.014 C 
HETATM   23  C9  UNL     1      25.967   0.240  52.503  1.00  0.00     0.058 C 
HETATM   24  C10 UNL     1      26.901   0.348  53.700  1.00  0.00     0.019 C 
HETATM   25  C11 UNL     1      25.988   1.491  51.693  1.00  0.00     0.277 C 
HETATM   26  F1  UNL     1      27.197   2.132  52.001  1.00  0.00    -0.226 F 
ENDBRANCH   3  18
BRANCH   1  27
HETATM   27  O1  UNL     1      26.389   5.344  48.618  1.00  0.00    -0.358 OA
HETATM   28  C1  UNL     1      27.704   4.834  48.661  1.00  0.00     0.209 C 
ENDBRANCH   1  27
TORSDOF 2
ENDMDL
MODEL 8
REMARK VINA RESULT:      -7.5      8.839     11.779
REMARK  2 active torsions:
REMARK  status: ('A' for Active; 'I' for Inactive)
REMARK    1  A    between atoms: O1_2  and  C2_3 
REMARK    2  A    between atoms: C4_5  and  N1_6 
ROOT
HETATM    1  C2  UNL     1      29.093   9.784  45.684  1.00  0.00     0.076 C 
HETATM    2  C3  UNL     1      29.997   8.787  45.767  1.00  0.00     0.063 C 
HETATM    3  C4  UNL     1      30.203   8.261  47.170  1.00  0.00     0.152 C 
HETATM    4  N2  UNL     1      30.464   9.513  47.892  1.00  0.00    -0.269 NA
HETATM    5  C12 UNL     1      30.366   9.655  49.135  1.00  0.00     0.090 C 
HETATM    6  C13 UNL     1      30.728  11.084  49.347  1.00  0.00     0.075 C 
HETATM    7  C14 UNL     1      29.632  11.873  48.720  1.00  0.00     0.003 C 
HETATM    8  C15 UNL     1      28.587  11.313  48.130  1.00  0.00     0.132 C 
HETATM    9  O2  UNL     1      27.914  10.189  47.756  1.00  0.00    -0.351 OA
HETATM   10  C16 UNL     1      27.847   9.583  46.504  1.00  0.00     0.188 C 
HETATM   11  C17 UNL     1      27.741   8.087  46.707  1.00  0.00     0.034 C 
HETATM   12  C18 UNL     1      26.484   7.650  47.406  1.00  0.00     0.038 C 
HETATM   13  C19 UNL     1      26.686   7.014  48.735  1.00  0.00     0.272 C 
HETATM   14  N3  UNL     1      27.728   6.025  48.806  1.00  0.00     0.084 N 
HETATM   15  C20 UNL     1      27.255   4.677  48.813  1.00  0.00     0.309 C 
HETATM   16  C21 UNL     1      28.796   6.260  47.855  1.00  0.00     0.281 C 
HETATM   17  C22 UNL     1      28.900   7.724  47.643  1.00  0.00     0.076 C 
ENDROOT
BRANCH   3  18
HETATM   18  N1  UNL     1      31.348   7.474  47.319  1.00  0.00    -0.348 N 
HETATM   19  C5  UNL     1      31.936   6.832  46.217  1.00  0.00     0.156 C 
HETATM   20  C6  UNL     1      33.331   7.345  46.025  1.00  0.00    -0.070 C 
HETATM   21  C7  UNL     1      33.864   7.626  44.663  1.00  0.00     0.044 C 
HETATM   22  C8  UNL     1      34.139   7.567  47.056  1.00  0.00    -0.014 C 
HETATM   23  C9  UNL     1      33.573   7.275  48.392  1.00  0.00     0.058 C 
HETATM   24  C10 UNL     1      33.871   5.845  48.822  1.00  0.00     0.019 C 
HETATM   25  C11 UNL     1      32.116   7.573  48.497  1.00  0.00     0.277 C 
HETATM   26  F1  UNL     1      31.595   6.641  49.408  1.00  0.00    -0.226 F 
ENDBRANCH   3  18
BRANCH   1  27
HETATM   27  O1  UNL     1      29.379  10.879  44.873  1.00  0.00    -0.358 OA
HETATM   28  C1  UNL     1      28.324  11.482  44.156  1.00  0.00     0.209 C 
ENDBRANCH   1  27
TORSDOF 2
ENDMDL
MODEL 9
REMARK VINA RESULT:      -7.1      1.983      4.455
REMARK  2 active torsions:
REMARK  status: ('A' for Active; 'I' for Inactive)
REMARK    1  A    between atoms: O1_2  and  C2_3 
REMARK    2  A    between atoms: C4_5  and  N1_6 
ROOT
HETATM    1  C2  UNL     1      24.119   3.046  49.485  1.00  0.00     0.076 C 
HETATM    2  C3  UNL     1      24.015   2.057  50.396  1.00  0.00     0.063 C 
HETATM    3  C4  UNL     1      22.863   2.229  51.360  1.00  0.00     0.152 C 
HETATM    4  N2  UNL     1      23.107   3.599  51.830  1.00  0.00    -0.269 NA
HETATM    5  C12 UNL     1      22.249   4.327  52.385  1.00  0.00     0.090 C 
HETATM    6  C13 UNL     1      22.992   5.589  52.655  1.00  0.00     0.075 C 
HETATM    7  C14 UNL     1      23.281   6.179  51.317  1.00  0.00     0.003 C 
HETATM    8  C15 UNL     1      22.896   5.614  50.184  1.00  0.00     0.132 C 
HETATM    9  O2  UNL     1      22.264   4.597  49.534  1.00  0.00    -0.351 OA
HETATM   10  C16 UNL     1      22.814   3.497  48.883  1.00  0.00     0.188 C 
HETATM   11  C17 UNL     1      21.872   2.325  49.054  1.00  0.00     0.034 C 
HETATM   12  C18 UNL     1      20.531   2.516  48.404  1.00  0.00     0.038 C 
HETATM   13  C19 UNL     1      19.374   2.558  49.338  1.00  0.00     0.272 C 
HETATM   14  N3  UNL     1      19.352   1.545  50.358  1.00  0.00     0.084 N 
HETATM   15  C20 UNL     1      18.439   0.477  50.101  1.00  0.00     0.309 C 
HETATM   16  C21 UNL     1      20.677   1.095  50.737  1.00  0.00     0.281 C 
HETATM   17  C22 UNL     1      21.608   2.236  50.562  1.00  0.00     0.076 C 
ENDROOT
BRANCH   3  18
HETATM   18  N1  UNL     1      22.939   1.406  52.486  1.00  0.00    -0.348 N 
HETATM   19  C5  UNL     1      21.869   1.314  53.392  1.00  0.00     0.156 C 
HETATM   20  C6  UNL     1      21.366  -0.096  53.430  1.00  0.00    -0.070 C 
HETATM   21  C7  UNL     1      19.905  -0.388  53.481  1.00  0.00     0.044 C 
HETATM   22  C8  UNL     1      22.195  -1.133  53.419  1.00  0.00    -0.014 C 
HETATM   23  C9  UNL     1      23.637  -0.803  53.368  1.00  0.00     0.058 C 
HETATM   24  C10 UNL     1      24.233  -0.695  54.765  1.00  0.00     0.019 C 
HETATM   25  C11 UNL     1      23.939   0.415  52.562  1.00  0.00     0.277 C 
HETATM   26  F1  UNL     1      25.061   1.007  53.160  1.00  0.00    -0.226 F 
ENDBRANCH   3  18
BRANCH   1  27
HETATM   27  O1  UNL     1      25.382   3.551  49.188  1.00  0.00    -0.358 OA
HETATM   28  C1  UNL     1      26.382   3.496  50.182  1.00  0.00     0.209 C 
ENDBRANCH   1  27
TORSDOF 2
ENDMDL
