MODEL 1
REMARK VINA RESULT:      -9.2      0.000      0.000
REMARK  5 active torsions:
REMARK  status: ('A' for Active; 'I' for Inactive)
REMARK    1  A    between atoms: N1_1  and  C1_2 
REMARK    2  A    between atoms: C5_7  and  C6_8 
REMARK       I    between atoms: N3_19  and  C15_20 
REMARK       I    between atoms: C15_20  and  N4_22 
REMARK    3  A    between atoms: N4_22  and  C16_23 
REMARK    4  A    between atoms: C16_23  and  C17_24 
REMARK    5  A    between atoms: C17_24  and  N5_25 
ROOT
HETATM    1  C1  UNL     1      24.331   6.695  50.406  1.00  0.00     0.349 C 
HETATM    2  C2  UNL     1      25.364   7.762  50.505  1.00  0.00     0.061 C 
HETATM    3  C3  UNL     1      26.474   7.825  49.795  1.00  0.00     0.063 A 
HETATM    4  N2  UNL     1      27.470   8.840  49.883  1.00  0.00    -0.264 NA
HETATM    5  C4  UNL     1      28.531   8.790  49.116  1.00  0.00     0.103 A 
HETATM    6  C5  UNL     1      28.851   7.751  48.107  1.00  0.00     0.082 A 
HETATM    7  C12 UNL     1      27.760   6.758  48.102  1.00  0.00    -0.001 A 
HETATM    8  C13 UNL     1      26.665   6.740  48.841  1.00  0.00    -0.014 A 
HETATM    9  C14 UNL     1      25.635   5.664  48.731  1.00  0.00     0.170 C 
HETATM   10  N3  UNL     1      25.019   5.476  50.019  1.00  0.00    -0.296 N 
HETATM   11  C15 UNL     1      25.190   4.211  50.637  1.00  0.00     0.320 C 
HETATM   12  O1  UNL     1      25.903   3.512  49.838  1.00  0.00    -0.247 OA
HETATM   13  N4  UNL     1      24.749   3.648  51.863  1.00  0.00    -0.341 N 
HETATM   14  H13 UNL     1      24.185   4.356  52.381  1.00  0.00     0.164 HD
ENDROOT
BRANCH   1  15
HETATM   15  N1  UNL     1      23.607   6.546  51.653  1.00  0.00     0.105 N 
HETATM   16  H1  UNL     1      24.257   6.116  52.365  1.00  0.00     0.315 HD
HETATM   17  H2  UNL     1      23.250   7.485  51.999  1.00  0.00     0.315 HD
ENDBRANCH   1  15
BRANCH  13  18
HETATM   18  C16 UNL     1      25.281   2.278  51.892  1.00  0.00     0.143 C 
BRANCH  18  19
HETATM   19  C17 UNL     1      26.016   2.105  53.196  1.00  0.00     0.136 C 
BRANCH  19  20
HETATM   20  N5  UNL     1      27.340   1.605  53.022  1.00  0.00    -0.407 N 
HETATM   21  C18 UNL     1      28.394   2.426  53.516  1.00  0.00     0.143 C 
HETATM   22  C19 UNL     1      29.388   1.519  54.237  1.00  0.00     0.187 C 
HETATM   23  O2  UNL     1      28.681   0.869  55.230  1.00  0.00    -0.388 OA
HETATM   24  C20 UNL     1      27.853  -0.080  54.676  1.00  0.00     0.187 C 
HETATM   25  C21 UNL     1      27.460   0.208  53.263  1.00  0.00     0.143 C 
ENDBRANCH  19  20
ENDBRANCH  18  19
ENDBRANCH  13  18
BRANCH   6  26
HETATM   26  C6  UNL     1      30.185   7.136  48.292  1.00  0.00    -0.044 A 
HETATM   27  C7  UNL     1      31.186   7.749  49.018  1.00  0.00     0.011 A 
HETATM   28  C8  UNL     1      32.407   7.083  49.130  1.00  0.00     0.044 A 
HETATM   29  C9  UNL     1      32.589   5.853  48.527  1.00  0.00     0.138 A 
HETATM   30  F1  UNL     1      33.769   5.206  48.636  1.00  0.00    -0.204 F 
HETATM   31  C10 UNL     1      31.563   5.274  47.810  1.00  0.00     0.073 A 
HETATM   32 CL1  UNL     1      31.822   3.698  47.049  1.00  0.00    -0.081 Cl
HETATM   33  C11 UNL     1      30.320   5.903  47.669  1.00  0.00     0.035 A 
ENDBRANCH   6  26
TORSDOF 5
ENDMDL
MODEL 2
REMARK VINA RESULT:      -9.2      1.039      1.340
REMARK  5 active torsions:
REMARK  status: ('A' for Active; 'I' for Inactive)
REMARK    1  A    between atoms: N1_1  and  C1_2 
REMARK    2  A    between atoms: C5_7  and  C6_8 
REMARK       I    between atoms: N3_19  and  C15_20 
REMARK       I    between atoms: C15_20  and  N4_22 
REMARK    3  A    between atoms: N4_22  and  C16_23 
REMARK    4  A    between atoms: C16_23  and  C17_24 
REMARK    5  A    between atoms: C17_24  and  N5_25 
ROOT
HETATM    1  C1  UNL     1      24.768   6.954  50.418  1.00  0.00     0.349 C 
HETATM    2  C2  UNL     1      25.912   7.907  50.445  1.00  0.00     0.061 C 
HETATM    3  C3  UNL     1      26.966   7.864  49.654  1.00  0.00     0.063 A 
HETATM    4  N2  UNL     1      28.066   8.769  49.673  1.00  0.00    -0.264 NA
HETATM    5  C4  UNL     1      29.057   8.620  48.828  1.00  0.00     0.103 A 
HETATM    6  C5  UNL     1      29.191   7.567  47.793  1.00  0.00     0.082 A 
HETATM    7  C12 UNL     1      28.006   6.693  47.864  1.00  0.00    -0.001 A 
HETATM    8  C13 UNL     1      26.972   6.778  48.682  1.00  0.00    -0.014 A 
HETATM    9  C14 UNL     1      25.830   5.816  48.645  1.00  0.00     0.170 C 
HETATM   10  N3  UNL     1      25.295   5.676  49.974  1.00  0.00    -0.296 N 
HETATM   11  C15 UNL     1      25.378   4.391  50.570  1.00  0.00     0.320 C 
HETATM   12  O1  UNL     1      25.954   3.634  49.716  1.00  0.00    -0.247 OA
HETATM   13  N4  UNL     1      24.973   3.861  51.823  1.00  0.00    -0.341 N 
HETATM   14  H13 UNL     1      24.526   4.617  52.385  1.00  0.00     0.164 HD
ENDROOT
BRANCH   1  15
HETATM   15  N1  UNL     1      24.126   6.865  51.715  1.00  0.00     0.105 N 
HETATM   16  H1  UNL     1      24.857   7.035  52.458  1.00  0.00     0.315 HD
HETATM   17  H2  UNL     1      23.342   7.575  51.799  1.00  0.00     0.315 HD
ENDBRANCH   1  15
BRANCH  13  18
HETATM   18  C16 UNL     1      25.359   2.443  51.804  1.00  0.00     0.143 C 
BRANCH  18  19
HETATM   19  C17 UNL     1      26.017   2.136  53.125  1.00  0.00     0.136 C 
BRANCH  19  20
HETATM   20  N5  UNL     1      27.341   1.626  52.979  1.00  0.00    -0.407 N 
HETATM   21  C18 UNL     1      28.392   2.450  53.470  1.00  0.00     0.143 C 
HETATM   22  C19 UNL     1      29.371   1.551  54.221  1.00  0.00     0.187 C 
HETATM   23  O2  UNL     1      28.648   0.925  55.218  1.00  0.00    -0.388 OA
HETATM   24  C20 UNL     1      27.822  -0.030  54.670  1.00  0.00     0.187 C 
HETATM   25  C21 UNL     1      27.449   0.233  53.248  1.00  0.00     0.143 C 
ENDBRANCH  19  20
ENDBRANCH  18  19
ENDBRANCH  13  18
BRANCH   6  26
HETATM   26  C6  UNL     1      30.464   6.815  47.873  1.00  0.00    -0.044 A 
HETATM   27  C7  UNL     1      30.525   5.447  47.697  1.00  0.00     0.011 A 
HETATM   28  C8  UNL     1      31.775   4.836  47.794  1.00  0.00     0.044 A 
HETATM   29  C9  UNL     1      32.903   5.590  48.058  1.00  0.00     0.138 A 
HETATM   30  F1  UNL     1      34.114   5.001  48.151  1.00  0.00    -0.204 F 
HETATM   31  C10 UNL     1      32.799   6.955  48.229  1.00  0.00     0.073 A 
HETATM   32 CL1  UNL     1      34.257   7.897  48.566  1.00  0.00    -0.081 Cl
HETATM   33  C11 UNL     1      31.567   7.614  48.141  1.00  0.00     0.035 A 
ENDBRANCH   6  26
TORSDOF 5
ENDMDL
MODEL 3
REMARK VINA RESULT:      -8.6      2.666      3.758
REMARK  5 active torsions:
REMARK  status: ('A' for Active; 'I' for Inactive)
REMARK    1  A    between atoms: N1_1  and  C1_2 
REMARK    2  A    between atoms: C5_7  and  C6_8 
REMARK       I    between atoms: N3_19  and  C15_20 
REMARK       I    between atoms: C15_20  and  N4_22 
REMARK    3  A    between atoms: N4_22  and  C16_23 
REMARK    4  A    between atoms: C16_23  and  C17_24 
REMARK    5  A    between atoms: C17_24  and  N5_25 
ROOT
HETATM    1  C1  UNL     1      27.210   8.659  49.219  1.00  0.00     0.349 C 
HETATM    2  C2  UNL     1      28.593   9.087  49.566  1.00  0.00     0.061 C 
HETATM    3  C3  UNL     1      29.695   8.684  48.964  1.00  0.00     0.063 A 
HETATM    4  N2  UNL     1      31.023   9.086  49.289  1.00  0.00    -0.264 NA
HETATM    5  C4  UNL     1      32.039   8.614  48.609  1.00  0.00     0.103 A 
HETATM    6  C5  UNL     1      31.984   7.657  47.478  1.00  0.00     0.082 A 
HETATM    7  C12 UNL     1      30.572   7.312  47.230  1.00  0.00    -0.001 A 
HETATM    8  C13 UNL     1      29.498   7.743  47.868  1.00  0.00    -0.014 A 
HETATM    9  C14 UNL     1      28.116   7.306  47.510  1.00  0.00     0.170 C 
HETATM   10  N3  UNL     1      27.305   7.305  48.700  1.00  0.00    -0.296 N 
HETATM   11  C15 UNL     1      26.781   6.057  49.122  1.00  0.00     0.320 C 
HETATM   12  O1  UNL     1      27.198   5.188  48.281  1.00  0.00    -0.247 OA
HETATM   13  N4  UNL     1      25.959   5.651  50.205  1.00  0.00    -0.341 N 
HETATM   14  H13 UNL     1      25.718   6.486  50.783  1.00  0.00     0.164 HD
ENDROOT
BRANCH   1  15
HETATM   15  N1  UNL     1      26.328   8.748  50.366  1.00  0.00     0.105 N 
HETATM   16  H1  UNL     1      25.524   9.385  50.117  1.00  0.00     0.315 HD
HETATM   17  H2  UNL     1      25.966   7.788  50.641  1.00  0.00     0.315 HD
ENDBRANCH   1  15
BRANCH  13  18
HETATM   18  C16 UNL     1      25.788   4.199  50.060  1.00  0.00     0.143 C 
BRANCH  18  19
HETATM   19  C17 UNL     1      24.351   3.948  49.682  1.00  0.00     0.136 C 
BRANCH  19  20
HETATM   20  N5  UNL     1      23.650   3.175  50.653  1.00  0.00    -0.407 N 
HETATM   21  C18 UNL     1      24.441   2.310  51.462  1.00  0.00     0.143 C 
HETATM   22  C19 UNL     1      23.944   2.440  52.900  1.00  0.00     0.187 C 
HETATM   23  O2  UNL     1      24.061   3.774  53.239  1.00  0.00    -0.388 OA
HETATM   24  C20 UNL     1      23.097   4.511  52.589  1.00  0.00     0.187 C 
HETATM   25  C21 UNL     1      22.616   3.892  51.317  1.00  0.00     0.143 C 
ENDBRANCH  19  20
ENDBRANCH  18  19
ENDBRANCH  13  18
BRANCH   6  26
HETATM   26  C6  UNL     1      32.841   6.466  47.667  1.00  0.00    -0.044 A 
HETATM   27  C7  UNL     1      34.080   6.536  48.272  1.00  0.00     0.011 A 
HETATM   28  C8  UNL     1      34.807   5.352  48.401  1.00  0.00     0.044 A 
HETATM   29  C9  UNL     1      34.289   4.160  47.932  1.00  0.00     0.138 A 
HETATM   30  F1  UNL     1      34.990   3.013  48.057  1.00  0.00    -0.204 F 
HETATM   31  C10 UNL     1      33.046   4.132  47.334  1.00  0.00     0.073 A 
HETATM   32 CL1  UNL     1      32.406   2.593  46.744  1.00  0.00    -0.081 Cl
HETATM   33  C11 UNL     1      32.279   5.293  47.181  1.00  0.00     0.035 A 
ENDBRANCH   6  26
TORSDOF 5
ENDMDL
MODEL 4
REMARK VINA RESULT:      -8.4      1.321      1.613
REMARK  5 active torsions:
REMARK  status: ('A' for Active; 'I' for Inactive)
REMARK    1  A    between atoms: N1_1  and  C1_2 
REMARK    2  A    between atoms: C5_7  and  C6_8 
REMARK       I    between atoms: N3_19  and  C15_20 
REMARK       I    between atoms: C15_20  and  N4_22 
REMARK    3  A    between atoms: N4_22  and  C16_23 
REMARK    4  A    between atoms: C16_23  and  C17_24 
REMARK    5  A    between atoms: C17_24  and  N5_25 
ROOT
HETATM    1  C1  UNL     1      24.092   6.345  50.928  1.00  0.00     0.349 C 
HETATM    2  C2  UNL     1      24.973   7.544  50.861  1.00  0.00     0.061 C 
HETATM    3  C3  UNL     1      25.818   7.822  49.887  1.00  0.00     0.063 A 
HETATM    4  N2  UNL     1      26.666   8.965  49.814  1.00  0.00    -0.264 NA
HETATM    5  C4  UNL     1      27.463   9.129  48.787  1.00  0.00     0.103 A 
HETATM    6  C5  UNL     1      27.606   8.226  47.620  1.00  0.00     0.082 A 
HETATM    7  C12 UNL     1      26.689   7.085  47.800  1.00  0.00    -0.001 A 
HETATM    8  C13 UNL     1      25.860   6.850  48.802  1.00  0.00    -0.014 A 
HETATM    9  C14 UNL     1      24.981   5.644  48.857  1.00  0.00     0.170 C 
HETATM   10  N3  UNL     1      24.785   5.273  50.235  1.00  0.00    -0.296 N 
HETATM   11  C15 UNL     1      25.277   4.006  50.637  1.00  0.00     0.320 C 
HETATM   12  O1  UNL     1      25.813   3.481  49.601  1.00  0.00    -0.247 OA
HETATM   13  N4  UNL     1      25.276   3.296  51.866  1.00  0.00    -0.341 N 
HETATM   14  H13 UNL     1      24.801   3.873  52.594  1.00  0.00     0.164 HD
ENDROOT
BRANCH   1  15
HETATM   15  N1  UNL     1      23.776   6.000  52.300  1.00  0.00     0.105 N 
HETATM   16  H1  UNL     1      22.859   6.457  52.554  1.00  0.00     0.315 HD
HETATM   17  H2  UNL     1      23.710   4.947  52.420  1.00  0.00     0.315 HD
ENDBRANCH   1  15
BRANCH  13  18
HETATM   18  C16 UNL     1      25.957   2.021  51.596  1.00  0.00     0.143 C 
BRANCH  18  19
HETATM   19  C17 UNL     1      27.306   2.078  52.265  1.00  0.00     0.136 C 
BRANCH  19  20
HETATM   20  N5  UNL     1      27.748   0.803  52.728  1.00  0.00    -0.407 N 
HETATM   21  C18 UNL     1      28.854   0.807  53.625  1.00  0.00     0.143 C 
HETATM   22  C19 UNL     1      28.545  -0.185  54.744  1.00  0.00     0.187 C 
HETATM   23  O2  UNL     1      27.362   0.231  55.324  1.00  0.00    -0.388 OA
HETATM   24  C20 UNL     1      26.307  -0.030  54.479  1.00  0.00     0.187 C 
HETATM   25  C21 UNL     1      26.686  -0.092  53.036  1.00  0.00     0.143 C 
ENDBRANCH  19  20
ENDBRANCH  18  19
ENDBRANCH  13  18
BRANCH   6  26
HETATM   26  C6  UNL     1      29.002   7.804  47.365  1.00  0.00    -0.044 A 
HETATM   27  C7  UNL     1      29.623   8.004  46.148  1.00  0.00     0.011 A 
HETATM   28  C8  UNL     1      30.941   7.568  46.013  1.00  0.00     0.044 A 
HETATM   29  C9  UNL     1      31.587   6.958  47.072  1.00  0.00     0.138 A 
HETATM   30  F1  UNL     1      32.863   6.536  46.944  1.00  0.00    -0.204 F 
HETATM   31  C10 UNL     1      30.931   6.776  48.272  1.00  0.00     0.073 A 
HETATM   32 CL1  UNL     1      31.780   5.993  49.611  1.00  0.00    -0.081 Cl
HETATM   33  C11 UNL     1      29.608   7.196  48.456  1.00  0.00     0.035 A 
ENDBRANCH   6  26
TORSDOF 5
ENDMDL
MODEL 5
REMARK VINA RESULT:      -8.3      1.774      2.380
REMARK  5 active torsions:
REMARK  status: ('A' for Active; 'I' for Inactive)
REMARK    1  A    between atoms: N1_1  and  C1_2 
REMARK    2  A    between atoms: C5_7  and  C6_8 
REMARK       I    between atoms: N3_19  and  C15_20 
REMARK       I    between atoms: C15_20  and  N4_22 
REMARK    3  A    between atoms: N4_22  and  C16_23 
REMARK    4  A    between atoms: C16_23  and  C17_24 
REMARK    5  A    between atoms: C17_24  and  N5_25 
ROOT
HETATM    1  C1  UNL     1      22.989   5.689  51.168  1.00  0.00     0.349 C 
HETATM    2  C2  UNL     1      23.829   6.918  51.144  1.00  0.00     0.061 C 
HETATM    3  C3  UNL     1      24.798   7.168  50.284  1.00  0.00     0.063 A 
HETATM    4  N2  UNL     1      25.609   8.339  50.253  1.00  0.00    -0.264 NA
HETATM    5  C4  UNL     1      26.542   8.470  49.341  1.00  0.00     0.103 A 
HETATM    6  C5  UNL     1      26.885   7.499  48.274  1.00  0.00     0.082 A 
HETATM    7  C12 UNL     1      25.989   6.334  48.402  1.00  0.00    -0.001 A 
HETATM    8  C13 UNL     1      25.031   6.130  49.288  1.00  0.00    -0.014 A 
HETATM    9  C14 UNL     1      24.194   4.893  49.302  1.00  0.00     0.170 C 
HETATM   10  N3  UNL     1      23.811   4.605  50.660  1.00  0.00    -0.296 N 
HETATM   11  C15 UNL     1      24.282   3.389  51.219  1.00  0.00     0.320 C 
HETATM   12  O1  UNL     1      24.981   2.821  50.310  1.00  0.00    -0.247 OA
HETATM   13  N4  UNL     1      24.125   2.762  52.482  1.00  0.00    -0.341 N 
HETATM   14  H13 UNL     1      23.529   3.364  53.091  1.00  0.00     0.164 HD
ENDROOT
BRANCH   1  15
HETATM   15  N1  UNL     1      22.488   5.421  52.502  1.00  0.00     0.105 N 
HETATM   16  H1  UNL     1      23.254   4.950  53.056  1.00  0.00     0.315 HD
HETATM   17  H2  UNL     1      22.186   6.319  52.982  1.00  0.00     0.315 HD
ENDBRANCH   1  15
BRANCH  13  18
HETATM   18  C16 UNL     1      24.880   1.503  52.404  1.00  0.00     0.143 C 
BRANCH  18  19
HETATM   19  C17 UNL     1      25.760   1.427  53.624  1.00  0.00     0.136 C 
BRANCH  19  20
HETATM   20  N5  UNL     1      26.097   0.087  53.981  1.00  0.00    -0.407 N 
HETATM   21  C18 UNL     1      26.142  -0.857  52.916  1.00  0.00     0.143 C 
HETATM   22  C19 UNL     1      27.386  -1.719  53.115  1.00  0.00     0.187 C 
HETATM   23  O2  UNL     1      28.465  -0.857  53.136  1.00  0.00    -0.388 OA
HETATM   24  C20 UNL     1      28.478  -0.147  54.315  1.00  0.00     0.187 C 
HETATM   25  C21 UNL     1      27.134  -0.002  54.950  1.00  0.00     0.143 C 
ENDBRANCH  19  20
ENDBRANCH  18  19
ENDBRANCH  13  18
BRANCH   6  26
HETATM   26  C6  UNL     1      28.316   7.122  48.253  1.00  0.00    -0.044 A 
HETATM   27  C7  UNL     1      28.733   5.817  48.088  1.00  0.00     0.011 A 
HETATM   28  C8  UNL     1      30.106   5.570  48.083  1.00  0.00     0.044 A 
HETATM   29  C9  UNL     1      31.003   6.610  48.239  1.00  0.00     0.138 A 
HETATM   30  F1  UNL     1      32.332   6.374  48.234  1.00  0.00    -0.204 F 
HETATM   31  C10 UNL     1      30.545   7.901  48.401  1.00  0.00     0.073 A 
HETATM   32 CL1  UNL     1      31.714   9.214  48.599  1.00  0.00    -0.081 Cl
HETATM   33  C11 UNL     1      29.177   8.199  48.414  1.00  0.00     0.035 A 
ENDBRANCH   6  26
TORSDOF 5
ENDMDL
MODEL 6
REMARK VINA RESULT:      -8.3      3.533      7.851
REMARK  5 active torsions:
REMARK  status: ('A' for Active; 'I' for Inactive)
REMARK    1  A    between atoms: N1_1  and  C1_2 
REMARK    2  A    between atoms: C5_7  and  C6_8 
REMARK       I    between atoms: N3_19  and  C15_20 
REMARK       I    between atoms: C15_20  and  N4_22 
REMARK    3  A    between atoms: N4_22  and  C16_23 
REMARK    4  A    between atoms: C16_23  and  C17_24 
REMARK    5  A    between atoms: C17_24  and  N5_25 
ROOT
HETATM    1  C1  UNL     1      21.855   4.839  49.923  1.00  0.00     0.349 C 
HETATM    2  C2  UNL     1      21.794   3.366  50.126  1.00  0.00     0.061 C 
HETATM    3  C3  UNL     1      22.460   2.688  51.040  1.00  0.00     0.063 A 
HETATM    4  N2  UNL     1      22.411   1.278  51.242  1.00  0.00    -0.264 NA
HETATM    5  C4  UNL     1      23.122   0.723  52.192  1.00  0.00     0.103 A 
HETATM    6  C5  UNL     1      24.029   1.412  53.142  1.00  0.00     0.082 A 
HETATM    7  C12 UNL     1      24.003   2.856  52.843  1.00  0.00    -0.001 A 
HETATM    8  C13 UNL     1      23.316   3.488  51.908  1.00  0.00    -0.014 A 
HETATM    9  C14 UNL     1      23.385   4.967  51.715  1.00  0.00     0.170 C 
HETATM   10  N3  UNL     1      23.185   5.265  50.321  1.00  0.00    -0.296 N 
HETATM   11  C15 UNL     1      24.262   5.881  49.632  1.00  0.00     0.320 C 
HETATM   12  O1  UNL     1      25.204   6.018  50.486  1.00  0.00    -0.247 OA
HETATM   13  N4  UNL     1      24.450   6.323  48.297  1.00  0.00    -0.341 N 
HETATM   14  H13 UNL     1      23.584   6.131  47.748  1.00  0.00     0.164 HD
ENDROOT
BRANCH   1  15
HETATM   15  N1  UNL     1      21.550   5.195  48.551  1.00  0.00     0.105 N 
HETATM   16  H1  UNL     1      22.446   5.492  48.079  1.00  0.00     0.315 HD
HETATM   17  H2  UNL     1      21.115   4.376  48.035  1.00  0.00     0.315 HD
ENDBRANCH   1  15
BRANCH  13  18
HETATM   18  C16 UNL     1      25.811   6.877  48.244  1.00  0.00     0.143 C 
BRANCH  18  19
HETATM   19  C17 UNL     1      25.741   8.176  47.484  1.00  0.00     0.136 C 
BRANCH  19  20
HETATM   20  N5  UNL     1      26.369   9.255  48.174  1.00  0.00    -0.407 N 
HETATM   21  C18 UNL     1      26.527   9.097  49.581  1.00  0.00     0.143 C 
HETATM   22  C19 UNL     1      27.932   9.572  49.944  1.00  0.00     0.187 C 
HETATM   23  O2  UNL     1      28.811   8.810  49.200  1.00  0.00    -0.388 OA
HETATM   24  C20 UNL     1      28.766   9.194  47.879  1.00  0.00     0.187 C 
HETATM   25  C21 UNL     1      27.471   9.818  47.472  1.00  0.00     0.143 C 
ENDBRANCH  19  20
ENDBRANCH  18  19
ENDBRANCH  13  18
BRANCH   6  26
HETATM   26  C6  UNL     1      25.400   0.856  53.162  1.00  0.00    -0.044 A 
HETATM   27  C7  UNL     1      25.661  -0.475  52.902  1.00  0.00     0.011 A 
HETATM   28  C8  UNL     1      26.990  -0.896  52.948  1.00  0.00     0.044 A 
HETATM   29  C9  UNL     1      27.998   0.002  53.246  1.00  0.00     0.138 A 
HETATM   30  F1  UNL     1      29.284  -0.404  53.289  1.00  0.00    -0.204 F 
HETATM   31  C10 UNL     1      27.695   1.323  53.500  1.00  0.00     0.073 A 
HETATM   32 CL1  UNL     1      29.003   2.452  53.878  1.00  0.00    -0.081 Cl
HETATM   33  C11 UNL     1      26.377   1.794  53.466  1.00  0.00     0.035 A 
ENDBRANCH   6  26
TORSDOF 5
ENDMDL
MODEL 7
REMARK VINA RESULT:      -7.9      3.399      7.614
REMARK  5 active torsions:
REMARK  status: ('A' for Active; 'I' for Inactive)
REMARK    1  A    between atoms: N1_1  and  C1_2 
REMARK    2  A    between atoms: C5_7  and  C6_8 
REMARK       I    between atoms: N3_19  and  C15_20 
REMARK       I    between atoms: C15_20  and  N4_22 
REMARK    3  A    between atoms: N4_22  and  C16_23 
REMARK    4  A    between atoms: C16_23  and  C17_24 
REMARK    5  A    between atoms: C17_24  and  N5_25 
ROOT
HETATM    1  C1  UNL     1      22.664   5.498  48.844  1.00  0.00     0.349 C 
HETATM    2  C2  UNL     1      22.547   4.022  48.990  1.00  0.00     0.061 C 
HETATM    3  C3  UNL     1      22.898   3.325  50.054  1.00  0.00     0.063 A 
HETATM    4  N2  UNL     1      22.791   1.913  50.205  1.00  0.00    -0.264 NA
HETATM    5  C4  UNL     1      23.174   1.338  51.319  1.00  0.00     0.103 A 
HETATM    6  C5  UNL     1      23.739   2.006  52.515  1.00  0.00     0.082 A 
HETATM    7  C12 UNL     1      23.804   3.456  52.250  1.00  0.00    -0.001 A 
HETATM    8  C13 UNL     1      23.440   4.107  51.159  1.00  0.00    -0.014 A 
HETATM    9  C14 UNL     1      23.563   5.589  51.024  1.00  0.00     0.170 C 
HETATM   10  N3  UNL     1      23.805   5.912  49.642  1.00  0.00    -0.296 N 
HETATM   11  C15 UNL     1      25.041   6.536  49.333  1.00  0.00     0.320 C 
HETATM   12  O1  UNL     1      25.671   6.655  50.439  1.00  0.00    -0.247 OA
HETATM   13  N4  UNL     1      25.633   7.002  48.131  1.00  0.00    -0.341 N 
HETATM   14  H13 UNL     1      24.981   6.823  47.336  1.00  0.00     0.164 HD
ENDROOT
BRANCH   1  15
HETATM   15  N1  UNL     1      22.800   5.880  47.451  1.00  0.00     0.105 N 
HETATM   16  H1  UNL     1      22.531   6.896  47.358  1.00  0.00     0.315 HD
HETATM   17  H2  UNL     1      23.795   5.729  47.112  1.00  0.00     0.315 HD
ENDBRANCH   1  15
BRANCH  13  18
HETATM   18  C16 UNL     1      26.942   7.551  48.513  1.00  0.00     0.143 C 
BRANCH  18  19
HETATM   19  C17 UNL     1      27.717   7.799  47.244  1.00  0.00     0.136 C 
BRANCH  19  20
HETATM   20  N5  UNL     1      28.977   8.423  47.478  1.00  0.00    -0.407 N 
HETATM   21  C18 UNL     1      29.245   8.821  48.819  1.00  0.00     0.143 C 
HETATM   22  C19 UNL     1      30.685   8.428  49.139  1.00  0.00     0.187 C 
HETATM   23  O2  UNL     1      30.775   7.064  48.939  1.00  0.00    -0.388 OA
HETATM   24  C20 UNL     1      30.748   6.783  47.592  1.00  0.00     0.187 C 
HETATM   25  C21 UNL     1      30.054   7.820  46.770  1.00  0.00     0.143 C 
ENDBRANCH  19  20
ENDBRANCH  18  19
ENDBRANCH  13  18
BRANCH   6  26
HETATM   26  C6  UNL     1      25.038   1.445  52.950  1.00  0.00    -0.044 A 
HETATM   27  C7  UNL     1      25.940   2.170  53.702  1.00  0.00     0.011 A 
HETATM   28  C8  UNL     1      27.136   1.545  54.060  1.00  0.00     0.044 A 
HETATM   29  C9  UNL     1      27.390   0.245  53.665  1.00  0.00     0.138 A 
HETATM   30  F1  UNL     1      28.546  -0.361  54.011  1.00  0.00    -0.204 F 
HETATM   31  C10 UNL     1      26.462  -0.445  52.914  1.00  0.00     0.073 A 
HETATM   32 CL1  UNL     1      26.812  -2.107  52.422  1.00  0.00    -0.081 Cl
HETATM   33  C11 UNL     1      25.248   0.139  52.530  1.00  0.00     0.035 A 
ENDBRANCH   6  26
TORSDOF 5
ENDMDL
MODEL 8
REMARK VINA RESULT:      -7.8      7.776     10.756
REMARK  5 active torsions:
REMARK  status: ('A' for Active; 'I' for Inactive)
REMARK    1  A    between atoms: N1_1  and  C1_2 
REMARK    2  A    between atoms: C5_7  and  C6_8 
REMARK       I    between atoms: N3_19  and  C15_20 
REMARK       I    between atoms: C15_20  and  N4_22 
REMARK    3  A    between atoms: N4_22  and  C16_23 
REMARK    4  A    between atoms: C16_23  and  C17_24 
REMARK    5  A    between atoms: C17_24  and  N5_25 
ROOT
HETATM    1  C1  UNL     1      20.091   5.482  49.269  1.00  0.00     0.349 C 
HETATM    2  C2  UNL     1      21.368   5.482  50.033  1.00  0.00     0.061 C 
HETATM    3  C3  UNL     1      22.066   4.412  50.362  1.00  0.00     0.063 A 
HETATM    4  N2  UNL     1      23.288   4.401  51.094  1.00  0.00    -0.264 NA
HETATM    5  C4  UNL     1      23.889   3.265  51.356  1.00  0.00     0.103 A 
HETATM    6  C5  UNL     1      23.434   1.909  50.967  1.00  0.00     0.082 A 
HETATM    7  C12 UNL     1      22.169   2.040  50.220  1.00  0.00    -0.001 A 
HETATM    8  C13 UNL     1      21.505   3.142  49.918  1.00  0.00    -0.014 A 
HETATM    9  C14 UNL     1      20.225   3.129  49.151  1.00  0.00     0.170 C 
HETATM   10  N3  UNL     1      19.412   4.237  49.582  1.00  0.00    -0.296 N 
HETATM   11  C15 UNL     1      18.173   3.926  50.198  1.00  0.00     0.320 C 
HETATM   12  O1  UNL     1      18.091   2.650  50.220  1.00  0.00    -0.247 OA
HETATM   13  N4  UNL     1      17.120   4.709  50.737  1.00  0.00    -0.341 N 
HETATM   14  H13 UNL     1      17.357   5.719  50.634  1.00  0.00     0.164 HD
ENDROOT
BRANCH   1  15
HETATM   15  N1  UNL     1      19.285   6.644  49.591  1.00  0.00     0.105 N 
HETATM   16  H1  UNL     1      18.809   6.471  50.517  1.00  0.00     0.315 HD
HETATM   17  H2  UNL     1      19.885   7.519  49.643  1.00  0.00     0.315 HD
ENDBRANCH   1  15
BRANCH  13  18
HETATM   18  C16 UNL     1      16.115   3.753  51.225  1.00  0.00     0.143 C 
BRANCH  18  19
HETATM   19  C17 UNL     1      15.665   4.223  52.584  1.00  0.00     0.136 C 
BRANCH  19  20
HETATM   20  N5  UNL     1      14.395   3.694  52.960  1.00  0.00    -0.407 N 
HETATM   21  C18 UNL     1      13.731   4.350  54.035  1.00  0.00     0.143 C 
HETATM   22  C19 UNL     1      12.261   4.496  53.650  1.00  0.00     0.187 C 
HETATM   23  O2  UNL     1      12.231   5.207  52.466  1.00  0.00    -0.388 OA
HETATM   24  C20 UNL     1      12.669   4.414  51.430  1.00  0.00     0.187 C 
HETATM   25  C21 UNL     1      13.585   3.312  51.854  1.00  0.00     0.143 C 
ENDBRANCH  19  20
ENDBRANCH  18  19
ENDBRANCH  13  18
BRANCH   6  26
HETATM   26  C6  UNL     1      23.332   0.968  52.106  1.00  0.00    -0.044 A 
HETATM   27  C7  UNL     1      24.431   0.591  52.851  1.00  0.00     0.011 A 
HETATM   28  C8  UNL     1      24.225  -0.302  53.903  1.00  0.00     0.044 A 
HETATM   29  C9  UNL     1      22.958  -0.781  54.175  1.00  0.00     0.138 A 
HETATM   30  F1  UNL     1      22.757  -1.644  55.193  1.00  0.00    -0.204 F 
HETATM   31  C10 UNL     1      21.886  -0.379  53.406  1.00  0.00     0.073 A 
HETATM   32 CL1  UNL     1      20.274  -1.007  53.775  1.00  0.00    -0.081 Cl
HETATM   33  C11 UNL     1      22.042   0.514  52.339  1.00  0.00     0.035 A 
ENDBRANCH   6  26
TORSDOF 5
ENDMDL
MODEL 9
REMARK VINA RESULT:      -7.8      3.008      4.922
REMARK  5 active torsions:
REMARK  status: ('A' for Active; 'I' for Inactive)
REMARK    1  A    between atoms: N1_1  and  C1_2 
REMARK    2  A    between atoms: C5_7  and  C6_8 
REMARK       I    between atoms: N3_19  and  C15_20 
REMARK       I    between atoms: C15_20  and  N4_22 
REMARK    3  A    between atoms: N4_22  and  C16_23 
REMARK    4  A    between atoms: C16_23  and  C17_24 
REMARK    5  A    between atoms: C17_24  and  N5_25 
ROOT
HETATM    1  C1  UNL     1      29.051   9.520  48.898  1.00  0.00     0.349 C 
HETATM    2  C2  UNL     1      30.486   9.272  49.205  1.00  0.00     0.061 C 
HETATM    3  C3  UNL     1      31.265   8.405  48.586  1.00  0.00     0.063 A 
HETATM    4  N2  UNL     1      32.639   8.159  48.873  1.00  0.00    -0.264 NA
HETATM    5  C4  UNL     1      33.307   7.269  48.180  1.00  0.00     0.103 A 
HETATM    6  C5  UNL     1      32.788   6.434  47.070  1.00  0.00     0.082 A 
HETATM    7  C12 UNL     1      31.367   6.770  46.862  1.00  0.00    -0.001 A 
HETATM    8  C13 UNL     1      30.628   7.650  47.515  1.00  0.00    -0.014 A 
HETATM    9  C14 UNL     1      29.189   7.890  47.198  1.00  0.00     0.170 C 
HETATM   10  N3  UNL     1      28.502   8.269  48.405  1.00  0.00    -0.296 N 
HETATM   11  C15 UNL     1      27.479   7.401  48.865  1.00  0.00     0.320 C 
HETATM   12  O1  UNL     1      27.428   6.431  48.033  1.00  0.00    -0.247 OA
HETATM   13  N4  UNL     1      26.596   7.424  49.975  1.00  0.00    -0.341 N 
HETATM   14  H13 UNL     1      26.779   8.281  50.541  1.00  0.00     0.164 HD
ENDROOT
BRANCH   1  15
HETATM   15  N1  UNL     1      28.341  10.011  50.063  1.00  0.00     0.105 N 
HETATM   16  H1  UNL     1      29.028  10.528  50.676  1.00  0.00     0.315 HD
HETATM   17  H2  UNL     1      27.545  10.654  49.779  1.00  0.00     0.315 HD
ENDBRANCH   1  15
BRANCH  13  18
HETATM   18  C16 UNL     1      25.775   6.209  49.863  1.00  0.00     0.143 C 
BRANCH  18  19
HETATM   19  C17 UNL     1      24.554   6.407  50.724  1.00  0.00     0.136 C 
BRANCH  19  20
HETATM   20  N5  UNL     1      23.591   5.367  50.565  1.00  0.00    -0.407 N 
HETATM   21  C18 UNL     1      23.801   4.474  49.475  1.00  0.00     0.143 C 
HETATM   22  C19 UNL     1      23.538   3.057  49.982  1.00  0.00     0.187 C 
HETATM   23  O2  UNL     1      24.401   2.851  51.041  1.00  0.00    -0.388 OA
HETATM   24  C20 UNL     1      23.984   3.574  52.136  1.00  0.00     0.187 C 
HETATM   25  C21 UNL     1      23.174   4.782  51.792  1.00  0.00     0.143 C 
ENDBRANCH  19  20
ENDBRANCH  18  19
ENDBRANCH  13  18
BRANCH   6  26
HETATM   26  C6  UNL     1      33.011   4.984  47.264  1.00  0.00    -0.044 A 
HETATM   27  C7  UNL     1      34.136   4.488  47.892  1.00  0.00     0.011 A 
HETATM   28  C8  UNL     1      34.249   3.104  48.024  1.00  0.00     0.044 A 
HETATM   29  C9  UNL     1      33.258   2.273  47.535  1.00  0.00     0.138 A 
HETATM   30  F1  UNL     1      33.365   0.933  47.663  1.00  0.00    -0.204 F 
HETATM   31  C10 UNL     1      32.149   2.808  46.914  1.00  0.00     0.073 A 
HETATM   32 CL1  UNL     1      30.895   1.723  46.299  1.00  0.00    -0.081 Cl
HETATM   33  C11 UNL     1      31.991   4.191  46.758  1.00  0.00     0.035 A 
ENDBRANCH   6  26
TORSDOF 5
ENDMDL
