MODEL 1
REMARK VINA RESULT:      -7.7      0.000      0.000
REMARK  6 active torsions:
REMARK  status: ('A' for Active; 'I' for Inactive)
REMARK    1  A    between atoms: C2_2  and  O1_3 
REMARK    2  A    between atoms: O1_3  and  C3_4 
REMARK    3  A    between atoms: C6_7  and  N1_8 
REMARK    4  A    between atoms: N1_8  and  C7_9 
REMARK    5  A    between atoms: C7_9  and  C8_10 
REMARK    6  A    between atoms: C12_15  and  C13_16 
ROOT
HETATM    1  C7  UNL     1      24.398   1.322  52.150  1.00  0.00     0.158 C 
ENDROOT
BRANCH   1   2
HETATM    2  N1  UNL     1      23.431   1.043  53.183  1.00  0.00    -0.386 N 
HETATM    3  H6  UNL     1      23.851   1.314  54.121  1.00  0.00     0.160 HD
BRANCH   2   4
HETATM    4  C6  UNL     1      22.137   0.522  53.217  1.00  0.00     0.028 A 
HETATM    5  C5  UNL     1      21.041   1.006  52.541  1.00  0.00     0.032 A 
HETATM    6  C4  UNL     1      19.761   0.496  52.558  1.00  0.00     0.039 A 
HETATM    7  C3  UNL     1      19.600  -0.618  53.346  1.00  0.00     0.074 A 
HETATM    8  C16 UNL     1      20.639  -1.173  54.058  1.00  0.00     0.039 A 
HETATM    9  C15 UNL     1      21.880  -0.595  53.979  1.00  0.00     0.032 A 
BRANCH   7  10
HETATM   10  O1  UNL     1      18.352  -1.205  53.428  1.00  0.00    -0.324 OA
BRANCH  10  11
HETATM   11  C2  UNL     1      18.207  -2.565  53.658  1.00  0.00     0.132 C 
HETATM   12  C1  UNL     1      17.206  -3.442  53.599  1.00  0.00     0.037 C 
ENDBRANCH  10  11
ENDBRANCH   7  10
ENDBRANCH   2   4
ENDBRANCH   1   2
BRANCH   1  13
HETATM   13  C8  UNL     1      25.670   0.685  52.500  1.00  0.00    -0.040 A 
HETATM   14  C9  UNL     1      25.714  -0.703  52.293  1.00  0.00     0.010 A 
HETATM   15  C10 UNL     1      26.805  -1.498  52.572  1.00  0.00     0.025 A 
HETATM   16  C11 UNL     1      27.929  -0.926  53.082  1.00  0.00     0.049 A 
HETATM   17 CL1  UNL     1      29.328  -1.903  53.445  1.00  0.00    -0.083 Cl
HETATM   18  C12 UNL     1      27.941   0.419  53.303  1.00  0.00     0.070 A 
HETATM   19  C14 UNL     1      26.838   1.191  53.016  1.00  0.00     0.026 A 
BRANCH  18  20
HETATM   20  C13 UNL     1      29.164   1.024  53.855  1.00  0.00     0.419 C 
HETATM   21  F1  UNL     1      29.150   0.762  55.227  1.00  0.00    -0.166 F 
HETATM   22  F2  UNL     1      29.071   2.396  53.722  1.00  0.00    -0.166 F 
HETATM   23  F3  UNL     1      30.313   0.539  53.269  1.00  0.00    -0.166 F 
ENDBRANCH  18  20
ENDBRANCH   1  13
TORSDOF 6
ENDMDL
MODEL 2
REMARK VINA RESULT:      -7.7      4.553      7.145
REMARK  6 active torsions:
REMARK  status: ('A' for Active; 'I' for Inactive)
REMARK    1  A    between atoms: C2_2  and  O1_3 
REMARK    2  A    between atoms: O1_3  and  C3_4 
REMARK    3  A    between atoms: C6_7  and  N1_8 
REMARK    4  A    between atoms: N1_8  and  C7_9 
REMARK    5  A    between atoms: C7_9  and  C8_10 
REMARK    6  A    between atoms: C12_15  and  C13_16 
ROOT
HETATM    1  C7  UNL     1      24.493   2.265  52.404  1.00  0.00     0.158 C 
ENDROOT
BRANCH   1   2
HETATM    2  N1  UNL     1      24.538   2.716  51.034  1.00  0.00    -0.386 N 
HETATM    3  H6  UNL     1      23.808   2.180  50.478  1.00  0.00     0.160 HD
BRANCH   2   4
HETATM    4  C6  UNL     1      25.292   3.649  50.320  1.00  0.00     0.028 A 
HETATM    5  C5  UNL     1      26.484   3.418  49.674  1.00  0.00     0.032 A 
HETATM    6  C4  UNL     1      27.233   4.326  48.958  1.00  0.00     0.039 A 
HETATM    7  C3  UNL     1      26.698   5.591  48.905  1.00  0.00     0.074 A 
HETATM    8  C16 UNL     1      25.510   5.915  49.520  1.00  0.00     0.039 A 
HETATM    9  C15 UNL     1      24.834   4.943  50.211  1.00  0.00     0.032 A 
BRANCH   7  10
HETATM   10  O1  UNL     1      27.375   6.574  48.209  1.00  0.00    -0.324 OA
BRANCH  10  11
HETATM   11  C2  UNL     1      28.761   6.609  48.173  1.00  0.00     0.132 C 
HETATM   12  C1  UNL     1      29.685   6.931  47.268  1.00  0.00     0.037 C 
ENDBRANCH  10  11
ENDBRANCH   7  10
ENDBRANCH   2   4
ENDBRANCH   1   2
BRANCH   1  13
HETATM   13  C8  UNL     1      25.674   1.440  52.674  1.00  0.00    -0.040 A 
HETATM   14  C9  UNL     1      25.559   0.096  52.285  1.00  0.00     0.010 A 
HETATM   15  C10 UNL     1      26.544  -0.852  52.463  1.00  0.00     0.025 A 
HETATM   16  C11 UNL     1      27.716  -0.490  53.052  1.00  0.00     0.049 A 
HETATM   17 CL1  UNL     1      28.982  -1.665  53.290  1.00  0.00    -0.083 Cl
HETATM   18  C12 UNL     1      27.880   0.803  53.450  1.00  0.00     0.070 A 
HETATM   19  C14 UNL     1      26.881   1.732  53.261  1.00  0.00     0.026 A 
BRANCH  18  20
HETATM   20  C13 UNL     1      29.152   1.181  54.086  1.00  0.00     0.419 C 
HETATM   21  F1  UNL     1      29.086   0.723  55.404  1.00  0.00    -0.166 F 
HETATM   22  F2  UNL     1      29.213   2.559  54.158  1.00  0.00    -0.166 F 
HETATM   23  F3  UNL     1      30.251   0.663  53.435  1.00  0.00    -0.166 F 
ENDBRANCH  18  20
ENDBRANCH   1  13
TORSDOF 6
ENDMDL
MODEL 3
REMARK VINA RESULT:      -7.5      4.262      7.305
REMARK  6 active torsions:
REMARK  status: ('A' for Active; 'I' for Inactive)
REMARK    1  A    between atoms: C2_2  and  O1_3 
REMARK    2  A    between atoms: O1_3  and  C3_4 
REMARK    3  A    between atoms: C6_7  and  N1_8 
REMARK    4  A    between atoms: N1_8  and  C7_9 
REMARK    5  A    between atoms: C7_9  and  C8_10 
REMARK    6  A    between atoms: C12_15  and  C13_16 
ROOT
HETATM    1  C7  UNL     1      23.668   3.486  51.881  1.00  0.00     0.158 C 
ENDROOT
BRANCH   1   2
HETATM    2  N1  UNL     1      24.956   3.198  52.466  1.00  0.00    -0.386 N 
HETATM    3  H6  UNL     1      25.401   4.114  52.768  1.00  0.00     0.160 HD
BRANCH   2   4
HETATM    4  C6  UNL     1      25.701   2.044  52.706  1.00  0.00     0.028 A 
HETATM    5  C5  UNL     1      26.055   1.089  51.780  1.00  0.00     0.032 A 
HETATM    6  C4  UNL     1      26.798  -0.050  52.001  1.00  0.00     0.039 A 
HETATM    7  C3  UNL     1      27.215  -0.217  53.300  1.00  0.00     0.074 A 
HETATM    8  C16 UNL     1      26.910   0.686  54.293  1.00  0.00     0.039 A 
HETATM    9  C15 UNL     1      26.164   1.792  53.978  1.00  0.00     0.032 A 
BRANCH   7  10
HETATM   10  O1  UNL     1      27.968  -1.329  53.623  1.00  0.00    -0.324 OA
BRANCH  10  11
HETATM   11  C2  UNL     1      29.353  -1.274  53.670  1.00  0.00     0.132 C 
HETATM   12  C1  UNL     1      30.281  -0.348  53.432  1.00  0.00     0.037 C 
ENDBRANCH  10  11
ENDBRANCH   7  10
ENDBRANCH   2   4
ENDBRANCH   1   2
BRANCH   1  13
HETATM   13  C8  UNL     1      22.723   2.434  52.265  1.00  0.00    -0.040 A 
HETATM   14  C9  UNL     1      21.427   2.585  51.747  1.00  0.00     0.010 A 
HETATM   15  C10 UNL     1      20.383   1.719  51.996  1.00  0.00     0.025 A 
HETATM   16  C11 UNL     1      20.595   0.638  52.794  1.00  0.00     0.049 A 
HETATM   17 CL1  UNL     1      19.296  -0.477  53.130  1.00  0.00    -0.083 Cl
HETATM   18  C12 UNL     1      21.835   0.444  53.324  1.00  0.00     0.070 A 
HETATM   19  C14 UNL     1      22.861   1.323  53.060  1.00  0.00     0.026 A 
BRANCH  18  20
HETATM   20  C13 UNL     1      22.049  -0.730  54.186  1.00  0.00     0.419 C 
HETATM   21  F1  UNL     1      21.343  -0.488  55.366  1.00  0.00    -0.166 F 
HETATM   22  F2  UNL     1      23.384  -0.777  54.537  1.00  0.00    -0.166 F 
HETATM   23  F3  UNL     1      21.643  -1.908  53.598  1.00  0.00    -0.166 F 
ENDBRANCH  18  20
ENDBRANCH   1  13
TORSDOF 6
ENDMDL
MODEL 4
REMARK VINA RESULT:      -7.4      5.185      7.243
REMARK  6 active torsions:
REMARK  status: ('A' for Active; 'I' for Inactive)
REMARK    1  A    between atoms: C2_2  and  O1_3 
REMARK    2  A    between atoms: O1_3  and  C3_4 
REMARK    3  A    between atoms: C6_7  and  N1_8 
REMARK    4  A    between atoms: N1_8  and  C7_9 
REMARK    5  A    between atoms: C7_9  and  C8_10 
REMARK    6  A    between atoms: C12_15  and  C13_16 
ROOT
HETATM    1  C7  UNL     1      22.953   2.910  51.304  1.00  0.00     0.158 C 
ENDROOT
BRANCH   1   2
HETATM    2  N1  UNL     1      23.422   2.511  52.609  1.00  0.00    -0.386 N 
HETATM    3  H6  UNL     1      22.755   2.899  53.340  1.00  0.00     0.160 HD
BRANCH   2   4
HETATM    4  C6  UNL     1      24.501   1.771  53.093  1.00  0.00     0.028 A 
HETATM    5  C5  UNL     1      25.708   2.268  53.526  1.00  0.00     0.032 A 
HETATM    6  C4  UNL     1      26.778   1.550  54.015  1.00  0.00     0.039 A 
HETATM    7  C3  UNL     1      26.581   0.191  54.059  1.00  0.00     0.074 A 
HETATM    8  C16 UNL     1      25.406  -0.397  53.647  1.00  0.00     0.039 A 
HETATM    9  C15 UNL     1      24.395   0.400  53.175  1.00  0.00     0.032 A 
BRANCH   7  10
HETATM   10  O1  UNL     1      27.596  -0.617  54.535  1.00  0.00    -0.324 OA
BRANCH  10  11
HETATM   11  C2  UNL     1      28.929  -0.307  54.312  1.00  0.00     0.132 C 
HETATM   12  C1  UNL     1      29.919  -0.818  53.580  1.00  0.00     0.037 C 
ENDBRANCH  10  11
ENDBRANCH   7  10
ENDBRANCH   2   4
ENDBRANCH   1   2
BRANCH   1  13
HETATM   13  C8  UNL     1      23.933   3.816  50.700  1.00  0.00    -0.040 A 
HETATM   14  C9  UNL     1      24.940   3.185  49.952  1.00  0.00     0.010 A 
HETATM   15  C10 UNL     1      25.968   3.848  49.315  1.00  0.00     0.025 A 
HETATM   16  C11 UNL     1      26.035   5.205  49.400  1.00  0.00     0.049 A 
HETATM   17 CL1  UNL     1      27.321   6.074  48.605  1.00  0.00    -0.083 Cl
HETATM   18  C12 UNL     1      25.082   5.867  50.114  1.00  0.00     0.070 A 
HETATM   19  C14 UNL     1      24.066   5.182  50.741  1.00  0.00     0.026 A 
BRANCH  18  20
HETATM   20  C13 UNL     1      25.168   7.335  50.197  1.00  0.00     0.419 C 
HETATM   21  F1  UNL     1      24.138   7.743  51.049  1.00  0.00    -0.166 F 
HETATM   22  F2  UNL     1      24.872   7.860  48.954  1.00  0.00    -0.166 F 
HETATM   23  F3  UNL     1      26.391   7.775  50.651  1.00  0.00    -0.166 F 
ENDBRANCH  18  20
ENDBRANCH   1  13
TORSDOF 6
ENDMDL
MODEL 5
REMARK VINA RESULT:      -7.2      5.818      8.582
REMARK  6 active torsions:
REMARK  status: ('A' for Active; 'I' for Inactive)
REMARK    1  A    between atoms: C2_2  and  O1_3 
REMARK    2  A    between atoms: O1_3  and  C3_4 
REMARK    3  A    between atoms: C6_7  and  N1_8 
REMARK    4  A    between atoms: N1_8  and  C7_9 
REMARK    5  A    between atoms: C7_9  and  C8_10 
REMARK    6  A    between atoms: C12_15  and  C13_16 
ROOT
HETATM    1  C7  UNL     1      23.519   2.456  50.409  1.00  0.00     0.158 C 
ENDROOT
BRANCH   1   2
HETATM    2  N1  UNL     1      24.370   3.582  50.707  1.00  0.00    -0.386 N 
HETATM    3  H6  UNL     1      24.205   3.872  51.716  1.00  0.00     0.160 HD
BRANCH   2   4
HETATM    4  C6  UNL     1      25.309   4.332  49.998  1.00  0.00     0.028 A 
HETATM    5  C5  UNL     1      25.243   5.677  49.719  1.00  0.00     0.032 A 
HETATM    6  C4  UNL     1      26.167   6.431  49.029  1.00  0.00     0.039 A 
HETATM    7  C3  UNL     1      27.261   5.728  48.586  1.00  0.00     0.074 A 
HETATM    8  C16 UNL     1      27.413   4.380  48.817  1.00  0.00     0.039 A 
HETATM    9  C15 UNL     1      26.440   3.712  49.515  1.00  0.00     0.032 A 
BRANCH   7  10
HETATM   10  O1  UNL     1      28.245   6.396  47.883  1.00  0.00    -0.324 OA
BRANCH  10  11
HETATM   11  C2  UNL     1      29.587   6.080  48.041  1.00  0.00     0.132 C 
HETATM   12  C1  UNL     1      30.737   6.512  47.526  1.00  0.00     0.037 C 
ENDBRANCH  10  11
ENDBRANCH   7  10
ENDBRANCH   2   4
ENDBRANCH   1   2
BRANCH   1  13
HETATM   13  C8  UNL     1      23.513   1.544  51.555  1.00  0.00    -0.040 A 
HETATM   14  C9  UNL     1      24.767   1.334  52.151  1.00  0.00     0.010 A 
HETATM   15  C10 UNL     1      24.988   0.503  53.229  1.00  0.00     0.025 A 
HETATM   16  C11 UNL     1      23.938  -0.171  53.772  1.00  0.00     0.049 A 
HETATM   17 CL1  UNL     1      24.183  -1.230  55.136  1.00  0.00    -0.083 Cl
HETATM   18  C12 UNL     1      22.698  -0.004  53.232  1.00  0.00     0.070 A 
HETATM   19  C14 UNL     1      22.504   0.831  52.155  1.00  0.00     0.026 A 
BRANCH  18  20
HETATM   20  C13 UNL     1      21.572  -0.741  53.830  1.00  0.00     0.419 C 
HETATM   21  F1  UNL     1      20.449  -0.440  53.056  1.00  0.00    -0.166 F 
HETATM   22  F2  UNL     1      21.328  -0.220  55.085  1.00  0.00    -0.166 F 
HETATM   23  F3  UNL     1      21.789  -2.100  53.883  1.00  0.00    -0.166 F 
ENDBRANCH  18  20
ENDBRANCH   1  13
TORSDOF 6
ENDMDL
MODEL 6
REMARK VINA RESULT:      -7.2      4.942      7.701
REMARK  6 active torsions:
REMARK  status: ('A' for Active; 'I' for Inactive)
REMARK    1  A    between atoms: C2_2  and  O1_3 
REMARK    2  A    between atoms: O1_3  and  C3_4 
REMARK    3  A    between atoms: C6_7  and  N1_8 
REMARK    4  A    between atoms: N1_8  and  C7_9 
REMARK    5  A    between atoms: C7_9  and  C8_10 
REMARK    6  A    between atoms: C12_15  and  C13_16 
ROOT
HETATM    1  C7  UNL     1      22.737   2.783  50.726  1.00  0.00     0.158 C 
ENDROOT
BRANCH   1   2
HETATM    2  N1  UNL     1      23.721   2.935  49.681  1.00  0.00    -0.386 N 
HETATM    3  H6  UNL     1      23.632   2.114  49.013  1.00  0.00     0.160 HD
BRANCH   2   4
HETATM    4  C6  UNL     1      24.708   3.872  49.376  1.00  0.00     0.028 A 
HETATM    5  C5  UNL     1      24.510   5.184  49.013  1.00  0.00     0.032 A 
HETATM    6  C4  UNL     1      25.475   6.122  48.719  1.00  0.00     0.039 A 
HETATM    7  C3  UNL     1      26.766   5.660  48.809  1.00  0.00     0.074 A 
HETATM    8  C16 UNL     1      27.061   4.364  49.164  1.00  0.00     0.039 A 
HETATM    9  C15 UNL     1      26.033   3.500  49.439  1.00  0.00     0.032 A 
BRANCH   7  10
HETATM   10  O1  UNL     1      27.807   6.526  48.533  1.00  0.00    -0.324 OA
BRANCH  10  11
HETATM   11  C2  UNL     1      28.981   6.080  47.946  1.00  0.00     0.132 C 
HETATM   12  C1  UNL     1      30.265   6.023  48.300  1.00  0.00     0.037 C 
ENDBRANCH  10  11
ENDBRANCH   7  10
ENDBRANCH   2   4
ENDBRANCH   1   2
BRANCH   1  13
HETATM   13  C8  UNL     1      23.218   1.795  51.695  1.00  0.00    -0.040 A 
HETATM   14  C9  UNL     1      22.248   1.329  52.597  1.00  0.00     0.010 A 
HETATM   15  C10 UNL     1      22.491   0.412  53.597  1.00  0.00     0.025 A 
HETATM   16  C11 UNL     1      23.747  -0.092  53.743  1.00  0.00     0.049 A 
HETATM   17 CL1  UNL     1      24.088  -1.255  54.998  1.00  0.00    -0.083 Cl
HETATM   18  C12 UNL     1      24.727   0.327  52.895  1.00  0.00     0.070 A 
HETATM   19  C14 UNL     1      24.459   1.244  51.904  1.00  0.00     0.026 A 
BRANCH  18  20
HETATM   20  C13 UNL     1      26.080  -0.227  53.065  1.00  0.00     0.419 C 
HETATM   21  F1  UNL     1      26.868   0.338  52.059  1.00  0.00    -0.166 F 
HETATM   22  F2  UNL     1      26.034  -1.583  52.804  1.00  0.00    -0.166 F 
HETATM   23  F3  UNL     1      26.610   0.026  54.311  1.00  0.00    -0.166 F 
ENDBRANCH  18  20
ENDBRANCH   1  13
TORSDOF 6
ENDMDL
MODEL 7
REMARK VINA RESULT:      -7.2      5.979      8.798
REMARK  6 active torsions:
REMARK  status: ('A' for Active; 'I' for Inactive)
REMARK    1  A    between atoms: C2_2  and  O1_3 
REMARK    2  A    between atoms: O1_3  and  C3_4 
REMARK    3  A    between atoms: C6_7  and  N1_8 
REMARK    4  A    between atoms: N1_8  and  C7_9 
REMARK    5  A    between atoms: C7_9  and  C8_10 
REMARK    6  A    between atoms: C12_15  and  C13_16 
ROOT
HETATM    1  C7  UNL     1      25.262   1.963  51.552  1.00  0.00     0.158 C 
ENDROOT
BRANCH   1   2
HETATM    2  N1  UNL     1      24.966   3.191  50.854  1.00  0.00    -0.386 N 
HETATM    3  H6  UNL     1      23.929   3.396  50.956  1.00  0.00     0.160 HD
BRANCH   2   4
HETATM    4  C6  UNL     1      25.705   4.114  50.113  1.00  0.00     0.028 A 
HETATM    5  C5  UNL     1      26.858   3.862  49.405  1.00  0.00     0.032 A 
HETATM    6  C4  UNL     1      27.591   4.761  48.662  1.00  0.00     0.039 A 
HETATM    7  C3  UNL     1      27.086   6.039  48.649  1.00  0.00     0.074 A 
HETATM    8  C16 UNL     1      25.939   6.384  49.328  1.00  0.00     0.039 A 
HETATM    9  C15 UNL     1      25.275   5.420  50.042  1.00  0.00     0.032 A 
BRANCH   7  10
HETATM   10  O1  UNL     1      27.750   7.014  47.931  1.00  0.00    -0.324 OA
BRANCH  10  11
HETATM   11  C2  UNL     1      27.918   8.295  48.436  1.00  0.00     0.132 C 
HETATM   12  C1  UNL     1      28.880   8.945  49.089  1.00  0.00     0.037 C 
ENDBRANCH  10  11
ENDBRANCH   7  10
ENDBRANCH   2   4
ENDBRANCH   1   2
BRANCH   1  13
HETATM   13  C8  UNL     1      24.005   1.330  51.959  1.00  0.00    -0.040 A 
HETATM   14  C9  UNL     1      22.911   1.591  51.119  1.00  0.00     0.010 A 
HETATM   15  C10 UNL     1      21.636   1.109  51.327  1.00  0.00     0.025 A 
HETATM   16  C11 UNL     1      21.393   0.324  52.412  1.00  0.00     0.049 A 
HETATM   17 CL1  UNL     1      19.792  -0.304  52.705  1.00  0.00    -0.083 Cl
HETATM   18  C12 UNL     1      22.420   0.039  53.261  1.00  0.00     0.070 A 
HETATM   19  C14 UNL     1      23.684   0.534  53.032  1.00  0.00     0.026 A 
BRANCH  18  20
HETATM   20  C13 UNL     1      22.143  -0.811  54.431  1.00  0.00     0.419 C 
HETATM   21  F1  UNL     1      21.259  -0.094  55.240  1.00  0.00    -0.166 F 
HETATM   22  F2  UNL     1      23.309  -0.947  55.158  1.00  0.00    -0.166 F 
HETATM   23  F3  UNL     1      21.618  -2.038  54.089  1.00  0.00    -0.166 F 
ENDBRANCH  18  20
ENDBRANCH   1  13
TORSDOF 6
ENDMDL
MODEL 8
REMARK VINA RESULT:      -7.2      5.949      8.765
REMARK  6 active torsions:
REMARK  status: ('A' for Active; 'I' for Inactive)
REMARK    1  A    between atoms: C2_2  and  O1_3 
REMARK    2  A    between atoms: O1_3  and  C3_4 
REMARK    3  A    between atoms: C6_7  and  N1_8 
REMARK    4  A    between atoms: N1_8  and  C7_9 
REMARK    5  A    between atoms: C7_9  and  C8_10 
REMARK    6  A    between atoms: C12_15  and  C13_16 
ROOT
HETATM    1  C7  UNL     1      22.416   1.172  51.363  1.00  0.00     0.158 C 
ENDROOT
BRANCH   1   2
HETATM    2  N1  UNL     1      23.069   1.444  52.620  1.00  0.00    -0.386 N 
HETATM    3  H6  UNL     1      22.433   2.066  53.203  1.00  0.00     0.160 HD
BRANCH   2   4
HETATM    4  C6  UNL     1      24.286   1.091  53.204  1.00  0.00     0.028 A 
HETATM    5  C5  UNL     1      25.369   1.915  53.404  1.00  0.00     0.032 A 
HETATM    6  C4  UNL     1      26.572   1.582  53.988  1.00  0.00     0.039 A 
HETATM    7  C3  UNL     1      26.663   0.275  54.403  1.00  0.00     0.074 A 
HETATM    8  C16 UNL     1      25.630  -0.622  54.245  1.00  0.00     0.039 A 
HETATM    9  C15 UNL     1      24.469  -0.199  53.652  1.00  0.00     0.032 A 
BRANCH   7  10
HETATM   10  O1  UNL     1      27.831  -0.157  55.002  1.00  0.00    -0.324 OA
BRANCH  10  11
HETATM   11  C2  UNL     1      29.023  -0.219  54.297  1.00  0.00     0.132 C 
HETATM   12  C1  UNL     1      29.622  -1.112  53.509  1.00  0.00     0.037 C 
ENDBRANCH  10  11
ENDBRANCH   7  10
ENDBRANCH   2   4
ENDBRANCH   1   2
BRANCH   1  13
HETATM   13  C8  UNL     1      21.046   0.724  51.623  1.00  0.00    -0.040 A 
HETATM   14  C9  UNL     1      20.872   0.013  52.821  1.00  0.00     0.010 A 
HETATM   15  C10 UNL     1      19.670  -0.511  53.248  1.00  0.00     0.025 A 
HETATM   16  C11 UNL     1      18.561  -0.342  52.477  1.00  0.00     0.049 A 
HETATM   17 CL1  UNL     1      17.025  -0.991  52.989  1.00  0.00    -0.083 Cl
HETATM   18  C12 UNL     1      18.674   0.341  51.304  1.00  0.00     0.070 A 
HETATM   19  C14 UNL     1      19.885   0.854  50.899  1.00  0.00     0.026 A 
BRANCH  18  20
HETATM   20  C13 UNL     1      17.466   0.516  50.480  1.00  0.00     0.419 C 
HETATM   21  F1  UNL     1      17.068  -0.763  50.086  1.00  0.00    -0.166 F 
HETATM   22  F2  UNL     1      17.819   1.184  49.324  1.00  0.00    -0.166 F 
HETATM   23  F3  UNL     1      16.452   1.168  51.148  1.00  0.00    -0.166 F 
ENDBRANCH  18  20
ENDBRANCH   1  13
TORSDOF 6
ENDMDL
MODEL 9
REMARK VINA RESULT:      -7.1      4.601      7.272
REMARK  6 active torsions:
REMARK  status: ('A' for Active; 'I' for Inactive)
REMARK    1  A    between atoms: C2_2  and  O1_3 
REMARK    2  A    between atoms: O1_3  and  C3_4 
REMARK    3  A    between atoms: C6_7  and  N1_8 
REMARK    4  A    between atoms: N1_8  and  C7_9 
REMARK    5  A    between atoms: C7_9  and  C8_10 
REMARK    6  A    between atoms: C12_15  and  C13_16 
ROOT
HETATM    1  C7  UNL     1      22.346  -0.214  53.887  1.00  0.00     0.158 C 
ENDROOT
BRANCH   1   2
HETATM    2  N1  UNL     1      23.625  -0.881  53.864  1.00  0.00    -0.386 N 
HETATM    3  H6  UNL     1      23.461  -1.928  53.946  1.00  0.00     0.160 HD
BRANCH   2   4
HETATM    4  C6  UNL     1      24.956  -0.472  53.766  1.00  0.00     0.028 A 
HETATM    5  C5  UNL     1      25.672  -0.285  52.607  1.00  0.00     0.032 A 
HETATM    6  C4  UNL     1      26.982   0.127  52.495  1.00  0.00     0.039 A 
HETATM    7  C3  UNL     1      27.609   0.368  53.694  1.00  0.00     0.074 A 
HETATM    8  C16 UNL     1      26.972   0.209  54.904  1.00  0.00     0.039 A 
HETATM    9  C15 UNL     1      25.665  -0.206  54.916  1.00  0.00     0.032 A 
BRANCH   7  10
HETATM   10  O1  UNL     1      28.926   0.787  53.688  1.00  0.00    -0.324 OA
BRANCH  10  11
HETATM   11  C2  UNL     1      29.967  -0.108  53.490  1.00  0.00     0.132 C 
HETATM   12  C1  UNL     1      30.173  -1.402  53.733  1.00  0.00     0.037 C 
ENDBRANCH  10  11
ENDBRANCH   7  10
ENDBRANCH   2   4
ENDBRANCH   1   2
BRANCH   1  13
HETATM   13  C8  UNL     1      22.290   0.752  52.788  1.00  0.00    -0.040 A 
HETATM   14  C9  UNL     1      21.762   0.253  51.586  1.00  0.00     0.010 A 
HETATM   15  C10 UNL     1      21.636   0.988  50.426  1.00  0.00     0.025 A 
HETATM   16  C11 UNL     1      22.042   2.287  50.417  1.00  0.00     0.049 A 
HETATM   17 CL1  UNL     1      21.895   3.245  48.967  1.00  0.00    -0.083 Cl
HETATM   18  C12 UNL     1      22.563   2.822  51.557  1.00  0.00     0.070 A 
HETATM   19  C14 UNL     1      22.679   2.067  52.702  1.00  0.00     0.026 A 
BRANCH  18  20
HETATM   20  C13 UNL     1      22.997   4.228  51.532  1.00  0.00     0.419 C 
HETATM   21  F1  UNL     1      23.477   4.516  52.811  1.00  0.00    -0.166 F 
HETATM   22  F2  UNL     1      21.886   5.026  51.347  1.00  0.00    -0.166 F 
HETATM   23  F3  UNL     1      23.958   4.475  50.575  1.00  0.00    -0.166 F 
ENDBRANCH  18  20
ENDBRANCH   1  13
TORSDOF 6
ENDMDL
