MODEL 1
REMARK VINA RESULT:      -9.0      0.000      0.000
REMARK  0 active torsions:
REMARK  status: ('A' for Active; 'I' for Inactive)
ROOT
HETATM    1  C1  UNL     1      22.370   2.260  49.790  1.00  0.00     0.043 C 
HETATM    2  C2  UNL     1      22.904   2.101  51.196  1.00  0.00    -0.083 C 
HETATM    3  C3  UNL     1      24.244   2.200  51.110  1.00  0.00    -0.017 C 
HETATM    4  C4  UNL     1      25.417   2.354  51.982  1.00  0.00     0.034 C 
HETATM    5  C5  UNL     1      25.108   2.209  53.444  1.00  0.00     0.071 C 
HETATM    6  C6  UNL     1      24.585   0.834  53.755  1.00  0.00     0.058 C 
HETATM    7  N1  UNL     1      25.294  -0.177  54.135  1.00  0.00    -0.203 N 
HETATM    8  P1  UNL     1      27.013  -0.403  53.550  1.00  0.00     0.143 P 
HETATM    9  C7  UNL     1      28.104   0.233  54.958  1.00  0.00     0.131 C 
HETATM   10  C8  UNL     1      29.046   0.993  54.051  1.00  0.00     0.119 C 
HETATM   11  N2  UNL     1      28.763   1.370  52.869  1.00  0.00    -0.188 NA
HETATM   12  N3  UNL     1      27.472   1.014  52.464  1.00  0.00    -0.258 N 
HETATM   13  C9  UNL     1      26.515   1.477  51.477  1.00  0.00     0.160 C 
HETATM   14  C10 UNL     1      23.238   0.238  53.712  1.00  0.00     0.034 A 
HETATM   15  C11 UNL     1      23.413  -0.893  54.478  1.00  0.00     0.119 A 
HETATM   16  F1  UNL     1      24.604  -1.179  55.031  1.00  0.00    -0.250 F 
HETATM   17  C12 UNL     1      22.254  -1.647  54.585  1.00  0.00     0.042 A 
HETATM   18  C13 UNL     1      21.071  -1.252  53.964  1.00  0.00     0.004 A 
HETATM   19  C14 UNL     1      20.975  -0.101  53.211  1.00  0.00     0.008 A 
HETATM   20  C15 UNL     1      22.077   0.690  53.061  1.00  0.00    -0.039 A 
HETATM   21  C16 UNL     1      21.855   1.890  52.224  1.00  0.00     0.073 C 
ENDROOT
TORSDOF 0
ENDMDL
MODEL 2
REMARK VINA RESULT:      -8.7      2.058      4.040
REMARK  0 active torsions:
REMARK  status: ('A' for Active; 'I' for Inactive)
ROOT
HETATM    1  C1  UNL     1      21.461   0.565  53.547  1.00  0.00     0.043 C 
HETATM    2  C2  UNL     1      22.758   0.521  52.771  1.00  0.00    -0.083 C 
HETATM    3  C3  UNL     1      23.696   0.060  53.620  1.00  0.00    -0.017 C 
HETATM    4  C4  UNL     1      25.078  -0.441  53.601  1.00  0.00     0.034 C 
HETATM    5  C5  UNL     1      25.767  -0.269  52.279  1.00  0.00     0.071 C 
HETATM    6  C6  UNL     1      25.889   1.185  51.914  1.00  0.00     0.058 C 
HETATM    7  N1  UNL     1      26.898   1.948  52.174  1.00  0.00    -0.203 N 
HETATM    8  P1  UNL     1      27.898   1.714  53.689  1.00  0.00     0.143 P 
HETATM    9  C7  UNL     1      29.428   0.753  53.129  1.00  0.00     0.131 C 
HETATM   10  C8  UNL     1      29.409  -0.204  54.301  1.00  0.00     0.119 C 
HETATM   11  N2  UNL     1      28.386  -0.446  55.018  1.00  0.00    -0.188 NA
HETATM   12  N3  UNL     1      27.247   0.265  54.623  1.00  0.00    -0.258 N 
HETATM   13  C9  UNL     1      25.812   0.118  54.775  1.00  0.00     0.160 C 
HETATM   14  C10 UNL     1      24.985   2.129  51.233  1.00  0.00     0.034 A 
HETATM   15  C11 UNL     1      25.853   3.140  50.888  1.00  0.00     0.119 A 
HETATM   16  F1  UNL     1      27.160   3.068  51.194  1.00  0.00    -0.250 F 
HETATM   17  C12 UNL     1      25.222   4.180  50.222  1.00  0.00     0.042 A 
HETATM   18  C13 UNL     1      23.854   4.147  49.958  1.00  0.00     0.004 A 
HETATM   19  C14 UNL     1      23.049   3.095  50.338  1.00  0.00     0.008 A 
HETATM   20  C15 UNL     1      23.603   2.037  50.999  1.00  0.00    -0.039 A 
HETATM   21  C16 UNL     1      22.639   0.975  51.363  1.00  0.00     0.073 C 
ENDROOT
TORSDOF 0
ENDMDL
MODEL 3
REMARK VINA RESULT:      -8.1      3.442      5.262
REMARK  0 active torsions:
REMARK  status: ('A' for Active; 'I' for Inactive)
ROOT
HETATM    1  C1  UNL     1      26.572   2.057  53.733  1.00  0.00     0.043 C 
HETATM    2  C2  UNL     1      25.364   1.582  52.957  1.00  0.00    -0.083 C 
HETATM    3  C3  UNL     1      24.873   2.660  52.316  1.00  0.00    -0.017 C 
HETATM    4  C4  UNL     1      23.904   2.995  51.263  1.00  0.00     0.034 C 
HETATM    5  C5  UNL     1      23.053   1.837  50.831  1.00  0.00     0.071 C 
HETATM    6  C6  UNL     1      22.212   1.326  51.968  1.00  0.00     0.058 C 
HETATM    7  N1  UNL     1      21.004   1.695  52.240  1.00  0.00    -0.203 N 
HETATM    8  P1  UNL     1      20.437   3.403  51.909  1.00  0.00     0.143 P 
HETATM    9  C7  UNL     1      19.488   3.303  50.276  1.00  0.00     0.131 C 
HETATM   10  C8  UNL     1      20.107   4.555  49.695  1.00  0.00     0.119 C 
HETATM   11  N2  UNL     1      21.205   5.065  50.087  1.00  0.00    -0.188 NA
HETATM   12  N3  UNL     1      21.810   4.355  51.129  1.00  0.00    -0.258 N 
HETATM   13  C9  UNL     1      23.150   4.218  51.670  1.00  0.00     0.160 C 
HETATM   14  C10 UNL     1      22.465   0.358  53.050  1.00  0.00     0.034 A 
HETATM   15  C11 UNL     1      21.185   0.079  53.474  1.00  0.00     0.119 A 
HETATM   16  F1  UNL     1      20.120   0.660  52.895  1.00  0.00    -0.250 F 
HETATM   17  C12 UNL     1      21.158  -0.830  54.521  1.00  0.00     0.042 A 
HETATM   18  C13 UNL     1      22.331  -1.369  55.044  1.00  0.00     0.004 A 
HETATM   19  C14 UNL     1      23.580  -1.038  54.563  1.00  0.00     0.008 A 
HETATM   20  C15 UNL     1      23.683  -0.149  53.533  1.00  0.00    -0.039 A 
HETATM   21  C16 UNL     1      25.073   0.135  53.111  1.00  0.00     0.073 C 
ENDROOT
TORSDOF 0
ENDMDL
MODEL 4
REMARK VINA RESULT:      -8.0      2.224      3.994
REMARK  0 active torsions:
REMARK  status: ('A' for Active; 'I' for Inactive)
ROOT
HETATM    1  C1  UNL     1      26.821   3.590  49.471  1.00  0.00     0.043 C 
HETATM    2  C2  UNL     1      25.657   3.270  50.382  1.00  0.00    -0.083 C 
HETATM    3  C3  UNL     1      26.157   2.541  51.399  1.00  0.00    -0.017 C 
HETATM    4  C4  UNL     1      25.759   2.041  52.723  1.00  0.00     0.034 C 
HETATM    5  C5  UNL     1      24.304   2.241  53.034  1.00  0.00     0.071 C 
HETATM    6  C6  UNL     1      23.433   1.485  52.069  1.00  0.00     0.058 C 
HETATM    7  N1  UNL     1      22.975   0.290  52.242  1.00  0.00    -0.203 N 
HETATM    8  P1  UNL     1      23.930  -0.969  53.164  1.00  0.00     0.143 P 
HETATM    9  C7  UNL     1      23.179  -0.988  54.900  1.00  0.00     0.131 C 
HETATM   10  C8  UNL     1      24.513  -1.025  55.612  1.00  0.00     0.119 C 
HETATM   11  N2  UNL     1      25.618  -0.661  55.095  1.00  0.00    -0.188 NA
HETATM   12  N3  UNL     1      25.494  -0.210  53.776  1.00  0.00    -0.258 N 
HETATM   13  C9  UNL     1      26.255   0.642  52.881  1.00  0.00     0.160 C 
HETATM   14  C10 UNL     1      22.890   1.810  50.738  1.00  0.00     0.034 A 
HETATM   15  C11 UNL     1      21.890   0.872  50.613  1.00  0.00     0.119 A 
HETATM   16  F1  UNL     1      21.646  -0.017  51.591  1.00  0.00    -0.250 F 
HETATM   17  C12 UNL     1      21.216   0.972  49.405  1.00  0.00     0.042 A 
HETATM   18  C13 UNL     1      21.559   1.937  48.461  1.00  0.00     0.004 A 
HETATM   19  C14 UNL     1      22.577   2.845  48.661  1.00  0.00     0.008 A 
HETATM   20  C15 UNL     1      23.284   2.805  49.828  1.00  0.00    -0.039 A 
HETATM   21  C16 UNL     1      24.357   3.820  49.923  1.00  0.00     0.073 C 
ENDROOT
TORSDOF 0
ENDMDL
MODEL 5
REMARK VINA RESULT:      -8.0      3.269      5.004
REMARK  0 active torsions:
REMARK  status: ('A' for Active; 'I' for Inactive)
ROOT
HETATM    1  C1  UNL     1      21.060  -0.447  52.929  1.00  0.00     0.043 C 
HETATM    2  C2  UNL     1      22.190   0.553  53.032  1.00  0.00    -0.083 C 
HETATM    3  C3  UNL     1      21.827   1.618  52.291  1.00  0.00    -0.017 C 
HETATM    4  C4  UNL     1      22.238   3.008  52.047  1.00  0.00     0.034 C 
HETATM    5  C5  UNL     1      23.554   3.369  52.672  1.00  0.00     0.071 C 
HETATM    6  C6  UNL     1      24.672   2.541  52.102  1.00  0.00     0.058 C 
HETATM    7  N1  UNL     1      25.422   2.869  51.103  1.00  0.00    -0.203 N 
HETATM    8  P1  UNL     1      24.774   3.877  49.719  1.00  0.00     0.143 P 
HETATM    9  C7  UNL     1      25.359   5.640  50.072  1.00  0.00     0.131 C 
HETATM   10  C8  UNL     1      24.033   6.282  49.732  1.00  0.00     0.119 C 
HETATM   11  N2  UNL     1      22.916   5.671  49.725  1.00  0.00    -0.188 NA
HETATM   12  N3  UNL     1      23.018   4.319  50.067  1.00  0.00    -0.258 N 
HETATM   13  C9  UNL     1      22.129   3.296  50.587  1.00  0.00     0.160 C 
HETATM   14  C10 UNL     1      25.211   1.212  52.439  1.00  0.00     0.034 A 
HETATM   15  C11 UNL     1      26.435   1.243  51.809  1.00  0.00     0.119 A 
HETATM   16  F1  UNL     1      26.832   2.326  51.118  1.00  0.00    -0.250 F 
HETATM   17  C12 UNL     1      27.151   0.068  51.979  1.00  0.00     0.042 A 
HETATM   18  C13 UNL     1      26.636  -0.994  52.719  1.00  0.00     0.004 A 
HETATM   19  C14 UNL     1      25.397  -0.949  53.322  1.00  0.00     0.008 A 
HETATM   20  C15 UNL     1      24.636   0.177  53.196  1.00  0.00    -0.039 A 
HETATM   21  C16 UNL     1      23.324   0.103  53.876  1.00  0.00     0.073 C 
ENDROOT
TORSDOF 0
ENDMDL
MODEL 6
REMARK VINA RESULT:      -7.8      3.794      6.108
REMARK  0 active torsions:
REMARK  status: ('A' for Active; 'I' for Inactive)
ROOT
HETATM    1  C1  UNL     1      26.722   5.534  48.830  1.00  0.00     0.043 C 
HETATM    2  C2  UNL     1      25.825   4.392  49.251  1.00  0.00    -0.083 C 
HETATM    3  C3  UNL     1      24.558   4.824  49.097  1.00  0.00    -0.017 C 
HETATM    4  C4  UNL     1      23.186   4.297  49.087  1.00  0.00     0.034 C 
HETATM    5  C5  UNL     1      23.083   2.867  49.530  1.00  0.00     0.071 C 
HETATM    6  C6  UNL     1      23.537   2.706  50.955  1.00  0.00     0.058 C 
HETATM    7  N1  UNL     1      22.779   2.748  52.000  1.00  0.00    -0.203 N 
HETATM    8  P1  UNL     1      21.295   3.818  52.053  1.00  0.00     0.143 P 
HETATM    9  C7  UNL     1      19.840   2.669  51.680  1.00  0.00     0.131 C 
HETATM   10  C8  UNL     1      19.165   3.629  50.726  1.00  0.00     0.119 C 
HETATM   11  N2  UNL     1      19.754   4.586  50.128  1.00  0.00    -0.188 NA
HETATM   12  N3  UNL     1      21.116   4.681  50.434  1.00  0.00    -0.258 N 
HETATM   13  C9  UNL     1      22.296   5.252  49.811  1.00  0.00     0.160 C 
HETATM   14  C10 UNL     1      24.859   2.493  51.570  1.00  0.00     0.034 A 
HETATM   15  C11 UNL     1      24.510   2.049  52.825  1.00  0.00     0.119 A 
HETATM   16  F1  UNL     1      23.221   1.915  53.180  1.00  0.00    -0.250 F 
HETATM   17  C12 UNL     1      25.614   1.779  53.620  1.00  0.00     0.042 A 
HETATM   18  C13 UNL     1      26.911   1.957  53.143  1.00  0.00     0.004 A 
HETATM   19  C14 UNL     1      27.180   2.407  51.868  1.00  0.00     0.008 A 
HETATM   20  C15 UNL     1      26.141   2.694  51.031  1.00  0.00    -0.039 A 
HETATM   21  C16 UNL     1      26.554   3.178  49.694  1.00  0.00     0.073 C 
ENDROOT
TORSDOF 0
ENDMDL
MODEL 7
REMARK VINA RESULT:      -7.4      4.308      6.304
REMARK  0 active torsions:
REMARK  status: ('A' for Active; 'I' for Inactive)
ROOT
HETATM    1  C1  UNL     1      24.202   3.521  52.858  1.00  0.00     0.043 C 
HETATM    2  C2  UNL     1      23.373   2.415  52.244  1.00  0.00    -0.083 C 
HETATM    3  C3  UNL     1      22.393   3.015  51.542  1.00  0.00    -0.017 C 
HETATM    4  C4  UNL     1      21.360   2.687  50.549  1.00  0.00     0.034 C 
HETATM    5  C5  UNL     1      21.192   1.214  50.315  1.00  0.00     0.071 C 
HETATM    6  C6  UNL     1      20.747   0.511  51.568  1.00  0.00     0.058 C 
HETATM    7  N1  UNL     1      19.523   0.270  51.906  1.00  0.00    -0.203 N 
HETATM    8  P1  UNL     1      18.170   1.416  51.452  1.00  0.00     0.143 P 
HETATM    9  C7  UNL     1      17.358   0.645  49.928  1.00  0.00     0.131 C 
HETATM   10  C8  UNL     1      17.254   1.950  49.170  1.00  0.00     0.119 C 
HETATM   11  N2  UNL     1      17.960   2.982  49.409  1.00  0.00    -0.188 NA
HETATM   12  N3  UNL     1      18.865   2.807  50.462  1.00  0.00    -0.258 N 
HETATM   13  C9  UNL     1      20.107   3.421  50.893  1.00  0.00     0.160 C 
HETATM   14  C10 UNL     1      21.477  -0.054  52.717  1.00  0.00     0.034 A 
HETATM   15  C11 UNL     1      20.519  -0.867  53.278  1.00  0.00     0.119 A 
HETATM   16  F1  UNL     1      19.292  -0.969  52.739  1.00  0.00    -0.250 F 
HETATM   17  C12 UNL     1      20.976  -1.524  54.411  1.00  0.00     0.042 A 
HETATM   18  C13 UNL     1      22.274  -1.340  54.881  1.00  0.00     0.004 A 
HETATM   19  C14 UNL     1      23.178  -0.504  54.261  1.00  0.00     0.008 A 
HETATM   20  C15 UNL     1      22.797   0.175  53.141  1.00  0.00    -0.039 A 
HETATM   21  C16 UNL     1      23.848   1.047  52.571  1.00  0.00     0.073 C 
ENDROOT
TORSDOF 0
ENDMDL
MODEL 8
REMARK VINA RESULT:      -7.4      3.111      4.645
REMARK  0 active torsions:
REMARK  status: ('A' for Active; 'I' for Inactive)
ROOT
HETATM    1  C1  UNL     1      18.998  -0.137  51.816  1.00  0.00     0.043 C 
HETATM    2  C2  UNL     1      20.081   0.821  52.258  1.00  0.00    -0.083 C 
HETATM    3  C3  UNL     1      20.240   1.708  51.257  1.00  0.00    -0.017 C 
HETATM    4  C4  UNL     1      20.899   2.994  50.992  1.00  0.00     0.034 C 
HETATM    5  C5  UNL     1      21.825   3.439  52.087  1.00  0.00     0.071 C 
HETATM    6  C6  UNL     1      22.957   2.467  52.270  1.00  0.00     0.058 C 
HETATM    7  N1  UNL     1      24.115   2.540  51.702  1.00  0.00    -0.203 N 
HETATM    8  P1  UNL     1      24.306   3.239  50.022  1.00  0.00     0.143 P 
HETATM    9  C7  UNL     1      24.898   5.015  50.287  1.00  0.00     0.131 C 
HETATM   10  C8  UNL     1      23.970   5.612  49.252  1.00  0.00     0.119 C 
HETATM   11  N2  UNL     1      22.907   5.053  48.829  1.00  0.00    -0.188 NA
HETATM   12  N3  UNL     1      22.661   3.807  49.415  1.00  0.00    -0.258 N 
HETATM   13  C9  UNL     1      21.505   2.956  49.628  1.00  0.00     0.160 C 
HETATM   14  C10 UNL     1      23.101   1.227  53.053  1.00  0.00     0.034 A 
HETATM   15  C11 UNL     1      24.469   1.076  53.081  1.00  0.00     0.119 A 
HETATM   16  F1  UNL     1      25.277   1.965  52.478  1.00  0.00    -0.250 F 
HETATM   17  C12 UNL     1      24.865  -0.056  53.776  1.00  0.00     0.042 A 
HETATM   18  C13 UNL     1      23.933  -0.911  54.362  1.00  0.00     0.004 A 
HETATM   19  C14 UNL     1      22.575  -0.690  54.290  1.00  0.00     0.008 A 
HETATM   20  C15 UNL     1      22.112   0.405  53.621  1.00  0.00    -0.039 A 
HETATM   21  C16 UNL     1      20.638   0.530  53.603  1.00  0.00     0.073 C 
ENDROOT
TORSDOF 0
ENDMDL
MODEL 9
REMARK VINA RESULT:      -7.2      8.832     10.832
REMARK  0 active torsions:
REMARK  status: ('A' for Active; 'I' for Inactive)
ROOT
HETATM    1  C1  UNL     1      31.862   5.783  49.607  1.00  0.00     0.043 C 
HETATM    2  C2  UNL     1      30.860   6.429  48.675  1.00  0.00    -0.083 C 
HETATM    3  C3  UNL     1      31.140   7.746  48.666  1.00  0.00    -0.017 C 
HETATM    4  C4  UNL     1      30.796   8.961  47.914  1.00  0.00     0.034 C 
HETATM    5  C5  UNL     1      29.674   8.771  46.935  1.00  0.00     0.071 C 
HETATM    6  C6  UNL     1      28.400   8.390  47.637  1.00  0.00     0.058 C 
HETATM    7  N1  UNL     1      27.483   9.208  48.037  1.00  0.00    -0.203 N 
HETATM    8  P1  UNL     1      27.901  10.893  48.613  1.00  0.00     0.143 P 
HETATM    9  C7  UNL     1      27.542  12.025  47.141  1.00  0.00     0.131 C 
HETATM   10  C8  UNL     1      28.812  12.832  47.291  1.00  0.00     0.119 C 
HETATM   11  N2  UNL     1      29.852  12.433  47.909  1.00  0.00    -0.188 NA
HETATM   12  N3  UNL     1      29.720  11.152  48.454  1.00  0.00    -0.258 N 
HETATM   13  C9  UNL     1      30.616  10.090  48.873  1.00  0.00     0.160 C 
HETATM   14  C10 UNL     1      27.843   7.099  48.077  1.00  0.00     0.034 A 
HETATM   15  C11 UNL     1      26.520   7.424  48.276  1.00  0.00     0.119 A 
HETATM   16  F1  UNL     1      26.071   8.671  48.056  1.00  0.00    -0.250 F 
HETATM   17  C12 UNL     1      25.766   6.344  48.712  1.00  0.00     0.042 A 
HETATM   18  C13 UNL     1      26.342   5.090  48.908  1.00  0.00     0.004 A 
HETATM   19  C14 UNL     1      27.680   4.843  48.686  1.00  0.00     0.008 A 
HETATM   20  C15 UNL     1      28.482   5.861  48.257  1.00  0.00    -0.039 A 
HETATM   21  C16 UNL     1      29.899   5.478  48.064  1.00  0.00     0.073 C 
ENDROOT
TORSDOF 0
ENDMDL
