MODEL 1
REMARK VINA RESULT:      -7.3      0.000      0.000
REMARK  7 active torsions:
REMARK  status: ('A' for Active; 'I' for Inactive)
REMARK    1  A    between atoms: O1_2  and  C2_3 
REMARK    2  A    between atoms: C2_3  and  N1_5 
REMARK    3  A    between atoms: C6_8  and  N2_9 
REMARK    4  A    between atoms: N2_9  and  C7_10 
REMARK    5  A    between atoms: C7_10  and  C8_11 
REMARK    6  A    between atoms: C8_11  and  C9_12 
REMARK    7  A    between atoms: C9_12  and  C10_13 
ROOT
HETATM    1  N1  UNL     1      25.155  -0.454  54.194  1.00  0.00    -0.360 N 
HETATM    2  C4  UNL     1      24.241  -0.016  53.196  1.00  0.00     0.104 A 
HETATM    3  C5  UNL     1      22.972  -0.289  53.445  1.00  0.00     0.036 A 
HETATM    4  C6  UNL     1      22.056   0.123  52.497  1.00  0.00     0.069 A 
HETATM    5  C11 UNL     1      20.718  -0.144  52.720  1.00  0.00     0.089 A 
HETATM    6  C12 UNL     1      19.705   0.254  51.776  1.00  0.00     0.103 C 
HETATM    7  N3  UNL     1      18.880   0.596  51.017  1.00  0.00    -0.191 NA
HETATM    8  C13 UNL     1      20.247  -0.804  53.848  1.00  0.00     0.142 A 
HETATM    9  N4  UNL     1      21.186  -1.186  54.748  1.00  0.00    -0.259 NA
HETATM   10  C14 UNL     1      22.494  -0.942  54.560  1.00  0.00     0.068 A 
HETATM   11  C15 UNL     1      23.350  -1.340  55.470  1.00  0.00     0.025 A 
HETATM   12  C16 UNL     1      24.816  -1.149  55.413  1.00  0.00     0.154 A 
ENDROOT
BRANCH   4  13
HETATM   13  N2  UNL     1      22.350   0.809  51.283  1.00  0.00    -0.357 N 
HETATM   14  H9  UNL     1      22.430   0.330  50.383  1.00  0.00     0.166 HD
BRANCH  13  15
HETATM   15  C7  UNL     1      22.520   2.190  51.439  1.00  0.00     0.140 C 
BRANCH  15  16
HETATM   16  C8  UNL     1      23.506   2.772  50.791  1.00  0.00    -0.130 C 
BRANCH  16  17
HETATM   17  C9  UNL     1      24.412   3.176  49.934  1.00  0.00     0.104 C 
BRANCH  17  18
HETATM   18  C10 UNL     1      25.742   3.554  50.442  1.00  0.00     0.170 C 
HETATM   19 CL1  UNL     1      26.523   2.088  51.087  1.00  0.00    -0.112 Cl
HETATM   20 BR1  UNL     1      26.888   4.392  49.166  1.00  0.00    -0.073 Br
ENDBRANCH  17  18
ENDBRANCH  16  17
ENDBRANCH  15  16
ENDBRANCH  13  15
ENDBRANCH   4  13
BRANCH   1  21
HETATM   21  C2  UNL     1      26.573  -0.178  53.967  1.00  0.00     0.217 C 
HETATM   22  C3  UNL     1      26.999  -1.123  52.855  1.00  0.00     0.063 C 
BRANCH  21  23
HETATM   23  O1  UNL     1      27.337  -0.364  55.093  1.00  0.00    -0.372 OA
HETATM   24  C1  UNL     1      28.607   0.143  54.857  1.00  0.00     0.204 C 
ENDBRANCH  21  23
ENDBRANCH   1  21
TORSDOF 7
ENDMDL
MODEL 2
REMARK VINA RESULT:      -7.1      2.503      3.678
REMARK  7 active torsions:
REMARK  status: ('A' for Active; 'I' for Inactive)
REMARK    1  A    between atoms: O1_2  and  C2_3 
REMARK    2  A    between atoms: C2_3  and  N1_5 
REMARK    3  A    between atoms: C6_8  and  N2_9 
REMARK    4  A    between atoms: N2_9  and  C7_10 
REMARK    5  A    between atoms: C7_10  and  C8_11 
REMARK    6  A    between atoms: C8_11  and  C9_12 
REMARK    7  A    between atoms: C9_12  and  C10_13 
ROOT
HETATM    1  N1  UNL     1      26.528   0.328  53.757  1.00  0.00    -0.360 N 
HETATM    2  C4  UNL     1      26.330   1.436  52.887  1.00  0.00     0.104 A 
HETATM    3  C5  UNL     1      25.113   1.534  52.378  1.00  0.00     0.036 A 
HETATM    4  C6  UNL     1      24.885   2.598  51.529  1.00  0.00     0.069 A 
HETATM    5  C11 UNL     1      23.625   2.737  50.977  1.00  0.00     0.089 A 
HETATM    6  C12 UNL     1      23.312   3.822  50.082  1.00  0.00     0.103 C 
HETATM    7  N3  UNL     1      23.053   4.715  49.370  1.00  0.00    -0.191 NA
HETATM    8  C13 UNL     1      22.577   1.862  51.233  1.00  0.00     0.142 A 
HETATM    9  N4  UNL     1      22.853   0.835  52.074  1.00  0.00    -0.259 NA
HETATM   10  C14 UNL     1      24.067   0.672  52.626  1.00  0.00     0.068 A 
HETATM   11  C15 UNL     1      24.267  -0.344  53.431  1.00  0.00     0.025 A 
HETATM   12  C16 UNL     1      25.539  -0.660  54.116  1.00  0.00     0.154 A 
ENDROOT
BRANCH   4  13
HETATM   13  N2  UNL     1      25.832   3.593  51.150  1.00  0.00    -0.357 N 
HETATM   14  H9  UNL     1      25.964   4.460  51.677  1.00  0.00     0.166 HD
BRANCH  13  15
HETATM   15  C7  UNL     1      26.559   3.274  49.997  1.00  0.00     0.140 C 
BRANCH  15  16
HETATM   16  C8  UNL     1      26.927   4.256  49.202  1.00  0.00    -0.130 C 
BRANCH  16  17
HETATM   17  C9  UNL     1      27.243   5.397  48.640  1.00  0.00     0.104 C 
BRANCH  17  18
HETATM   18  C10 UNL     1      26.201   6.430  48.511  1.00  0.00     0.170 C 
HETATM   19 CL1  UNL     1      25.789   7.005  50.147  1.00  0.00    -0.112 Cl
HETATM   20 BR1  UNL     1      26.664   7.912  47.400  1.00  0.00    -0.073 Br
ENDBRANCH  17  18
ENDBRANCH  16  17
ENDBRANCH  15  16
ENDBRANCH  13  15
ENDBRANCH   4  13
BRANCH   1  21
HETATM   21  C2  UNL     1      27.858   0.172  54.345  1.00  0.00     0.217 C 
HETATM   22  C3  UNL     1      28.689   1.313  53.779  1.00  0.00     0.063 C 
BRANCH  21  23
HETATM   23  O1  UNL     1      28.427  -1.043  54.057  1.00  0.00    -0.372 OA
HETATM   24  C1  UNL     1      29.762  -0.844  53.737  1.00  0.00     0.204 C 
ENDBRANCH  21  23
ENDBRANCH   1  21
TORSDOF 7
ENDMDL
MODEL 3
REMARK VINA RESULT:      -7.0      2.718      5.367
REMARK  7 active torsions:
REMARK  status: ('A' for Active; 'I' for Inactive)
REMARK    1  A    between atoms: O1_2  and  C2_3 
REMARK    2  A    between atoms: C2_3  and  N1_5 
REMARK    3  A    between atoms: C6_8  and  N2_9 
REMARK    4  A    between atoms: N2_9  and  C7_10 
REMARK    5  A    between atoms: C7_10  and  C8_11 
REMARK    6  A    between atoms: C8_11  and  C9_12 
REMARK    7  A    between atoms: C9_12  and  C10_13 
ROOT
HETATM    1  N1  UNL     1      22.498   0.609  52.165  1.00  0.00    -0.360 N 
HETATM    2  C4  UNL     1      23.681   1.399  52.186  1.00  0.00     0.104 A 
HETATM    3  C5  UNL     1      24.636   0.952  52.984  1.00  0.00     0.036 A 
HETATM    4  C6  UNL     1      25.799   1.694  53.028  1.00  0.00     0.069 A 
HETATM    5  C11 UNL     1      26.822   1.260  53.850  1.00  0.00     0.089 A 
HETATM    6  C12 UNL     1      28.064   1.981  53.949  1.00  0.00     0.103 C 
HETATM    7  N3  UNL     1      29.082   2.559  54.014  1.00  0.00    -0.191 NA
HETATM    8  C13 UNL     1      26.741   0.115  54.633  1.00  0.00     0.142 A 
HETATM    9  N4  UNL     1      25.578  -0.578  54.552  1.00  0.00    -0.259 NA
HETATM   10  C14 UNL     1      24.565  -0.182  53.764  1.00  0.00     0.068 A 
HETATM   11  C15 UNL     1      23.468  -0.899  53.733  1.00  0.00     0.025 A 
HETATM   12  C16 UNL     1      22.268  -0.600  52.920  1.00  0.00     0.154 A 
ENDROOT
BRANCH   4  13
HETATM   13  N2  UNL     1      26.064   2.890  52.300  1.00  0.00    -0.357 N 
HETATM   14  H9  UNL     1      25.950   3.821  52.707  1.00  0.00     0.166 HD
BRANCH  13  15
HETATM   15  C7  UNL     1      26.491   2.671  50.985  1.00  0.00     0.140 C 
BRANCH  15  16
HETATM   16  C8  UNL     1      26.011   3.448  50.038  1.00  0.00    -0.130 C 
BRANCH  16  17
HETATM   17  C9  UNL     1      25.628   4.432  49.262  1.00  0.00     0.104 C 
BRANCH  17  18
HETATM   18  C10 UNL     1      26.488   5.624  49.163  1.00  0.00     0.170 C 
HETATM   19 CL1  UNL     1      28.054   5.120  48.480  1.00  0.00    -0.112 Cl
HETATM   20 BR1  UNL     1      25.764   7.061  48.134  1.00  0.00    -0.073 Br
ENDBRANCH  17  18
ENDBRANCH  16  17
ENDBRANCH  15  16
ENDBRANCH  13  15
ENDBRANCH   4  13
BRANCH   1  21
HETATM   21  C2  UNL     1      21.409   1.060  51.299  1.00  0.00     0.217 C 
HETATM   22  C3  UNL     1      21.928   2.316  50.616  1.00  0.00     0.063 C 
BRANCH  21  23
HETATM   23  O1  UNL     1      20.253   1.318  51.991  1.00  0.00    -0.372 OA
HETATM   24  C1  UNL     1      20.173   2.682  52.231  1.00  0.00     0.204 C 
ENDBRANCH  21  23
ENDBRANCH   1  21
TORSDOF 7
ENDMDL
MODEL 4
REMARK VINA RESULT:      -6.7      2.419      4.947
REMARK  7 active torsions:
REMARK  status: ('A' for Active; 'I' for Inactive)
REMARK    1  A    between atoms: O1_2  and  C2_3 
REMARK    2  A    between atoms: C2_3  and  N1_5 
REMARK    3  A    between atoms: C6_8  and  N2_9 
REMARK    4  A    between atoms: N2_9  and  C7_10 
REMARK    5  A    between atoms: C7_10  and  C8_11 
REMARK    6  A    between atoms: C8_11  and  C9_12 
REMARK    7  A    between atoms: C9_12  and  C10_13 
ROOT
HETATM    1  N1  UNL     1      20.821  -0.062  52.509  1.00  0.00    -0.360 N 
HETATM    2  C4  UNL     1      22.220   0.194  52.479  1.00  0.00     0.104 A 
HETATM    3  C5  UNL     1      22.897  -0.291  53.506  1.00  0.00     0.036 A 
HETATM    4  C6  UNL     1      24.258  -0.062  53.509  1.00  0.00     0.069 A 
HETATM    5  C11 UNL     1      25.003  -0.554  54.566  1.00  0.00     0.089 A 
HETATM    6  C12 UNL     1      26.427  -0.354  54.639  1.00  0.00     0.103 C 
HETATM    7  N3  UNL     1      27.589  -0.208  54.687  1.00  0.00    -0.191 NA
HETATM    8  C13 UNL     1      24.452  -1.267  55.623  1.00  0.00     0.142 A 
HETATM    9  N4  UNL     1      23.112  -1.465  55.571  1.00  0.00    -0.259 NA
HETATM   10  C14 UNL     1      22.361  -1.000  54.559  1.00  0.00     0.068 A 
HETATM   11  C15 UNL     1      21.069  -1.226  54.571  1.00  0.00     0.025 A 
HETATM   12  C16 UNL     1      20.109  -0.784  53.536  1.00  0.00     0.154 A 
ENDROOT
BRANCH   4  13
HETATM   13  N2  UNL     1      24.997   0.645  52.517  1.00  0.00    -0.357 N 
HETATM   14  H9  UNL     1      25.439   0.180  51.721  1.00  0.00     0.166 HD
BRANCH  13  15
HETATM   15  C7  UNL     1      25.060   2.027  52.735  1.00  0.00     0.140 C 
BRANCH  15  16
HETATM   16  C8  UNL     1      24.752   2.828  51.738  1.00  0.00    -0.130 C 
BRANCH  16  17
HETATM   17  C9  UNL     1      24.447   3.828  50.947  1.00  0.00     0.104 C 
BRANCH  17  18
HETATM   18  C10 UNL     1      25.533   4.500  50.212  1.00  0.00     0.170 C 
HETATM   19 CL1  UNL     1      26.564   3.244  49.481  1.00  0.00    -0.112 Cl
HETATM   20 BR1  UNL     1      24.960   5.731  48.870  1.00  0.00    -0.073 Br
ENDBRANCH  17  18
ENDBRANCH  16  17
ENDBRANCH  15  16
ENDBRANCH  13  15
ENDBRANCH   4  13
BRANCH   1  21
HETATM   21  C2  UNL     1      20.025   0.455  51.396  1.00  0.00     0.217 C 
HETATM   22  C3  UNL     1      21.024   1.092  50.443  1.00  0.00     0.063 C 
BRANCH  21  23
HETATM   23  O1  UNL     1      19.079   1.364  51.798  1.00  0.00    -0.372 OA
HETATM   24  C1  UNL     1      19.591   2.642  51.629  1.00  0.00     0.204 C 
ENDBRANCH  21  23
ENDBRANCH   1  21
TORSDOF 7
ENDMDL
MODEL 5
REMARK VINA RESULT:      -6.7      2.654      2.971
REMARK  7 active torsions:
REMARK  status: ('A' for Active; 'I' for Inactive)
REMARK    1  A    between atoms: O1_2  and  C2_3 
REMARK    2  A    between atoms: C2_3  and  N1_5 
REMARK    3  A    between atoms: C6_8  and  N2_9 
REMARK    4  A    between atoms: N2_9  and  C7_10 
REMARK    5  A    between atoms: C7_10  and  C8_11 
REMARK    6  A    between atoms: C8_11  and  C9_12 
REMARK    7  A    between atoms: C9_12  and  C10_13 
ROOT
HETATM    1  N1  UNL     1      25.147  -0.329  54.209  1.00  0.00    -0.360 N 
HETATM    2  C4  UNL     1      24.170   0.063  53.252  1.00  0.00     0.104 A 
HETATM    3  C5  UNL     1      22.936  -0.325  53.526  1.00  0.00     0.036 A 
HETATM    4  C6  UNL     1      21.961   0.039  52.618  1.00  0.00     0.069 A 
HETATM    5  C11 UNL     1      20.657  -0.347  52.867  1.00  0.00     0.089 A 
HETATM    6  C12 UNL     1      19.587  -0.005  51.966  1.00  0.00     0.103 C 
HETATM    7  N3  UNL     1      18.714   0.290  51.242  1.00  0.00    -0.191 NA
HETATM    8  C13 UNL     1      20.277  -1.080  53.984  1.00  0.00     0.142 A 
HETATM    9  N4  UNL     1      21.271  -1.410  54.845  1.00  0.00    -0.259 NA
HETATM   10  C14 UNL     1      22.548  -1.052  54.630  1.00  0.00     0.068 A 
HETATM   11  C15 UNL     1      23.461  -1.405  55.502  1.00  0.00     0.025 A 
HETATM   12  C16 UNL     1      24.904  -1.088  55.412  1.00  0.00     0.154 A 
ENDROOT
BRANCH   4  13
HETATM   13  N2  UNL     1      22.160   0.786  51.421  1.00  0.00    -0.357 N 
HETATM   14  H9  UNL     1      22.075   0.372  50.490  1.00  0.00     0.166 HD
BRANCH  13  15
HETATM   15  C7  UNL     1      22.483   2.131  51.639  1.00  0.00     0.140 C 
BRANCH  15  16
HETATM   16  C8  UNL     1      21.498   2.993  51.773  1.00  0.00    -0.130 C 
BRANCH  16  17
HETATM   17  C9  UNL     1      20.385   3.634  52.037  1.00  0.00     0.104 C 
BRANCH  17  18
HETATM   18  C10 UNL     1      19.524   4.042  50.914  1.00  0.00     0.170 C 
HETATM   19 CL1  UNL     1      19.982   3.074  49.489  1.00  0.00    -0.112 Cl
HETATM   20 BR1  UNL     1      17.649   3.881  51.233  1.00  0.00    -0.073 Br
ENDBRANCH  17  18
ENDBRANCH  16  17
ENDBRANCH  15  16
ENDBRANCH  13  15
ENDBRANCH   4  13
BRANCH   1  21
HETATM   21  C2  UNL     1      26.530   0.074  53.954  1.00  0.00     0.217 C 
HETATM   22  C3  UNL     1      26.802  -0.305  52.506  1.00  0.00     0.063 C 
BRANCH  21  23
HETATM   23  O1  UNL     1      27.424  -0.533  54.799  1.00  0.00    -0.372 OA
HETATM   24  C1  UNL     1      28.589   0.219  54.829  1.00  0.00     0.204 C 
ENDBRANCH  21  23
ENDBRANCH   1  21
TORSDOF 7
ENDMDL
MODEL 6
REMARK VINA RESULT:      -6.6      3.777      5.792
REMARK  7 active torsions:
REMARK  status: ('A' for Active; 'I' for Inactive)
REMARK    1  A    between atoms: O1_2  and  C2_3 
REMARK    2  A    between atoms: C2_3  and  N1_5 
REMARK    3  A    between atoms: C6_8  and  N2_9 
REMARK    4  A    between atoms: N2_9  and  C7_10 
REMARK    5  A    between atoms: C7_10  and  C8_11 
REMARK    6  A    between atoms: C8_11  and  C9_12 
REMARK    7  A    between atoms: C9_12  and  C10_13 
ROOT
HETATM    1  N1  UNL     1      25.429   2.787  51.017  1.00  0.00    -0.360 N 
HETATM    2  C4  UNL     1      24.262   2.194  51.573  1.00  0.00     0.104 A 
HETATM    3  C5  UNL     1      24.490   1.214  52.431  1.00  0.00     0.036 A 
HETATM    4  C6  UNL     1      23.379   0.616  52.992  1.00  0.00     0.069 A 
HETATM    5  C11 UNL     1      23.575  -0.413  53.895  1.00  0.00     0.089 A 
HETATM    6  C12 UNL     1      22.465  -1.085  54.520  1.00  0.00     0.103 C 
HETATM    7  N3  UNL     1      21.562  -1.619  55.043  1.00  0.00    -0.191 NA
HETATM    8  C13 UNL     1      24.831  -0.874  54.268  1.00  0.00     0.142 A 
HETATM    9  N4  UNL     1      25.888  -0.252  53.690  1.00  0.00    -0.259 NA
HETATM   10  C14 UNL     1      25.731   0.749  52.809  1.00  0.00     0.068 A 
HETATM   11  C15 UNL     1      26.796   1.307  52.286  1.00  0.00     0.025 A 
HETATM   12  C16 UNL     1      26.794   2.416  51.307  1.00  0.00     0.154 A 
ENDROOT
BRANCH   4  13
HETATM   13  N2  UNL     1      22.019   0.952  52.732  1.00  0.00    -0.357 N 
HETATM   14  H9  UNL     1      21.485   1.592  53.324  1.00  0.00     0.166 HD
BRANCH  13  15
HETATM   15  C7  UNL     1      21.487   0.326  51.598  1.00  0.00     0.140 C 
BRANCH  15  16
HETATM   16  C8  UNL     1      20.178   0.289  51.465  1.00  0.00    -0.130 C 
BRANCH  16  17
HETATM   17  C9  UNL     1      18.925   0.422  51.107  1.00  0.00     0.104 C 
BRANCH  17  18
HETATM   18  C10 UNL     1      17.925  -0.485  51.697  1.00  0.00     0.170 C 
HETATM   19 CL1  UNL     1      18.563  -1.071  53.254  1.00  0.00    -0.112 Cl
HETATM   20 BR1  UNL     1      16.192   0.275  51.950  1.00  0.00    -0.073 Br
ENDBRANCH  17  18
ENDBRANCH  16  17
ENDBRANCH  15  16
ENDBRANCH  13  15
ENDBRANCH   4  13
BRANCH   1  21
HETATM   21  C2  UNL     1      25.233   3.876  50.060  1.00  0.00     0.217 C 
HETATM   22  C3  UNL     1      26.571   4.046  49.358  1.00  0.00     0.063 C 
BRANCH  21  23
HETATM   23  O1  UNL     1      24.839   5.045  50.661  1.00  0.00    -0.372 OA
HETATM   24  C1  UNL     1      25.450   6.107  50.010  1.00  0.00     0.204 C 
ENDBRANCH  21  23
ENDBRANCH   1  21
TORSDOF 7
ENDMDL
MODEL 7
REMARK VINA RESULT:      -6.4      2.276      2.428
REMARK  7 active torsions:
REMARK  status: ('A' for Active; 'I' for Inactive)
REMARK    1  A    between atoms: O1_2  and  C2_3 
REMARK    2  A    between atoms: C2_3  and  N1_5 
REMARK    3  A    between atoms: C6_8  and  N2_9 
REMARK    4  A    between atoms: N2_9  and  C7_10 
REMARK    5  A    between atoms: C7_10  and  C8_11 
REMARK    6  A    between atoms: C8_11  and  C9_12 
REMARK    7  A    between atoms: C9_12  and  C10_13 
ROOT
HETATM    1  N1  UNL     1      25.539   0.749  53.257  1.00  0.00    -0.360 N 
HETATM    2  C4  UNL     1      24.609   1.721  52.795  1.00  0.00     0.104 A 
HETATM    3  C5  UNL     1      23.338   1.389  52.941  1.00  0.00     0.036 A 
HETATM    4  C6  UNL     1      22.407   2.311  52.504  1.00  0.00     0.069 A 
HETATM    5  C11 UNL     1      21.066   2.002  52.639  1.00  0.00     0.089 A 
HETATM    6  C12 UNL     1      20.037   2.912  52.205  1.00  0.00     0.103 C 
HETATM    7  N3  UNL     1      19.202   3.662  51.870  1.00  0.00    -0.191 NA
HETATM    8  C13 UNL     1      20.607   0.813  53.193  1.00  0.00     0.142 A 
HETATM    9  N4  UNL     1      21.561  -0.056  53.608  1.00  0.00    -0.259 NA
HETATM   10  C14 UNL     1      22.872   0.214  53.490  1.00  0.00     0.068 A 
HETATM   11  C15 UNL     1      23.743  -0.671  53.911  1.00  0.00     0.025 A 
HETATM   12  C16 UNL     1      25.214  -0.525  53.853  1.00  0.00     0.154 A 
ENDROOT
BRANCH   4  13
HETATM   13  N2  UNL     1      22.687   3.576  51.911  1.00  0.00    -0.357 N 
HETATM   14  H9  UNL     1      22.714   4.444  52.451  1.00  0.00     0.166 HD
BRANCH  13  15
HETATM   15  C7  UNL     1      22.918   3.518  50.532  1.00  0.00     0.140 C 
BRANCH  15  16
HETATM   16  C8  UNL     1      24.013   4.074  50.061  1.00  0.00    -0.130 C 
BRANCH  16  17
HETATM   17  C9  UNL     1      25.086   4.423  49.393  1.00  0.00     0.104 C 
BRANCH  17  18
HETATM   18  C10 UNL     1      25.170   5.796  48.865  1.00  0.00     0.170 C 
HETATM   19 CL1  UNL     1      23.645   6.155  48.016  1.00  0.00    -0.112 Cl
HETATM   20 BR1  UNL     1      25.519   7.144  50.171  1.00  0.00    -0.073 Br
ENDBRANCH  17  18
ENDBRANCH  16  17
ENDBRANCH  15  16
ENDBRANCH  13  15
ENDBRANCH   4  13
BRANCH   1  21
HETATM   21  C2  UNL     1      26.960   1.066  53.118  1.00  0.00     0.217 C 
HETATM   22  C3  UNL     1      27.685  -0.268  53.203  1.00  0.00     0.063 C 
BRANCH  21  23
HETATM   23  O1  UNL     1      27.407   1.933  54.084  1.00  0.00    -0.372 OA
HETATM   24  C1  UNL     1      28.647   2.425  53.700  1.00  0.00     0.204 C 
ENDBRANCH  21  23
ENDBRANCH   1  21
TORSDOF 7
ENDMDL
MODEL 8
REMARK VINA RESULT:      -6.2      3.335      5.414
REMARK  7 active torsions:
REMARK  status: ('A' for Active; 'I' for Inactive)
REMARK    1  A    between atoms: O1_2  and  C2_3 
REMARK    2  A    between atoms: C2_3  and  N1_5 
REMARK    3  A    between atoms: C6_8  and  N2_9 
REMARK    4  A    between atoms: N2_9  and  C7_10 
REMARK    5  A    between atoms: C7_10  and  C8_11 
REMARK    6  A    between atoms: C8_11  and  C9_12 
REMARK    7  A    between atoms: C9_12  and  C10_13 
ROOT
HETATM    1  N1  UNL     1      22.952  -0.346  54.272  1.00  0.00    -0.360 N 
HETATM    2  C4  UNL     1      23.222   0.561  53.210  1.00  0.00     0.104 A 
HETATM    3  C5  UNL     1      24.505   0.753  52.954  1.00  0.00     0.036 A 
HETATM    4  C6  UNL     1      24.803   1.628  51.928  1.00  0.00     0.069 A 
HETATM    5  C11 UNL     1      26.134   1.856  51.628  1.00  0.00     0.089 A 
HETATM    6  C12 UNL     1      26.523   2.755  50.573  1.00  0.00     0.103 C 
HETATM    7  N3  UNL     1      26.839   3.472  49.701  1.00  0.00    -0.191 NA
HETATM    8  C13 UNL     1      27.185   1.249  52.305  1.00  0.00     0.142 A 
HETATM    9  N4  UNL     1      26.837   0.398  53.302  1.00  0.00    -0.259 NA
HETATM   10  C14 UNL     1      25.555   0.157  53.618  1.00  0.00     0.068 A 
HETATM   11  C15 UNL     1      25.287  -0.677  54.594  1.00  0.00     0.025 A 
HETATM   12  C16 UNL     1      23.934  -1.049  55.062  1.00  0.00     0.154 A 
ENDROOT
BRANCH   4  13
HETATM   13  N2  UNL     1      23.865   2.340  51.127  1.00  0.00    -0.357 N 
HETATM   14  H9  UNL     1      23.591   2.032  50.191  1.00  0.00     0.166 HD
BRANCH  13  15
HETATM   15  C7  UNL     1      23.359   3.494  51.737  1.00  0.00     0.140 C 
BRANCH  15  16
HETATM   16  C8  UNL     1      22.060   3.574  51.935  1.00  0.00    -0.130 C 
BRANCH  16  17
HETATM   17  C9  UNL     1      20.806   3.930  52.068  1.00  0.00     0.104 C 
BRANCH  17  18
HETATM   18  C10 UNL     1      19.759   2.927  51.807  1.00  0.00     0.170 C 
HETATM   19 CL1  UNL     1      18.249   3.792  51.425  1.00  0.00    -0.112 Cl
HETATM   20 BR1  UNL     1      20.162   1.681  50.418  1.00  0.00    -0.073 Br
ENDBRANCH  17  18
ENDBRANCH  16  17
ENDBRANCH  15  16
ENDBRANCH  13  15
ENDBRANCH   4  13
BRANCH   1  21
HETATM   21  C2  UNL     1      21.547  -0.593  54.597  1.00  0.00     0.217 C 
HETATM   22  C3  UNL     1      21.309  -2.061  54.281  1.00  0.00     0.063 C 
BRANCH  21  23
HETATM   23  O1  UNL     1      20.690   0.210  53.886  1.00  0.00    -0.372 OA
HETATM   24  C1  UNL     1      19.619  -0.559  53.452  1.00  0.00     0.204 C 
ENDBRANCH  21  23
ENDBRANCH   1  21
TORSDOF 7
ENDMDL
MODEL 9
REMARK VINA RESULT:      -6.2      2.585      2.904
REMARK  7 active torsions:
REMARK  status: ('A' for Active; 'I' for Inactive)
REMARK    1  A    between atoms: O1_2  and  C2_3 
REMARK    2  A    between atoms: C2_3  and  N1_5 
REMARK    3  A    between atoms: C6_8  and  N2_9 
REMARK    4  A    between atoms: N2_9  and  C7_10 
REMARK    5  A    between atoms: C7_10  and  C8_11 
REMARK    6  A    between atoms: C8_11  and  C9_12 
REMARK    7  A    between atoms: C9_12  and  C10_13 
ROOT
HETATM    1  N1  UNL     1      25.150   0.454  53.542  1.00  0.00    -0.360 N 
HETATM    2  C4  UNL     1      24.514   1.532  52.865  1.00  0.00     0.104 A 
HETATM    3  C5  UNL     1      23.192   1.485  52.863  1.00  0.00     0.036 A 
HETATM    4  C6  UNL     1      22.541   2.516  52.215  1.00  0.00     0.069 A 
HETATM    5  C11 UNL     1      21.159   2.505  52.192  1.00  0.00     0.089 A 
HETATM    6  C12 UNL     1      20.410   3.546  51.535  1.00  0.00     0.103 C 
HETATM    7  N3  UNL     1      19.802   4.403  51.017  1.00  0.00    -0.191 NA
HETATM    8  C13 UNL     1      20.392   1.512  52.787  1.00  0.00     0.142 A 
HETATM    9  N4  UNL     1      21.079   0.524  53.411  1.00  0.00    -0.259 NA
HETATM   10  C14 UNL     1      22.422   0.506  53.451  1.00  0.00     0.068 A 
HETATM   11  C15 UNL     1      23.025  -0.480  54.070  1.00  0.00     0.025 A 
HETATM   12  C16 UNL     1      24.489  -0.645  54.204  1.00  0.00     0.154 A 
ENDROOT
BRANCH   4  13
HETATM   13  N2  UNL     1      23.156   3.616  51.551  1.00  0.00    -0.357 N 
HETATM   14  H9  UNL     1      23.076   4.579  51.886  1.00  0.00     0.166 HD
BRANCH  13  15
HETATM   15  C7  UNL     1      23.873   3.257  50.403  1.00  0.00     0.140 C 
BRANCH  15  16
HETATM   16  C8  UNL     1      23.197   2.860  49.347  1.00  0.00    -0.130 C 
BRANCH  16  17
HETATM   17  C9  UNL     1      22.780   2.466  48.168  1.00  0.00     0.104 C 
BRANCH  17  18
HETATM   18  C10 UNL     1      21.715   3.238  47.505  1.00  0.00     0.170 C 
HETATM   19 CL1  UNL     1      20.147   2.552  47.998  1.00  0.00    -0.112 Cl
HETATM   20 BR1  UNL     1      21.740   5.115  47.854  1.00  0.00    -0.073 Br
ENDBRANCH  17  18
ENDBRANCH  16  17
ENDBRANCH  15  16
ENDBRANCH  13  15
ENDBRANCH   4  13
BRANCH   1  21
HETATM   21  C2  UNL     1      26.613   0.457  53.572  1.00  0.00     0.217 C 
HETATM   22  C3  UNL     1      27.032  -0.906  53.043  1.00  0.00     0.063 C 
BRANCH  21  23
HETATM   23  O1  UNL     1      27.117   0.674  54.829  1.00  0.00    -0.372 OA
HETATM   24  C1  UNL     1      28.423   0.206  54.872  1.00  0.00     0.204 C 
ENDBRANCH  21  23
ENDBRANCH   1  21
TORSDOF 7
ENDMDL
