MODEL 1
REMARK VINA RESULT:      -7.2      0.000      0.000
REMARK  10 active torsions:
REMARK  status: ('A' for Active; 'I' for Inactive)
REMARK    1  A    between atoms: C4_4  and  C5_5 
REMARK    2  A    between atoms: C6_6  and  C7_7 
REMARK    3  A    between atoms: C7_7  and  N1_9 
REMARK    4  A    between atoms: N1_9  and  C9_10 
REMARK    5  A    between atoms: C13_16  and  C14_17 
REMARK    6  A    between atoms: C14_17  and  C15_18 
REMARK    7  A    between atoms: C15_18  and  C16_19 
REMARK    8  A    between atoms: C21_25  and  C22_26 
REMARK    9  A    between atoms: C22_26  and  C23_27 
REMARK   10  A    between atoms: C23_27  and  O2_28 
ROOT
HETATM    1  C1  UNL     1      21.934   4.689  44.909  1.00  0.00     0.017 C 
HETATM    2  C2  UNL     1      21.843   4.434  46.079  1.00  0.00    -0.089 C 
HETATM    3  C3  UNL     1      21.757   4.128  47.499  1.00  0.00     0.063 C 
HETATM    4  C4  UNL     1      20.625   4.470  48.077  1.00  0.00     0.005 C 
ENDROOT
BRANCH   4   5
HETATM    5  C5  UNL     1      20.196   4.313  49.482  1.00  0.00    -0.019 C 
HETATM    6  C6  UNL     1      19.732   3.260  50.132  1.00  0.00     0.046 C 
BRANCH   6   7
HETATM    7  C7  UNL     1      19.357   3.304  51.535  1.00  0.00     0.006 C 
HETATM    8  C8  UNL     1      18.038   3.536  51.594  1.00  0.00     0.073 C 
BRANCH   7   9
HETATM    9  N1  UNL     1      20.182   3.157  52.718  1.00  0.00    -0.344 N 
HETATM   10  H8  UNL     1      19.856   3.944  53.362  1.00  0.00     0.167 HD
BRANCH   9  11
HETATM   11  C9  UNL     1      21.069   2.056  52.681  1.00  0.00     0.142 A 
HETATM   12  N2  UNL     1      20.265   0.987  52.854  1.00  0.00    -0.224 NA
HETATM   13  C10 UNL     1      20.820  -0.264  52.921  1.00  0.00     0.236 A 
HETATM   14  N3  UNL     1      22.151  -0.430  52.816  1.00  0.00    -0.241 NA
HETATM   15  C11 UNL     1      22.967   0.609  52.645  1.00  0.00     0.073 A 
HETATM   16  C12 UNL     1      24.325   0.528  52.574  1.00  0.00     0.039 A 
HETATM   17  C24 UNL     1      22.419   1.858  52.575  1.00  0.00     0.045 A 
HETATM   18  C13 UNL     1      25.087   1.668  52.439  1.00  0.00    -0.055 A 
HETATM   19  C20 UNL     1      24.454   2.894  52.375  1.00  0.00     0.015 A 
HETATM   20  C21 UNL     1      23.054   3.052  52.440  1.00  0.00    -0.039 A 
BRANCH  18  21
HETATM   21  C14 UNL     1      26.553   1.464  52.367  1.00  0.00     0.041 C 
BRANCH  21  22
HETATM   22  C15 UNL     1      27.250   1.637  53.692  1.00  0.00     0.036 C 
BRANCH  22  23
HETATM   23  C16 UNL     1      27.595   0.289  54.343  1.00  0.00     0.121 C 
HETATM   24  C17 UNL     1      27.601  -0.775  53.307  1.00  0.00     0.034 C 
HETATM   25  C18 UNL     1      29.037  -1.229  53.256  1.00  0.00     0.029 C 
HETATM   26  C19 UNL     1      29.748  -0.066  53.907  1.00  0.00     0.168 C 
HETATM   27  O1  UNL     1      28.873   0.434  54.864  1.00  0.00    -0.386 OA
ENDBRANCH  22  23
ENDBRANCH  21  22
ENDBRANCH  18  21
BRANCH  20  28
HETATM   28  C22 UNL     1      22.690   4.454  52.219  1.00  0.00     0.065 C 
BRANCH  28  29
HETATM   29  C23 UNL     1      23.829   5.275  51.600  1.00  0.00     0.168 C 
BRANCH  29  30
HETATM   30  O2  UNL     1      24.200   6.388  52.272  1.00  0.00    -0.401 OA
HETATM   31  H27 UNL     1      24.971   6.888  51.937  1.00  0.00     0.209 HD
ENDBRANCH  29  30
ENDBRANCH  28  29
ENDBRANCH  20  28
ENDBRANCH   9  11
ENDBRANCH   7   9
ENDBRANCH   6   7
ENDBRANCH   4   5
TORSDOF 10
ENDMDL
MODEL 2
REMARK VINA RESULT:      -6.9     10.626     13.219
REMARK  10 active torsions:
REMARK  status: ('A' for Active; 'I' for Inactive)
REMARK    1  A    between atoms: C4_4  and  C5_5 
REMARK    2  A    between atoms: C6_6  and  C7_7 
REMARK    3  A    between atoms: C7_7  and  N1_9 
REMARK    4  A    between atoms: N1_9  and  C9_10 
REMARK    5  A    between atoms: C13_16  and  C14_17 
REMARK    6  A    between atoms: C14_17  and  C15_18 
REMARK    7  A    between atoms: C15_18  and  C16_19 
REMARK    8  A    between atoms: C21_25  and  C22_26 
REMARK    9  A    between atoms: C22_26  and  C23_27 
REMARK   10  A    between atoms: C23_27  and  O2_28 
ROOT
HETATM    1  C1  UNL     1      26.827   6.809  48.500  1.00  0.00     0.017 C 
HETATM    2  C2  UNL     1      27.974   6.655  48.181  1.00  0.00    -0.089 C 
HETATM    3  C3  UNL     1      29.369   6.491  47.800  1.00  0.00     0.063 C 
HETATM    4  C4  UNL     1      29.851   5.276  47.956  1.00  0.00     0.005 C 
ENDROOT
BRANCH   4   5
HETATM    5  C5  UNL     1      31.205   4.754  47.676  1.00  0.00    -0.019 C 
HETATM    6  C6  UNL     1      31.607   3.773  46.886  1.00  0.00     0.046 C 
BRANCH   6   7
HETATM    7  C7  UNL     1      33.005   3.402  46.742  1.00  0.00     0.006 C 
HETATM    8  C8  UNL     1      33.155   2.178  47.269  1.00  0.00     0.073 C 
BRANCH   7   9
HETATM    9  N1  UNL     1      34.106   4.151  46.172  1.00  0.00    -0.344 N 
HETATM   10  H8  UNL     1      34.392   3.583  45.314  1.00  0.00     0.167 HD
BRANCH   9  11
HETATM   11  C9  UNL     1      34.410   5.354  46.852  1.00  0.00     0.142 A 
HETATM   12  N2  UNL     1      35.014   4.943  47.985  1.00  0.00    -0.224 NA
HETATM   13  C10 UNL     1      35.400   5.873  48.914  1.00  0.00     0.236 A 
HETATM   14  N3  UNL     1      35.181   7.184  48.703  1.00  0.00    -0.241 NA
HETATM   15  C11 UNL     1      34.587   7.617  47.592  1.00  0.00     0.073 A 
HETATM   16  C12 UNL     1      34.291   8.919  47.325  1.00  0.00     0.039 A 
HETATM   17  C24 UNL     1      34.202   6.694  46.662  1.00  0.00     0.045 A 
HETATM   18  C13 UNL     1      33.634   9.264  46.163  1.00  0.00    -0.055 A 
HETATM   19  C20 UNL     1      33.281   8.267  45.273  1.00  0.00     0.015 A 
HETATM   20  C21 UNL     1      33.555   6.900  45.484  1.00  0.00    -0.039 A 
BRANCH  18  21
HETATM   21  C14 UNL     1      33.368  10.709  45.972  1.00  0.00     0.041 C 
BRANCH  21  22
HETATM   22  C15 UNL     1      32.697  11.358  47.155  1.00  0.00     0.036 C 
BRANCH  22  23
HETATM   23  C16 UNL     1      31.179  11.120  47.159  1.00  0.00     0.121 C 
HETATM   24  C17 UNL     1      30.854  10.004  48.083  1.00  0.00     0.034 C 
HETATM   25  C18 UNL     1      30.047  10.656  49.176  1.00  0.00     0.029 C 
HETATM   26  C19 UNL     1      30.412  12.111  48.998  1.00  0.00     0.168 C 
HETATM   27  O1  UNL     1      30.612  12.295  47.635  1.00  0.00    -0.386 OA
ENDBRANCH  22  23
ENDBRANCH  21  22
ENDBRANCH  18  21
BRANCH  20  28
HETATM   28  C22 UNL     1      33.170   6.118  44.308  1.00  0.00     0.065 C 
BRANCH  28  29
HETATM   29  C23 UNL     1      34.234   6.138  43.202  1.00  0.00     0.168 C 
BRANCH  29  30
HETATM   30  O2  UNL     1      35.421   5.565  43.501  1.00  0.00    -0.401 OA
HETATM   31  H27 UNL     1      35.438   4.890  44.209  1.00  0.00     0.209 HD
ENDBRANCH  29  30
ENDBRANCH  28  29
ENDBRANCH  20  28
ENDBRANCH   9  11
ENDBRANCH   7   9
ENDBRANCH   6   7
ENDBRANCH   4   5
TORSDOF 10
ENDMDL
MODEL 3
REMARK VINA RESULT:      -6.8      2.871      4.207
REMARK  10 active torsions:
REMARK  status: ('A' for Active; 'I' for Inactive)
REMARK    1  A    between atoms: C4_4  and  C5_5 
REMARK    2  A    between atoms: C6_6  and  C7_7 
REMARK    3  A    between atoms: C7_7  and  N1_9 
REMARK    4  A    between atoms: N1_9  and  C9_10 
REMARK    5  A    between atoms: C13_16  and  C14_17 
REMARK    6  A    between atoms: C14_17  and  C15_18 
REMARK    7  A    between atoms: C15_18  and  C16_19 
REMARK    8  A    between atoms: C21_25  and  C22_26 
REMARK    9  A    between atoms: C22_26  and  C23_27 
REMARK   10  A    between atoms: C23_27  and  O2_28 
ROOT
HETATM    1  C1  UNL     1      22.726   7.988  41.547  1.00  0.00     0.017 C 
HETATM    2  C2  UNL     1      22.901   7.727  42.707  1.00  0.00    -0.089 C 
HETATM    3  C3  UNL     1      23.116   7.435  44.115  1.00  0.00     0.063 C 
HETATM    4  C4  UNL     1      22.504   6.358  44.562  1.00  0.00     0.005 C 
ENDROOT
BRANCH   4   5
HETATM    5  C5  UNL     1      22.498   5.769  45.918  1.00  0.00    -0.019 C 
HETATM    6  C6  UNL     1      23.023   6.202  47.051  1.00  0.00     0.046 C 
BRANCH   6   7
HETATM    7  C7  UNL     1      22.910   5.469  48.301  1.00  0.00     0.006 C 
HETATM    8  C8  UNL     1      22.023   4.481  48.110  1.00  0.00     0.073 C 
BRANCH   7   9
HETATM    9  N1  UNL     1      23.570   5.696  49.570  1.00  0.00    -0.344 N 
HETATM   10  H8  UNL     1      22.956   6.422  50.057  1.00  0.00     0.167 HD
BRANCH   9  11
HETATM   11  C9  UNL     1      24.720   4.899  49.783  1.00  0.00     0.142 A 
HETATM   12  N2  UNL     1      25.638   5.426  48.949  1.00  0.00    -0.224 NA
HETATM   13  C10 UNL     1      26.877   4.847  48.866  1.00  0.00     0.236 A 
HETATM   14  N3  UNL     1      27.179   3.765  49.606  1.00  0.00    -0.241 NA
HETATM   15  C11 UNL     1      26.290   3.225  50.437  1.00  0.00     0.073 A 
HETATM   16  C12 UNL     1      26.503   2.106  51.186  1.00  0.00     0.039 A 
HETATM   17  C24 UNL     1      25.054   3.799  50.526  1.00  0.00     0.045 A 
HETATM   18  C13 UNL     1      25.503   1.599  51.987  1.00  0.00    -0.055 A 
HETATM   19  C20 UNL     1      24.280   2.242  52.020  1.00  0.00     0.015 A 
HETATM   20  C21 UNL     1      23.990   3.403  51.273  1.00  0.00    -0.039 A 
BRANCH  18  21
HETATM   21  C14 UNL     1      25.845   0.383  52.761  1.00  0.00     0.041 C 
BRANCH  21  22
HETATM   22  C15 UNL     1      26.407   0.680  54.127  1.00  0.00     0.036 C 
BRANCH  22  23
HETATM   23  C16 UNL     1      27.603  -0.224  54.468  1.00  0.00     0.121 C 
HETATM   24  C17 UNL     1      28.328  -0.576  53.221  1.00  0.00     0.034 C 
HETATM   25  C18 UNL     1      29.676   0.079  53.384  1.00  0.00     0.029 C 
HETATM   26  C19 UNL     1      29.390   1.102  54.458  1.00  0.00     0.168 C 
HETATM   27  O1  UNL     1      28.430   0.533  55.286  1.00  0.00    -0.386 OA
ENDBRANCH  22  23
ENDBRANCH  21  22
ENDBRANCH  18  21
BRANCH  20  28
HETATM   28  C22 UNL     1      22.660   3.910  51.621  1.00  0.00     0.065 C 
BRANCH  28  29
HETATM   29  C23 UNL     1      22.687   4.897  52.796  1.00  0.00     0.168 C 
BRANCH  29  30
HETATM   30  O2  UNL     1      23.814   5.631  52.938  1.00  0.00    -0.401 OA
HETATM   31  H27 UNL     1      24.618   5.328  52.472  1.00  0.00     0.209 HD
ENDBRANCH  29  30
ENDBRANCH  28  29
ENDBRANCH  20  28
ENDBRANCH   9  11
ENDBRANCH   7   9
ENDBRANCH   6   7
ENDBRANCH   4   5
TORSDOF 10
ENDMDL
MODEL 4
REMARK VINA RESULT:      -6.7      6.002      8.402
REMARK  10 active torsions:
REMARK  status: ('A' for Active; 'I' for Inactive)
REMARK    1  A    between atoms: C4_4  and  C5_5 
REMARK    2  A    between atoms: C6_6  and  C7_7 
REMARK    3  A    between atoms: C7_7  and  N1_9 
REMARK    4  A    between atoms: N1_9  and  C9_10 
REMARK    5  A    between atoms: C13_16  and  C14_17 
REMARK    6  A    between atoms: C14_17  and  C15_18 
REMARK    7  A    between atoms: C15_18  and  C16_19 
REMARK    8  A    between atoms: C21_25  and  C22_26 
REMARK    9  A    between atoms: C22_26  and  C23_27 
REMARK   10  A    between atoms: C23_27  and  O2_28 
ROOT
HETATM    1  C1  UNL     1      23.794   8.417  42.022  1.00  0.00     0.017 C 
HETATM    2  C2  UNL     1      24.473   8.634  42.989  1.00  0.00    -0.089 C 
HETATM    3  C3  UNL     1      25.276   8.893  44.174  1.00  0.00     0.063 C 
HETATM    4  C4  UNL     1      26.546   8.562  44.071  1.00  0.00     0.005 C 
ENDROOT
BRANCH   4   5
HETATM    5  C5  UNL     1      27.637   8.682  45.062  1.00  0.00    -0.019 C 
HETATM    6  C6  UNL     1      27.883   9.612  45.968  1.00  0.00     0.046 C 
BRANCH   6   7
HETATM    7  C7  UNL     1      29.025   9.553  46.865  1.00  0.00     0.006 C 
HETATM    8  C8  UNL     1      30.048  10.171  46.257  1.00  0.00     0.073 C 
BRANCH   7   9
HETATM    9  N1  UNL     1      29.142   8.947  48.175  1.00  0.00    -0.344 N 
HETATM   10  H8  UNL     1      30.166   9.096  48.441  1.00  0.00     0.167 HD
BRANCH   9  11
HETATM   11  C9  UNL     1      27.932   8.425  48.690  1.00  0.00     0.142 A 
HETATM   12  N2  UNL     1      27.267   9.516  49.122  1.00  0.00    -0.224 NA
HETATM   13  C10 UNL     1      26.052   9.360  49.736  1.00  0.00     0.236 A 
HETATM   14  N3  UNL     1      25.523   8.135  49.908  1.00  0.00    -0.241 NA
HETATM   15  C11 UNL     1      26.160   7.042  49.491  1.00  0.00     0.073 A 
HETATM   16  C12 UNL     1      25.713   5.766  49.667  1.00  0.00     0.039 A 
HETATM   17  C24 UNL     1      27.370   7.191  48.876  1.00  0.00     0.045 A 
HETATM   18  C13 UNL     1      26.466   4.696  49.237  1.00  0.00    -0.055 A 
HETATM   19  C20 UNL     1      27.680   4.934  48.622  1.00  0.00     0.015 A 
HETATM   20  C21 UNL     1      28.204   6.226  48.406  1.00  0.00    -0.039 A 
BRANCH  18  21
HETATM   21  C14 UNL     1      25.882   3.354  49.474  1.00  0.00     0.041 C 
BRANCH  21  22
HETATM   22  C15 UNL     1      24.378   3.361  49.561  1.00  0.00     0.036 C 
BRANCH  22  23
HETATM   23  C16 UNL     1      23.862   2.474  50.705  1.00  0.00     0.121 C 
HETATM   24  C17 UNL     1      24.975   2.178  51.643  1.00  0.00     0.034 C 
HETATM   25  C18 UNL     1      24.565   2.858  52.924  1.00  0.00     0.029 C 
HETATM   26  C19 UNL     1      23.528   3.839  52.430  1.00  0.00     0.168 C 
HETATM   27  O1  UNL     1      22.893   3.223  51.359  1.00  0.00    -0.386 OA
ENDBRANCH  22  23
ENDBRANCH  21  22
ENDBRANCH  18  21
BRANCH  20  28
HETATM   28  C22 UNL     1      29.440   6.148  47.624  1.00  0.00     0.065 C 
BRANCH  28  29
HETATM   29  C23 UNL     1      30.671   5.833  48.484  1.00  0.00     0.168 C 
BRANCH  29  30
HETATM   30  O2  UNL     1      30.899   6.657  49.531  1.00  0.00    -0.401 OA
HETATM   31  H27 UNL     1      31.798   7.028  49.634  1.00  0.00     0.209 HD
ENDBRANCH  29  30
ENDBRANCH  28  29
ENDBRANCH  20  28
ENDBRANCH   9  11
ENDBRANCH   7   9
ENDBRANCH   6   7
ENDBRANCH   4   5
TORSDOF 10
ENDMDL
MODEL 5
REMARK VINA RESULT:      -6.7      4.856      6.828
REMARK  10 active torsions:
REMARK  status: ('A' for Active; 'I' for Inactive)
REMARK    1  A    between atoms: C4_4  and  C5_5 
REMARK    2  A    between atoms: C6_6  and  C7_7 
REMARK    3  A    between atoms: C7_7  and  N1_9 
REMARK    4  A    between atoms: N1_9  and  C9_10 
REMARK    5  A    between atoms: C13_16  and  C14_17 
REMARK    6  A    between atoms: C14_17  and  C15_18 
REMARK    7  A    between atoms: C15_18  and  C16_19 
REMARK    8  A    between atoms: C21_25  and  C22_26 
REMARK    9  A    between atoms: C22_26  and  C23_27 
REMARK   10  A    between atoms: C23_27  and  O2_28 
ROOT
HETATM    1  C1  UNL     1      16.399  -0.821  52.146  1.00  0.00     0.017 C 
HETATM    2  C2  UNL     1      17.331  -0.101  51.909  1.00  0.00    -0.089 C 
HETATM    3  C3  UNL     1      18.447   0.789  51.630  1.00  0.00     0.063 C 
HETATM    4  C4  UNL     1      19.637   0.234  51.708  1.00  0.00     0.005 C 
ENDROOT
BRANCH   4   5
HETATM    5  C5  UNL     1      20.973   0.828  51.492  1.00  0.00    -0.019 C 
HETATM    6  C6  UNL     1      21.446   2.026  51.793  1.00  0.00     0.046 C 
BRANCH   6   7
HETATM    7  C7  UNL     1      22.809   2.430  51.494  1.00  0.00     0.006 C 
HETATM    8  C8  UNL     1      23.379   2.814  52.646  1.00  0.00     0.073 C 
BRANCH   7   9
HETATM    9  N1  UNL     1      23.506   2.469  50.224  1.00  0.00    -0.344 N 
HETATM   10  H8  UNL     1      23.582   1.443  49.938  1.00  0.00     0.167 HD
BRANCH   9  11
HETATM   11  C9  UNL     1      23.803   3.771  49.758  1.00  0.00     0.142 A 
HETATM   12  N2  UNL     1      22.595   4.362  49.656  1.00  0.00    -0.224 NA
HETATM   13  C10 UNL     1      22.515   5.642  49.174  1.00  0.00     0.236 A 
HETATM   14  N3  UNL     1      23.625   6.306  48.804  1.00  0.00    -0.241 NA
HETATM   15  C11 UNL     1      24.829   5.745  48.894  1.00  0.00     0.073 A 
HETATM   16  C12 UNL     1      25.994   6.334  48.500  1.00  0.00     0.039 A 
HETATM   17  C24 UNL     1      24.917   4.470  49.376  1.00  0.00     0.045 A 
HETATM   18  C13 UNL     1      27.188   5.654  48.594  1.00  0.00    -0.055 A 
HETATM   19  C20 UNL     1      27.188   4.366  49.095  1.00  0.00     0.015 A 
HETATM   20  C21 UNL     1      26.024   3.696  49.522  1.00  0.00    -0.039 A 
BRANCH  18  21
HETATM   21  C14 UNL     1      28.392   6.391  48.143  1.00  0.00     0.041 C 
BRANCH  21  22
HETATM   22  C15 UNL     1      29.651   5.564  48.179  1.00  0.00     0.036 C 
BRANCH  22  23
HETATM   23  C16 UNL     1      30.890   6.413  48.505  1.00  0.00     0.121 C 
HETATM   24  C17 UNL     1      32.116   5.604  48.290  1.00  0.00     0.034 C 
HETATM   25  C18 UNL     1      32.813   6.291  47.145  1.00  0.00     0.029 C 
HETATM   26  C19 UNL     1      31.689   7.102  46.546  1.00  0.00     0.168 C 
HETATM   27  O1  UNL     1      30.872   7.472  47.607  1.00  0.00    -0.386 OA
ENDBRANCH  22  23
ENDBRANCH  21  22
ENDBRANCH  18  21
BRANCH  20  28
HETATM   28  C22 UNL     1      26.370   2.402  50.114  1.00  0.00     0.065 C 
BRANCH  28  29
HETATM   29  C23 UNL     1      26.646   2.489  51.622  1.00  0.00     0.168 C 
BRANCH  29  30
HETATM   30  O2  UNL     1      27.875   2.920  51.983  1.00  0.00    -0.401 OA
HETATM   31  H27 UNL     1      27.992   3.259  52.893  1.00  0.00     0.209 HD
ENDBRANCH  29  30
ENDBRANCH  28  29
ENDBRANCH  20  28
ENDBRANCH   9  11
ENDBRANCH   7   9
ENDBRANCH   6   7
ENDBRANCH   4   5
TORSDOF 10
ENDMDL
MODEL 6
REMARK VINA RESULT:      -6.6      1.876      2.923
REMARK  10 active torsions:
REMARK  status: ('A' for Active; 'I' for Inactive)
REMARK    1  A    between atoms: C4_4  and  C5_5 
REMARK    2  A    between atoms: C6_6  and  C7_7 
REMARK    3  A    between atoms: C7_7  and  N1_9 
REMARK    4  A    between atoms: N1_9  and  C9_10 
REMARK    5  A    between atoms: C13_16  and  C14_17 
REMARK    6  A    between atoms: C14_17  and  C15_18 
REMARK    7  A    between atoms: C15_18  and  C16_19 
REMARK    8  A    between atoms: C21_25  and  C22_26 
REMARK    9  A    between atoms: C22_26  and  C23_27 
REMARK   10  A    between atoms: C23_27  and  O2_28 
ROOT
HETATM    1  C1  UNL     1      20.765   4.100  43.987  1.00  0.00     0.017 C 
HETATM    2  C2  UNL     1      20.384   3.870  45.102  1.00  0.00    -0.089 C 
HETATM    3  C3  UNL     1      19.922   3.569  46.449  1.00  0.00     0.063 C 
HETATM    4  C4  UNL     1      20.300   4.426  47.374  1.00  0.00     0.005 C 
ENDROOT
BRANCH   4   5
HETATM    5  C5  UNL     1      20.020   4.434  48.825  1.00  0.00    -0.019 C 
HETATM    6  C6  UNL     1      19.859   3.439  49.680  1.00  0.00     0.046 C 
BRANCH   6   7
HETATM    7  C7  UNL     1      19.585   3.652  51.091  1.00  0.00     0.006 C 
HETATM    8  C8  UNL     1      18.300   4.021  51.203  1.00  0.00     0.073 C 
BRANCH   7   9
HETATM    9  N1  UNL     1      20.469   3.535  52.233  1.00  0.00    -0.344 N 
HETATM   10  H8  UNL     1      19.841   3.163  53.012  1.00  0.00     0.167 HD
BRANCH   9  11
HETATM   11  C9  UNL     1      21.817   3.875  51.968  1.00  0.00     0.142 A 
HETATM   12  N2  UNL     1      21.763   5.185  51.651  1.00  0.00    -0.224 NA
HETATM   13  C10 UNL     1      22.914   5.832  51.283  1.00  0.00     0.236 A 
HETATM   14  N3  UNL     1      24.086   5.173  51.237  1.00  0.00    -0.241 NA
HETATM   15  C11 UNL     1      24.166   3.879  51.544  1.00  0.00     0.073 A 
HETATM   16  C12 UNL     1      25.303   3.132  51.478  1.00  0.00     0.039 A 
HETATM   17  C24 UNL     1      23.023   3.229  51.913  1.00  0.00     0.045 A 
HETATM   18  C13 UNL     1      25.275   1.787  51.776  1.00  0.00    -0.055 A 
HETATM   19  C20 UNL     1      24.076   1.207  52.143  1.00  0.00     0.015 A 
HETATM   20  C21 UNL     1      22.861   1.918  52.233  1.00  0.00    -0.039 A 
BRANCH  18  21
HETATM   21  C14 UNL     1      26.570   1.073  51.678  1.00  0.00     0.041 C 
BRANCH  21  22
HETATM   22  C15 UNL     1      27.537   1.429  52.778  1.00  0.00     0.036 C 
BRANCH  22  23
HETATM   23  C16 UNL     1      27.709   0.283  53.787  1.00  0.00     0.121 C 
HETATM   24  C17 UNL     1      27.701  -1.016  53.068  1.00  0.00     0.034 C 
HETATM   25  C18 UNL     1      29.090  -1.560  53.278  1.00  0.00     0.029 C 
HETATM   26  C19 UNL     1      29.849  -0.315  53.671  1.00  0.00     0.168 C 
HETATM   27  O1  UNL     1      28.951   0.478  54.375  1.00  0.00    -0.386 OA
ENDBRANCH  22  23
ENDBRANCH  21  22
ENDBRANCH  18  21
BRANCH  20  28
HETATM   28  C22 UNL     1      21.806   1.054  52.766  1.00  0.00     0.065 C 
BRANCH  28  29
HETATM   29  C23 UNL     1      21.334  -0.003  51.758  1.00  0.00     0.168 C 
BRANCH  29  30
HETATM   30  O2  UNL     1      21.389   0.345  50.453  1.00  0.00    -0.401 OA
HETATM   31  H27 UNL     1      21.929  -0.208  49.855  1.00  0.00     0.209 HD
ENDBRANCH  29  30
ENDBRANCH  28  29
ENDBRANCH  20  28
ENDBRANCH   9  11
ENDBRANCH   7   9
ENDBRANCH   6   7
ENDBRANCH   4   5
TORSDOF 10
ENDMDL
MODEL 7
REMARK VINA RESULT:      -6.6      2.190      6.814
REMARK  10 active torsions:
REMARK  status: ('A' for Active; 'I' for Inactive)
REMARK    1  A    between atoms: C4_4  and  C5_5 
REMARK    2  A    between atoms: C6_6  and  C7_7 
REMARK    3  A    between atoms: C7_7  and  N1_9 
REMARK    4  A    between atoms: N1_9  and  C9_10 
REMARK    5  A    between atoms: C13_16  and  C14_17 
REMARK    6  A    between atoms: C14_17  and  C15_18 
REMARK    7  A    between atoms: C15_18  and  C16_19 
REMARK    8  A    between atoms: C21_25  and  C22_26 
REMARK    9  A    between atoms: C22_26  and  C23_27 
REMARK   10  A    between atoms: C23_27  and  O2_28 
ROOT
HETATM    1  C1  UNL     1      28.661  -1.258  53.151  1.00  0.00     0.017 C 
HETATM    2  C2  UNL     1      27.588  -0.726  53.237  1.00  0.00    -0.089 C 
HETATM    3  C3  UNL     1      26.294  -0.066  53.322  1.00  0.00     0.063 C 
HETATM    4  C4  UNL     1      25.304  -0.830  53.734  1.00  0.00     0.005 C 
ENDROOT
BRANCH   4   5
HETATM    5  C5  UNL     1      23.878  -0.500  53.937  1.00  0.00    -0.019 C 
HETATM    6  C6  UNL     1      22.788  -0.987  53.368  1.00  0.00     0.046 C 
BRANCH   6   7
HETATM    7  C7  UNL     1      21.452  -0.527  53.706  1.00  0.00     0.006 C 
HETATM    8  C8  UNL     1      20.788  -1.565  54.235  1.00  0.00     0.073 C 
BRANCH   7   9
HETATM    9  N1  UNL     1      20.851   0.779  53.526  1.00  0.00    -0.344 N 
HETATM   10  H8  UNL     1      20.859   1.207  54.504  1.00  0.00     0.167 HD
BRANCH   9  11
HETATM   11  C9  UNL     1      20.509   1.087  52.188  1.00  0.00     0.142 A 
HETATM   12  N2  UNL     1      19.390   0.369  51.966  1.00  0.00    -0.224 NA
HETATM   13  C10 UNL     1      18.810   0.398  50.725  1.00  0.00     0.236 A 
HETATM   14  N3  UNL     1      19.349   1.133  49.735  1.00  0.00    -0.241 NA
HETATM   15  C11 UNL     1      20.454   1.851  49.927  1.00  0.00     0.073 A 
HETATM   16  C12 UNL     1      21.083   2.584  48.966  1.00  0.00     0.039 A 
HETATM   17  C24 UNL     1      21.034   1.828  51.163  1.00  0.00     0.045 A 
HETATM   18  C13 UNL     1      22.249   3.260  49.254  1.00  0.00    -0.055 A 
HETATM   19  C20 UNL     1      22.769   3.185  50.532  1.00  0.00     0.015 A 
HETATM   20  C21 UNL     1      22.172   2.447  51.575  1.00  0.00    -0.039 A 
BRANCH  18  21
HETATM   21  C14 UNL     1      22.845   4.029  48.136  1.00  0.00     0.041 C 
BRANCH  21  22
HETATM   22  C15 UNL     1      23.733   5.159  48.591  1.00  0.00     0.036 C 
BRANCH  22  23
HETATM   23  C16 UNL     1      22.972   6.492  48.676  1.00  0.00     0.121 C 
HETATM   24  C17 UNL     1      22.806   6.877  50.100  1.00  0.00     0.034 C 
HETATM   25  C18 UNL     1      23.619   8.139  50.235  1.00  0.00     0.029 C 
HETATM   26  C19 UNL     1      24.518   8.054  49.024  1.00  0.00     0.168 C 
HETATM   27  O1  UNL     1      23.772   7.427  48.034  1.00  0.00    -0.386 OA
ENDBRANCH  22  23
ENDBRANCH  21  22
ENDBRANCH  18  21
BRANCH  20  28
HETATM   28  C22 UNL     1      22.892   2.670  52.831  1.00  0.00     0.065 C 
BRANCH  28  29
HETATM   29  C23 UNL     1      24.209   3.432  52.637  1.00  0.00     0.168 C 
BRANCH  29  30
HETATM   30  O2  UNL     1      25.191   3.169  53.528  1.00  0.00    -0.401 OA
HETATM   31  H27 UNL     1      25.305   3.787  54.278  1.00  0.00     0.209 HD
ENDBRANCH  29  30
ENDBRANCH  28  29
ENDBRANCH  20  28
ENDBRANCH   9  11
ENDBRANCH   7   9
ENDBRANCH   6   7
ENDBRANCH   4   5
TORSDOF 10
ENDMDL
MODEL 8
REMARK VINA RESULT:      -6.5      2.224      2.887
REMARK  10 active torsions:
REMARK  status: ('A' for Active; 'I' for Inactive)
REMARK    1  A    between atoms: C4_4  and  C5_5 
REMARK    2  A    between atoms: C6_6  and  C7_7 
REMARK    3  A    between atoms: C7_7  and  N1_9 
REMARK    4  A    between atoms: N1_9  and  C9_10 
REMARK    5  A    between atoms: C13_16  and  C14_17 
REMARK    6  A    between atoms: C14_17  and  C15_18 
REMARK    7  A    between atoms: C15_18  and  C16_19 
REMARK    8  A    between atoms: C21_25  and  C22_26 
REMARK    9  A    between atoms: C22_26  and  C23_27 
REMARK   10  A    between atoms: C23_27  and  O2_28 
ROOT
HETATM    1  C1  UNL     1      19.554   9.887  45.808  1.00  0.00     0.017 C 
HETATM    2  C2  UNL     1      20.010   9.186  46.670  1.00  0.00    -0.089 C 
HETATM    3  C3  UNL     1      20.548   8.348  47.731  1.00  0.00     0.063 C 
HETATM    4  C4  UNL     1      20.935   7.148  47.353  1.00  0.00     0.005 C 
ENDROOT
BRANCH   4   5
HETATM    5  C5  UNL     1      21.520   6.049  48.149  1.00  0.00    -0.019 C 
HETATM    6  C6  UNL     1      20.956   4.996  48.716  1.00  0.00     0.046 C 
BRANCH   6   7
HETATM    7  C7  UNL     1      21.711   4.011  49.471  1.00  0.00     0.006 C 
HETATM    8  C8  UNL     1      21.778   2.896  48.728  1.00  0.00     0.073 C 
BRANCH   7   9
HETATM    9  N1  UNL     1      22.301   4.110  50.791  1.00  0.00    -0.344 N 
HETATM   10  H8  UNL     1      22.677   5.108  50.834  1.00  0.00     0.167 HD
BRANCH   9  11
HETATM   11  C9  UNL     1      22.158   2.948  51.585  1.00  0.00     0.142 A 
HETATM   12  N2  UNL     1      20.859   2.959  51.945  1.00  0.00    -0.224 NA
HETATM   13  C10 UNL     1      20.386   1.978  52.778  1.00  0.00     0.236 A 
HETATM   14  N3  UNL     1      21.206   1.014  53.234  1.00  0.00    -0.241 NA
HETATM   15  C11 UNL     1      22.493   0.980  52.895  1.00  0.00     0.073 A 
HETATM   16  C12 UNL     1      23.394   0.065  53.349  1.00  0.00     0.039 A 
HETATM   17  C24 UNL     1      22.969   1.954  52.063  1.00  0.00     0.045 A 
HETATM   18  C13 UNL     1      24.718   0.140  52.972  1.00  0.00    -0.055 A 
HETATM   19  C20 UNL     1      25.117   1.156  52.125  1.00  0.00     0.015 A 
HETATM   20  C21 UNL     1      24.240   2.136  51.616  1.00  0.00    -0.039 A 
BRANCH  18  21
HETATM   21  C14 UNL     1      25.609  -0.910  53.520  1.00  0.00     0.041 C 
BRANCH  21  22
HETATM   22  C15 UNL     1      26.931  -1.008  52.805  1.00  0.00     0.036 C 
BRANCH  22  23
HETATM   23  C16 UNL     1      28.081  -1.358  53.763  1.00  0.00     0.121 C 
HETATM   24  C17 UNL     1      29.371  -1.302  53.030  1.00  0.00     0.034 C 
HETATM   25  C18 UNL     1      30.112  -0.162  53.680  1.00  0.00     0.029 C 
HETATM   26  C19 UNL     1      28.988   0.583  54.361  1.00  0.00     0.168 C 
HETATM   27  O1  UNL     1      28.065  -0.380  54.748  1.00  0.00    -0.386 OA
ENDBRANCH  22  23
ENDBRANCH  21  22
ENDBRANCH  18  21
BRANCH  20  28
HETATM   28  C22 UNL     1      24.938   2.992  50.654  1.00  0.00     0.065 C 
BRANCH  28  29
HETATM   29  C23 UNL     1      26.429   2.653  50.527  1.00  0.00     0.168 C 
BRANCH  29  30
HETATM   30  O2  UNL     1      27.297   3.647  50.819  1.00  0.00    -0.401 OA
HETATM   31  H27 UNL     1      28.211   3.571  50.480  1.00  0.00     0.209 HD
ENDBRANCH  29  30
ENDBRANCH  28  29
ENDBRANCH  20  28
ENDBRANCH   9  11
ENDBRANCH   7   9
ENDBRANCH   6   7
ENDBRANCH   4   5
TORSDOF 10
ENDMDL
MODEL 9
REMARK VINA RESULT:      -6.4      2.687      3.666
REMARK  10 active torsions:
REMARK  status: ('A' for Active; 'I' for Inactive)
REMARK    1  A    between atoms: C4_4  and  C5_5 
REMARK    2  A    between atoms: C6_6  and  C7_7 
REMARK    3  A    between atoms: C7_7  and  N1_9 
REMARK    4  A    between atoms: N1_9  and  C9_10 
REMARK    5  A    between atoms: C13_16  and  C14_17 
REMARK    6  A    between atoms: C14_17  and  C15_18 
REMARK    7  A    between atoms: C15_18  and  C16_19 
REMARK    8  A    between atoms: C21_25  and  C22_26 
REMARK    9  A    between atoms: C22_26  and  C23_27 
REMARK   10  A    between atoms: C23_27  and  O2_28 
ROOT
HETATM    1  C1  UNL     1      16.111   6.421  44.909  1.00  0.00     0.017 C 
HETATM    2  C2  UNL     1      16.786   5.580  45.436  1.00  0.00    -0.089 C 
HETATM    3  C3  UNL     1      17.614   4.555  46.053  1.00  0.00     0.063 C 
HETATM    4  C4  UNL     1      17.982   4.805  47.292  1.00  0.00     0.005 C 
ENDROOT
BRANCH   4   5
HETATM    5  C5  UNL     1      18.811   3.998  48.212  1.00  0.00    -0.019 C 
HETATM    6  C6  UNL     1      18.522   3.448  49.379  1.00  0.00     0.046 C 
BRANCH   6   7
HETATM    7  C7  UNL     1      19.487   2.680  50.147  1.00  0.00     0.006 C 
HETATM    8  C8  UNL     1      20.182   1.926  49.283  1.00  0.00     0.073 C 
BRANCH   7   9
HETATM    9  N1  UNL     1      19.718   2.650  51.577  1.00  0.00    -0.344 N 
HETATM   10  H8  UNL     1      18.756   2.449  51.993  1.00  0.00     0.167 HD
BRANCH   9  11
HETATM   11  C9  UNL     1      21.070   2.830  51.956  1.00  0.00     0.142 A 
HETATM   12  N2  UNL     1      21.287   4.147  51.765  1.00  0.00    -0.224 NA
HETATM   13  C10 UNL     1      22.537   4.660  51.993  1.00  0.00     0.236 A 
HETATM   14  N3  UNL     1      23.540   3.862  52.403  1.00  0.00    -0.241 NA
HETATM   15  C11 UNL     1      23.353   2.558  52.598  1.00  0.00     0.073 A 
HETATM   16  C12 UNL     1      24.325   1.679  52.970  1.00  0.00     0.039 A 
HETATM   17  C24 UNL     1      22.108   2.042  52.375  1.00  0.00     0.045 A 
HETATM   18  C13 UNL     1      24.040   0.338  53.106  1.00  0.00    -0.055 A 
HETATM   19  C20 UNL     1      22.753  -0.102  52.862  1.00  0.00     0.015 A 
HETATM   20  C21 UNL     1      21.698   0.750  52.476  1.00  0.00    -0.039 A 
BRANCH  18  21
HETATM   21  C14 UNL     1      25.171  -0.527  53.518  1.00  0.00     0.041 C 
BRANCH  21  22
HETATM   22  C15 UNL     1      26.514  -0.017  53.064  1.00  0.00     0.036 C 
BRANCH  22  23
HETATM   23  C16 UNL     1      27.580  -0.142  54.164  1.00  0.00     0.121 C 
HETATM   24  C17 UNL     1      28.787  -0.806  53.610  1.00  0.00     0.034 C 
HETATM   25  C18 UNL     1      29.853   0.257  53.674  1.00  0.00     0.029 C 
HETATM   26  C19 UNL     1      29.023   1.513  53.804  1.00  0.00     0.168 C 
HETATM   27  O1  UNL     1      27.897   1.158  54.535  1.00  0.00    -0.386 OA
ENDBRANCH  22  23
ENDBRANCH  21  22
ENDBRANCH  18  21
BRANCH  20  28
HETATM   28  C22 UNL     1      20.439   0.005  52.418  1.00  0.00     0.065 C 
BRANCH  28  29
HETATM   29  C23 UNL     1      19.900  -0.366  53.806  1.00  0.00     0.168 C 
BRANCH  29  30
HETATM   30  O2  UNL     1      19.682  -1.680  54.034  1.00  0.00    -0.401 OA
HETATM   31  H27 UNL     1      20.232  -2.124  54.710  1.00  0.00     0.209 HD
ENDBRANCH  29  30
ENDBRANCH  28  29
ENDBRANCH  20  28
ENDBRANCH   9  11
ENDBRANCH   7   9
ENDBRANCH   6   7
ENDBRANCH   4   5
TORSDOF 10
ENDMDL
