MODEL 1
REMARK VINA RESULT:      -8.3      0.000      0.000
REMARK  6 active torsions:
REMARK  status: ('A' for Active; 'I' for Inactive)
REMARK    1  A    between atoms: C2_2  and  O1_3 
REMARK    2  A    between atoms: C2_2  and  C4_5 
REMARK    3  A    between atoms: C4_5  and  O2_24 
REMARK    4  A    between atoms: C5_6  and  C6_7 
REMARK    5  A    between atoms: C8_9  and  N1_10 
REMARK    6  A    between atoms: N1_10  and  C9_11 
ROOT
HETATM    1  C6  UNL     1      22.198  -1.181  54.196  1.00  0.00     0.064 A 
HETATM    2  C7  UNL     1      23.113  -0.743  53.236  1.00  0.00     0.082 A 
HETATM    3  C8  UNL     1      24.448  -0.609  53.631  1.00  0.00     0.132 A 
HETATM    4  N3  UNL     1      24.848  -0.883  54.878  1.00  0.00    -0.224 NA
HETATM    5  C18 UNL     1      23.962  -1.300  55.785  1.00  0.00     0.235 A 
HETATM    6  N4  UNL     1      22.652  -1.440  55.427  1.00  0.00    -0.242 NA
ENDROOT
BRANCH   3   7
HETATM    7  N1  UNL     1      25.276  -0.170  52.553  1.00  0.00    -0.325 N 
HETATM    8  H8  UNL     1      25.027   0.445  51.753  1.00  0.00     0.169 HD
BRANCH   7   9
HETATM    9  C9  UNL     1      26.549  -0.759  52.804  1.00  0.00     0.140 A 
HETATM   10  N2  UNL     1      26.846  -2.067  52.693  1.00  0.00    -0.242 NA
HETATM   11  C10 UNL     1      28.047  -2.589  52.940  1.00  0.00     0.120 A 
HETATM   12  C11 UNL     1      29.079  -1.798  53.334  1.00  0.00     0.031 A 
HETATM   13  C12 UNL     1      28.802  -0.437  53.458  1.00  0.00    -0.021 A 
HETATM   14  C13 UNL     1      29.794   0.423  53.848  1.00  0.00     0.012 A 
HETATM   15  C17 UNL     1      27.545   0.120  53.199  1.00  0.00     0.020 A 
HETATM   16  C14 UNL     1      29.583   1.797  53.988  1.00  0.00     0.001 A 
HETATM   17  C15 UNL     1      28.328   2.328  53.725  1.00  0.00     0.001 A 
HETATM   18  C16 UNL     1      27.322   1.474  53.332  1.00  0.00     0.016 A 
ENDBRANCH   7   9
ENDBRANCH   3   7
BRANCH   1  19
HETATM   19  C5  UNL     1      20.830  -1.313  53.766  1.00  0.00     0.066 C 
HETATM   20  C4  UNL     1      20.247  -0.294  53.183  1.00  0.00     0.077 C 
BRANCH  20  21
HETATM   21  C2  UNL     1      18.812  -0.525  52.763  1.00  0.00     0.088 C 
HETATM   22  C1  UNL     1      18.081  -0.312  51.603  1.00  0.00     0.129 C 
BRANCH  21  23
HETATM   23  O1  UNL     1      17.956  -1.088  53.717  1.00  0.00    -0.384 OA
HETATM   24  C3  UNL     1      17.529  -2.441  53.491  1.00  0.00     0.202 C 
ENDBRANCH  21  23
ENDBRANCH  20  21
BRANCH  20  25
HETATM   25  O2  UNL     1      20.919   0.898  52.979  1.00  0.00    -0.357 OA
HETATM   26  C19 UNL     1      20.241   2.143  52.812  1.00  0.00     0.209 C 
ENDBRANCH  20  25
ENDBRANCH   1  19
TORSDOF 6
ENDMDL
MODEL 2
REMARK VINA RESULT:      -8.1      4.174      7.372
REMARK  6 active torsions:
REMARK  status: ('A' for Active; 'I' for Inactive)
REMARK    1  A    between atoms: C2_2  and  O1_3 
REMARK    2  A    between atoms: C2_2  and  C4_5 
REMARK    3  A    between atoms: C4_5  and  O2_24 
REMARK    4  A    between atoms: C5_6  and  C6_7 
REMARK    5  A    between atoms: C8_9  and  N1_10 
REMARK    6  A    between atoms: N1_10  and  C9_11 
ROOT
HETATM    1  C6  UNL     1      24.902   0.704  53.160  1.00  0.00     0.064 A 
HETATM    2  C7  UNL     1      24.748   1.412  51.966  1.00  0.00     0.082 A 
HETATM    3  C8  UNL     1      23.480   1.414  51.376  1.00  0.00     0.132 A 
HETATM    4  N3  UNL     1      22.445   0.765  51.923  1.00  0.00    -0.224 NA
HETATM    5  C18 UNL     1      22.608   0.093  53.063  1.00  0.00     0.235 A 
HETATM    6  N4  UNL     1      23.834   0.073  53.661  1.00  0.00    -0.242 NA
ENDROOT
BRANCH   3   7
HETATM    7  N1  UNL     1      23.458   2.184  50.174  1.00  0.00    -0.325 N 
HETATM    8  H8  UNL     1      23.497   1.851  49.189  1.00  0.00     0.169 HD
BRANCH   7   9
HETATM    9  C9  UNL     1      23.366   3.539  50.605  1.00  0.00     0.140 A 
HETATM   10  N2  UNL     1      22.388   4.054  51.373  1.00  0.00    -0.242 NA
HETATM   11  C10 UNL     1      22.325   5.329  51.756  1.00  0.00     0.120 A 
HETATM   12  C11 UNL     1      23.284   6.214  51.377  1.00  0.00     0.031 A 
HETATM   13  C12 UNL     1      24.311   5.710  50.581  1.00  0.00    -0.021 A 
HETATM   14  C13 UNL     1      25.314   6.542  50.161  1.00  0.00     0.012 A 
HETATM   15  C17 UNL     1      24.385   4.373  50.175  1.00  0.00     0.020 A 
HETATM   16  C14 UNL     1      26.373   6.099  49.365  1.00  0.00     0.001 A 
HETATM   17  C15 UNL     1      26.427   4.768  48.975  1.00  0.00     0.001 A 
HETATM   18  C16 UNL     1      25.424   3.920  49.390  1.00  0.00     0.016 A 
ENDBRANCH   7   9
ENDBRANCH   3   7
BRANCH   1  19
HETATM   19  C5  UNL     1      26.216   0.718  53.750  1.00  0.00     0.066 C 
HETATM   20  C4  UNL     1      27.137  -0.079  53.265  1.00  0.00     0.077 C 
BRANCH  20  21
HETATM   21  C2  UNL     1      28.486   0.005  53.945  1.00  0.00     0.088 C 
HETATM   22  C1  UNL     1      29.678  -0.700  53.854  1.00  0.00     0.129 C 
BRANCH  21  23
HETATM   23  O1  UNL     1      28.651   1.012  54.904  1.00  0.00    -0.384 OA
HETATM   24  C3  UNL     1      29.551   2.083  54.577  1.00  0.00     0.202 C 
ENDBRANCH  21  23
ENDBRANCH  20  21
BRANCH  20  25
HETATM   25  O2  UNL     1      26.868  -0.928  52.206  1.00  0.00    -0.357 OA
HETATM   26  C19 UNL     1      26.807  -2.346  52.356  1.00  0.00     0.209 C 
ENDBRANCH  20  25
ENDBRANCH   1  19
TORSDOF 6
ENDMDL
MODEL 3
REMARK VINA RESULT:      -8.0      5.320      7.921
REMARK  6 active torsions:
REMARK  status: ('A' for Active; 'I' for Inactive)
REMARK    1  A    between atoms: C2_2  and  O1_3 
REMARK    2  A    between atoms: C2_2  and  C4_5 
REMARK    3  A    between atoms: C4_5  and  O2_24 
REMARK    4  A    between atoms: C5_6  and  C6_7 
REMARK    5  A    between atoms: C8_9  and  N1_10 
REMARK    6  A    between atoms: N1_10  and  C9_11 
ROOT
HETATM    1  C6  UNL     1      25.085   2.129  52.197  1.00  0.00     0.064 A 
HETATM    2  C7  UNL     1      25.154   2.670  50.911  1.00  0.00     0.082 A 
HETATM    3  C8  UNL     1      24.539   3.908  50.699  1.00  0.00     0.132 A 
HETATM    4  N3  UNL     1      23.905   4.561  51.680  1.00  0.00    -0.224 NA
HETATM    5  C18 UNL     1      23.847   4.031  52.903  1.00  0.00     0.235 A 
HETATM    6  N4  UNL     1      24.438   2.823  53.139  1.00  0.00    -0.242 NA
ENDROOT
BRANCH   3   7
HETATM    7  N1  UNL     1      24.697   4.352  49.351  1.00  0.00    -0.325 N 
HETATM    8  H8  UNL     1      24.570   3.811  48.471  1.00  0.00     0.169 HD
BRANCH   7   9
HETATM    9  C9  UNL     1      25.069   5.723  49.455  1.00  0.00     0.140 A 
HETATM   10  N2  UNL     1      24.273   6.723  49.877  1.00  0.00    -0.242 NA
HETATM   11  C10 UNL     1      24.648   8.000  49.957  1.00  0.00     0.120 A 
HETATM   12  C11 UNL     1      25.905   8.376  49.604  1.00  0.00     0.031 A 
HETATM   13  C12 UNL     1      26.754   7.361  49.162  1.00  0.00    -0.021 A 
HETATM   14  C13 UNL     1      28.036   7.664  48.790  1.00  0.00     0.012 A 
HETATM   15  C17 UNL     1      26.368   6.019  49.075  1.00  0.00     0.020 A 
HETATM   16  C14 UNL     1      28.936   6.695  48.341  1.00  0.00     0.001 A 
HETATM   17  C15 UNL     1      28.533   5.369  48.264  1.00  0.00     0.001 A 
HETATM   18  C16 UNL     1      27.245   5.050  48.635  1.00  0.00     0.016 A 
ENDBRANCH   7   9
ENDBRANCH   3   7
BRANCH   1  19
HETATM   19  C5  UNL     1      25.726   0.854  52.392  1.00  0.00     0.066 C 
HETATM   20  C4  UNL     1      26.759   0.779  53.194  1.00  0.00     0.077 C 
BRANCH  20  21
HETATM   21  C2  UNL     1      27.365  -0.599  53.339  1.00  0.00     0.088 C 
HETATM   22  C1  UNL     1      27.149  -1.836  52.748  1.00  0.00     0.129 C 
BRANCH  21  23
HETATM   23  O1  UNL     1      28.401  -0.741  54.271  1.00  0.00    -0.384 OA
HETATM   24  C3  UNL     1      29.715  -1.001  53.751  1.00  0.00     0.202 C 
ENDBRANCH  21  23
ENDBRANCH  20  21
BRANCH  20  25
HETATM   25  O2  UNL     1      27.243   1.898  53.850  1.00  0.00    -0.357 OA
HETATM   26  C19 UNL     1      28.512   2.476  53.547  1.00  0.00     0.209 C 
ENDBRANCH  20  25
ENDBRANCH   1  19
TORSDOF 6
ENDMDL
MODEL 4
REMARK VINA RESULT:      -8.0      4.826      7.622
REMARK  6 active torsions:
REMARK  status: ('A' for Active; 'I' for Inactive)
REMARK    1  A    between atoms: C2_2  and  O1_3 
REMARK    2  A    between atoms: C2_2  and  C4_5 
REMARK    3  A    between atoms: C4_5  and  O2_24 
REMARK    4  A    between atoms: C5_6  and  C6_7 
REMARK    5  A    between atoms: C8_9  and  N1_10 
REMARK    6  A    between atoms: N1_10  and  C9_11 
ROOT
HETATM    1  C6  UNL     1      25.690   3.828  49.709  1.00  0.00     0.064 A 
HETATM    2  C7  UNL     1      25.847   3.586  51.075  1.00  0.00     0.082 A 
HETATM    3  C8  UNL     1      24.731   3.125  51.781  1.00  0.00     0.132 A 
HETATM    4  N3  UNL     1      23.551   2.921  51.183  1.00  0.00    -0.224 NA
HETATM    5  C18 UNL     1      23.417   3.158  49.877  1.00  0.00     0.235 A 
HETATM    6  N4  UNL     1      24.488   3.609  49.164  1.00  0.00    -0.242 NA
ENDROOT
BRANCH   3   7
HETATM    7  N1  UNL     1      25.032   2.904  53.159  1.00  0.00    -0.325 N 
HETATM    8  H8  UNL     1      24.996   3.581  53.948  1.00  0.00     0.169 HD
BRANCH   7   9
HETATM    9  C9  UNL     1      25.399   1.530  53.241  1.00  0.00     0.140 A 
HETATM   10  N2  UNL     1      24.564   0.484  53.099  1.00  0.00    -0.242 NA
HETATM   11  C10 UNL     1      24.937  -0.793  53.187  1.00  0.00     0.120 A 
HETATM   12  C11 UNL     1      26.232  -1.122  53.435  1.00  0.00     0.031 A 
HETATM   13  C12 UNL     1      27.122  -0.058  53.586  1.00  0.00    -0.021 A 
HETATM   14  C13 UNL     1      28.444  -0.311  53.836  1.00  0.00     0.012 A 
HETATM   15  C17 UNL     1      26.739   1.284  53.495  1.00  0.00     0.020 A 
HETATM   16  C14 UNL     1      29.386   0.708  53.995  1.00  0.00     0.001 A 
HETATM   17  C15 UNL     1      28.985   2.033  53.899  1.00  0.00     0.001 A 
HETATM   18  C16 UNL     1      27.657   2.302  53.648  1.00  0.00     0.016 A 
ENDBRANCH   7   9
ENDBRANCH   3   7
BRANCH   1  19
HETATM   19  C5  UNL     1      26.853   4.302  49.003  1.00  0.00     0.066 C 
HETATM   20  C4  UNL     1      27.049   5.593  48.897  1.00  0.00     0.077 C 
BRANCH  20  21
HETATM   21  C2  UNL     1      28.296   5.997  48.142  1.00  0.00     0.088 C 
HETATM   22  C1  UNL     1      28.662   7.082  47.357  1.00  0.00     0.129 C 
BRANCH  21  23
HETATM   23  O1  UNL     1      29.387   5.121  48.205  1.00  0.00    -0.384 OA
HETATM   24  C3  UNL     1      30.678   5.704  48.441  1.00  0.00     0.202 C 
ENDBRANCH  21  23
ENDBRANCH  20  21
BRANCH  20  25
HETATM   25  O2  UNL     1      26.161   6.502  49.445  1.00  0.00    -0.357 OA
HETATM   26  C19 UNL     1      25.296   7.309  48.646  1.00  0.00     0.209 C 
ENDBRANCH  20  25
ENDBRANCH   1  19
TORSDOF 6
ENDMDL
MODEL 5
REMARK VINA RESULT:      -7.9      2.829      7.915
REMARK  6 active torsions:
REMARK  status: ('A' for Active; 'I' for Inactive)
REMARK    1  A    between atoms: C2_2  and  O1_3 
REMARK    2  A    between atoms: C2_2  and  C4_5 
REMARK    3  A    between atoms: C4_5  and  O2_24 
REMARK    4  A    between atoms: C5_6  and  C6_7 
REMARK    5  A    between atoms: C8_9  and  N1_10 
REMARK    6  A    between atoms: N1_10  and  C9_11 
ROOT
HETATM    1  C6  UNL     1      25.533   1.636  52.576  1.00  0.00     0.064 A 
HETATM    2  C7  UNL     1      24.495   1.093  51.816  1.00  0.00     0.082 A 
HETATM    3  C8  UNL     1      23.287   1.797  51.778  1.00  0.00     0.132 A 
HETATM    4  N3  UNL     1      23.117   2.947  52.441  1.00  0.00    -0.224 NA
HETATM    5  C18 UNL     1      24.118   3.452  53.164  1.00  0.00     0.235 A 
HETATM    6  N4  UNL     1      25.307   2.787  53.220  1.00  0.00    -0.242 NA
ENDROOT
BRANCH   3   7
HETATM    7  N1  UNL     1      22.320   1.142  50.956  1.00  0.00    -0.325 N 
HETATM    8  H8  UNL     1      22.240   1.147  49.918  1.00  0.00     0.169 HD
BRANCH   7   9
HETATM    9  C9  UNL     1      21.464   0.458  51.866  1.00  0.00     0.140 A 
HETATM   10  N2  UNL     1      21.846  -0.118  53.021  1.00  0.00    -0.242 NA
HETATM   11  C10 UNL     1      21.021  -0.758  53.851  1.00  0.00     0.120 A 
HETATM   12  C11 UNL     1      19.697  -0.867  53.565  1.00  0.00     0.031 A 
HETATM   13  C12 UNL     1      19.271  -0.279  52.374  1.00  0.00    -0.021 A 
HETATM   14  C13 UNL     1      17.950  -0.347  52.020  1.00  0.00     0.012 A 
HETATM   15  C17 UNL     1      20.129   0.394  51.498  1.00  0.00     0.020 A 
HETATM   16  C14 UNL     1      17.460   0.224  50.843  1.00  0.00     0.001 A 
HETATM   17  C15 UNL     1      18.328   0.889  49.988  1.00  0.00     0.001 A 
HETATM   18  C16 UNL     1      19.660   0.964  50.333  1.00  0.00     0.016 A 
ENDBRANCH   7   9
ENDBRANCH   3   7
BRANCH   1  19
HETATM   19  C5  UNL     1      26.767   0.894  52.600  1.00  0.00     0.066 C 
HETATM   20  C4  UNL     1      27.057   0.178  53.658  1.00  0.00     0.077 C 
BRANCH  20  21
HETATM   21  C2  UNL     1      28.371  -0.568  53.593  1.00  0.00     0.088 C 
HETATM   22  C1  UNL     1      29.710  -0.211  53.670  1.00  0.00     0.129 C 
BRANCH  21  23
HETATM   23  O1  UNL     1      28.304  -1.956  53.418  1.00  0.00    -0.384 OA
HETATM   24  C3  UNL     1      27.292  -2.452  52.526  1.00  0.00     0.202 C 
ENDBRANCH  21  23
ENDBRANCH  20  21
BRANCH  20  25
HETATM   25  O2  UNL     1      26.204   0.125  54.746  1.00  0.00    -0.357 OA
HETATM   26  C19 UNL     1      25.187  -0.868  54.878  1.00  0.00     0.209 C 
ENDBRANCH  20  25
ENDBRANCH   1  19
TORSDOF 6
ENDMDL
MODEL 6
REMARK VINA RESULT:      -7.9      3.728      8.064
REMARK  6 active torsions:
REMARK  status: ('A' for Active; 'I' for Inactive)
REMARK    1  A    between atoms: C2_2  and  O1_3 
REMARK    2  A    between atoms: C2_2  and  C4_5 
REMARK    3  A    between atoms: C4_5  and  O2_24 
REMARK    4  A    between atoms: C5_6  and  C6_7 
REMARK    5  A    between atoms: C8_9  and  N1_10 
REMARK    6  A    between atoms: N1_10  and  C9_11 
ROOT
HETATM    1  C6  UNL     1      26.102   1.981  51.190  1.00  0.00     0.064 A 
HETATM    2  C7  UNL     1      24.796   2.330  51.543  1.00  0.00     0.082 A 
HETATM    3  C8  UNL     1      24.329   3.580  51.126  1.00  0.00     0.132 A 
HETATM    4  N3  UNL     1      25.091   4.421  50.417  1.00  0.00    -0.224 NA
HETATM    5  C18 UNL     1      26.337   4.074  50.089  1.00  0.00     0.235 A 
HETATM    6  N4  UNL     1      26.820   2.860  50.482  1.00  0.00    -0.242 NA
ENDROOT
BRANCH   3   7
HETATM    7  N1  UNL     1      22.979   3.804  51.538  1.00  0.00    -0.325 N 
HETATM    8  H8  UNL     1      22.626   4.431  52.289  1.00  0.00     0.169 HD
BRANCH   7   9
HETATM    9  C9  UNL     1      22.192   2.974  50.689  1.00  0.00     0.140 A 
HETATM   10  N2  UNL     1      22.179   3.014  49.344  1.00  0.00    -0.242 NA
HETATM   11  C10 UNL     1      21.426   2.228  48.575  1.00  0.00     0.120 A 
HETATM   12  C11 UNL     1      20.596   1.306  49.129  1.00  0.00     0.031 A 
HETATM   13  C12 UNL     1      20.588   1.240  50.523  1.00  0.00    -0.021 A 
HETATM   14  C13 UNL     1      19.778   0.333  51.153  1.00  0.00     0.012 A 
HETATM   15  C17 UNL     1      21.376   2.060  51.337  1.00  0.00     0.020 A 
HETATM   16  C14 UNL     1      19.726   0.215  52.544  1.00  0.00     0.001 A 
HETATM   17  C15 UNL     1      20.517   1.038  53.333  1.00  0.00     0.001 A 
HETATM   18  C16 UNL     1      21.336   1.955  52.711  1.00  0.00     0.016 A 
ENDBRANCH   7   9
ENDBRANCH   3   7
BRANCH   1  19
HETATM   19  C5  UNL     1      26.562   0.688  51.629  1.00  0.00     0.066 C 
HETATM   20  C4  UNL     1      27.167   0.590  52.787  1.00  0.00     0.077 C 
BRANCH  20  21
HETATM   21  C2  UNL     1      27.612  -0.805  53.167  1.00  0.00     0.088 C 
HETATM   22  C1  UNL     1      27.283  -2.088  52.755  1.00  0.00     0.129 C 
BRANCH  21  23
HETATM   23  O1  UNL     1      28.592  -0.908  54.162  1.00  0.00    -0.384 OA
HETATM   24  C3  UNL     1      29.959  -0.991  53.725  1.00  0.00     0.202 C 
ENDBRANCH  21  23
ENDBRANCH  20  21
BRANCH  20  25
HETATM   25  O2  UNL     1      27.373   1.701  53.587  1.00  0.00    -0.357 OA
HETATM   26  C19 UNL     1      28.604   2.423  53.595  1.00  0.00     0.209 C 
ENDBRANCH  20  25
ENDBRANCH   1  19
TORSDOF 6
ENDMDL
MODEL 7
REMARK VINA RESULT:      -7.8      3.261      7.435
REMARK  6 active torsions:
REMARK  status: ('A' for Active; 'I' for Inactive)
REMARK    1  A    between atoms: C2_2  and  O1_3 
REMARK    2  A    between atoms: C2_2  and  C4_5 
REMARK    3  A    between atoms: C4_5  and  O2_24 
REMARK    4  A    between atoms: C5_6  and  C6_7 
REMARK    5  A    between atoms: C8_9  and  N1_10 
REMARK    6  A    between atoms: N1_10  and  C9_11 
ROOT
HETATM    1  C6  UNL     1      24.194  -0.113  53.887  1.00  0.00     0.064 A 
HETATM    2  C7  UNL     1      23.522   0.176  52.697  1.00  0.00     0.082 A 
HETATM    3  C8  UNL     1      22.225  -0.326  52.551  1.00  0.00     0.132 A 
HETATM    4  N3  UNL     1      21.638  -1.058  53.505  1.00  0.00    -0.224 NA
HETATM    5  C18 UNL     1      22.293  -1.326  54.636  1.00  0.00     0.235 A 
HETATM    6  N4  UNL     1      23.561  -0.850  54.806  1.00  0.00    -0.242 NA
ENDROOT
BRANCH   3   7
HETATM    7  N1  UNL     1      21.649   0.054  51.301  1.00  0.00    -0.325 N 
HETATM    8  H8  UNL     1      21.465  -0.537  50.465  1.00  0.00     0.169 HD
BRANCH   7   9
HETATM    9  C9  UNL     1      21.366   1.444  51.432  1.00  0.00     0.140 A 
HETATM   10  N2  UNL     1      20.776   2.029  52.491  1.00  0.00    -0.242 NA
HETATM   11  C10 UNL     1      20.518   3.333  52.582  1.00  0.00     0.120 A 
HETATM   12  C11 UNL     1      20.851   4.178  51.572  1.00  0.00     0.031 A 
HETATM   13  C12 UNL     1      21.465   3.601  50.460  1.00  0.00    -0.021 A 
HETATM   14  C13 UNL     1      21.831   4.390  49.403  1.00  0.00     0.012 A 
HETATM   15  C17 UNL     1      21.740   2.233  50.356  1.00  0.00     0.020 A 
HETATM   16  C14 UNL     1      22.451   3.875  48.262  1.00  0.00     0.001 A 
HETATM   17  C15 UNL     1      22.716   2.515  48.180  1.00  0.00     0.001 A 
HETATM   18  C16 UNL     1      22.353   1.710  49.237  1.00  0.00     0.016 A 
ENDBRANCH   7   9
ENDBRANCH   3   7
BRANCH   1  19
HETATM   19  C5  UNL     1      25.528   0.416  54.015  1.00  0.00     0.066 C 
HETATM   20  C4  UNL     1      26.549  -0.385  53.826  1.00  0.00     0.077 C 
BRANCH  20  21
HETATM   21  C2  UNL     1      27.910   0.257  53.979  1.00  0.00     0.088 C 
HETATM   22  C1  UNL     1      29.220  -0.157  53.783  1.00  0.00     0.129 C 
BRANCH  21  23
HETATM   23  O1  UNL     1      27.937   1.588  54.414  1.00  0.00    -0.384 OA
HETATM   24  C3  UNL     1      28.681   2.520  53.612  1.00  0.00     0.202 C 
ENDBRANCH  21  23
ENDBRANCH  20  21
BRANCH  20  25
HETATM   25  O2  UNL     1      26.366  -1.720  53.511  1.00  0.00    -0.357 OA
HETATM   26  C19 UNL     1      26.802  -2.283  52.273  1.00  0.00     0.209 C 
ENDBRANCH  20  25
ENDBRANCH   1  19
TORSDOF 6
ENDMDL
MODEL 8
REMARK VINA RESULT:      -7.8      4.429      5.953
REMARK  6 active torsions:
REMARK  status: ('A' for Active; 'I' for Inactive)
REMARK    1  A    between atoms: C2_2  and  O1_3 
REMARK    2  A    between atoms: C2_2  and  C4_5 
REMARK    3  A    between atoms: C4_5  and  O2_24 
REMARK    4  A    between atoms: C5_6  and  C6_7 
REMARK    5  A    between atoms: C8_9  and  N1_10 
REMARK    6  A    between atoms: N1_10  and  C9_11 
ROOT
HETATM    1  C6  UNL     1      25.147   1.286  52.489  1.00  0.00     0.064 A 
HETATM    2  C7  UNL     1      25.282   1.828  51.209  1.00  0.00     0.082 A 
HETATM    3  C8  UNL     1      26.476   2.494  50.914  1.00  0.00     0.132 A 
HETATM    4  N3  UNL     1      27.459   2.618  51.815  1.00  0.00    -0.224 NA
HETATM    5  C18 UNL     1      27.314   2.095  53.033  1.00  0.00     0.235 A 
HETATM    6  N4  UNL     1      26.160   1.440  53.349  1.00  0.00    -0.242 NA
ENDROOT
BRANCH   3   7
HETATM    7  N1  UNL     1      26.490   2.984  49.573  1.00  0.00    -0.325 N 
HETATM    8  H8  UNL     1      26.757   2.483  48.702  1.00  0.00     0.169 HD
BRANCH   7   9
HETATM    9  C9  UNL     1      26.047   4.335  49.669  1.00  0.00     0.140 A 
HETATM   10  N2  UNL     1      24.902   4.748  50.242  1.00  0.00    -0.242 NA
HETATM   11  C10 UNL     1      24.511   6.021  50.311  1.00  0.00     0.120 A 
HETATM   12  C11 UNL     1      25.280   7.011  49.787  1.00  0.00     0.031 A 
HETATM   13  C12 UNL     1      26.475   6.614  49.187  1.00  0.00    -0.021 A 
HETATM   14  C13 UNL     1      27.303   7.557  48.639  1.00  0.00     0.012 A 
HETATM   15  C17 UNL     1      26.892   5.281  49.111  1.00  0.00     0.020 A 
HETATM   16  C14 UNL     1      28.514   7.225  48.027  1.00  0.00     0.001 A 
HETATM   17  C15 UNL     1      28.910   5.897  47.963  1.00  0.00     0.001 A 
HETATM   18  C16 UNL     1      28.086   4.938  48.510  1.00  0.00     0.016 A 
ENDBRANCH   7   9
ENDBRANCH   3   7
BRANCH   1  19
HETATM   19  C5  UNL     1      23.910   0.604  52.770  1.00  0.00     0.066 C 
HETATM   20  C4  UNL     1      22.824   1.312  52.963  1.00  0.00     0.077 C 
BRANCH  20  21
HETATM   21  C2  UNL     1      21.573   0.511  53.248  1.00  0.00     0.088 C 
HETATM   22  C1  UNL     1      20.812   0.245  54.378  1.00  0.00     0.129 C 
BRANCH  21  23
HETATM   23  O1  UNL     1      20.979  -0.145  52.162  1.00  0.00    -0.384 OA
HETATM   24  C3  UNL     1      19.681   0.318  51.753  1.00  0.00     0.202 C 
ENDBRANCH  21  23
ENDBRANCH  20  21
BRANCH  20  25
HETATM   25  O2  UNL     1      22.848   2.694  52.905  1.00  0.00    -0.357 OA
HETATM   26  C19 UNL     1      21.974   3.443  52.059  1.00  0.00     0.209 C 
ENDBRANCH  20  25
ENDBRANCH   1  19
TORSDOF 6
ENDMDL
MODEL 9
REMARK VINA RESULT:      -7.8      4.303      5.759
REMARK  6 active torsions:
REMARK  status: ('A' for Active; 'I' for Inactive)
REMARK    1  A    between atoms: C2_2  and  O1_3 
REMARK    2  A    between atoms: C2_2  and  C4_5 
REMARK    3  A    between atoms: C4_5  and  O2_24 
REMARK    4  A    between atoms: C5_6  and  C6_7 
REMARK    5  A    between atoms: C8_9  and  N1_10 
REMARK    6  A    between atoms: N1_10  and  C9_11 
ROOT
HETATM    1  C6  UNL     1      24.318   3.616  50.123  1.00  0.00     0.064 A 
HETATM    2  C7  UNL     1      24.389   2.706  51.180  1.00  0.00     0.082 A 
HETATM    3  C8  UNL     1      25.654   2.222  51.530  1.00  0.00     0.132 A 
HETATM    4  N3  UNL     1      26.762   2.606  50.885  1.00  0.00    -0.224 NA
HETATM    5  C18 UNL     1      26.677   3.476  49.877  1.00  0.00     0.235 A 
HETATM    6  N4  UNL     1      25.457   3.964  49.513  1.00  0.00    -0.242 NA
ENDROOT
BRANCH   3   7
HETATM    7  N1  UNL     1      25.586   1.315  52.631  1.00  0.00    -0.325 N 
HETATM    8  H8  UNL     1      24.756   0.814  53.009  1.00  0.00     0.169 HD
BRANCH   7   9
HETATM    9  C9  UNL     1      26.921   1.229  53.121  1.00  0.00     0.140 A 
HETATM   10  N2  UNL     1      27.646   2.251  53.610  1.00  0.00    -0.242 NA
HETATM   11  C10 UNL     1      28.898   2.141  54.055  1.00  0.00     0.120 A 
HETATM   12  C11 UNL     1      29.536   0.941  54.040  1.00  0.00     0.031 A 
HETATM   13  C12 UNL     1      28.809  -0.139  53.538  1.00  0.00    -0.021 A 
HETATM   14  C13 UNL     1      29.385  -1.381  53.493  1.00  0.00     0.012 A 
HETATM   15  C17 UNL     1      27.495  -0.032  53.069  1.00  0.00     0.020 A 
HETATM   16  C14 UNL     1      28.710  -2.502  53.005  1.00  0.00     0.001 A 
HETATM   17  C15 UNL     1      27.407  -2.374  52.546  1.00  0.00     0.001 A 
HETATM   18  C16 UNL     1      26.816  -1.130  52.586  1.00  0.00     0.016 A 
ENDBRANCH   7   9
ENDBRANCH   3   7
BRANCH   1  19
HETATM   19  C5  UNL     1      23.006   4.102  49.781  1.00  0.00     0.066 C 
HETATM   20  C4  UNL     1      22.552   5.177  50.378  1.00  0.00     0.077 C 
BRANCH  20  21
HETATM   21  C2  UNL     1      21.167   5.614  49.954  1.00  0.00     0.088 C 
HETATM   22  C1  UNL     1      19.875   5.177  50.216  1.00  0.00     0.129 C 
BRANCH  21  23
HETATM   23  O1  UNL     1      21.085   6.718  49.097  1.00  0.00    -0.384 OA
HETATM   24  C3  UNL     1      19.922   7.552  49.218  1.00  0.00     0.202 C 
ENDBRANCH  21  23
ENDBRANCH  20  21
BRANCH  20  25
HETATM   25  O2  UNL     1      23.306   5.846  51.325  1.00  0.00    -0.357 OA
HETATM   26  C19 UNL     1      23.888   7.126  51.079  1.00  0.00     0.209 C 
ENDBRANCH  20  25
ENDBRANCH   1  19
TORSDOF 6
ENDMDL
