MODEL 1
REMARK VINA RESULT:      -6.9      0.000      0.000
REMARK  6 active torsions:
REMARK  status: ('A' for Active; 'I' for Inactive)
REMARK    1  A    between atoms: O1_2  and  C2_3 
REMARK    2  A    between atoms: C9_12  and  O2_13 
REMARK    3  A    between atoms: O2_13  and  C10_14 
REMARK    4  A    between atoms: C10_14  and  C11_15 
REMARK    5  A    between atoms: C11_15  and  C12_16 
REMARK    6  A    between atoms: C12_16  and  N3_17 
ROOT
HETATM    1  C2  UNL     1      24.486   0.762  52.404  1.00  0.00     0.102 A 
HETATM    2  C3  UNL     1      25.704   1.442  52.307  1.00  0.00     0.055 A 
HETATM    3  C4  UNL     1      26.759   1.098  53.126  1.00  0.00     0.013 A 
HETATM    4  C5  UNL     1      28.005   1.714  53.102  1.00  0.00     0.132 A 
HETATM    5  N1  UNL     1      29.004   1.336  53.929  1.00  0.00    -0.253 NA
HETATM    6  C6  UNL     1      28.809   0.331  54.815  1.00  0.00     0.233 A 
HETATM    7  N2  UNL     1      27.607  -0.277  54.852  1.00  0.00    -0.241 NA
HETATM    8  C7  UNL     1      26.601   0.085  54.037  1.00  0.00     0.072 A 
HETATM    9  C8  UNL     1      25.386  -0.556  54.100  1.00  0.00     0.072 A 
HETATM   10  C9  UNL     1      24.304  -0.275  53.328  1.00  0.00     0.104 A 
ENDROOT
BRANCH  10  11
HETATM   11  O2  UNL     1      23.059  -0.779  53.241  1.00  0.00    -0.348 OA
BRANCH  11  12
HETATM   12  C10 UNL     1      22.165  -1.290  54.165  1.00  0.00     0.177 C 
BRANCH  12  13
HETATM   13  C11 UNL     1      21.142  -0.276  54.553  1.00  0.00     0.046 C 
BRANCH  13  14
HETATM   14  C12 UNL     1      19.988  -0.165  53.591  1.00  0.00     0.124 C 
BRANCH  14  15
HETATM   15  N3  UNL     1      20.161   0.853  52.586  1.00  0.00    -0.387 N 
HETATM   16  C13 UNL     1      20.335   2.260  52.713  1.00  0.00     0.114 C 
HETATM   17  P1  UNL     1      19.841   3.169  51.418  1.00  0.00     0.046 P 
HETATM   18  N4  UNL     1      19.150   2.288  50.022  1.00  0.00    -0.284 NA
HETATM   19  C14 UNL     1      19.923   2.369  48.808  1.00  0.00     0.116 C 
HETATM   20  C15 UNL     1      18.933   0.933  50.474  1.00  0.00     0.114 C 
HETATM   21  C16 UNL     1      20.189   0.403  51.180  1.00  0.00     0.137 C 
ENDBRANCH  14  15
ENDBRANCH  13  14
ENDBRANCH  12  13
ENDBRANCH  11  12
ENDBRANCH  10  11
BRANCH   1  22
HETATM   22  O1  UNL     1      23.523   1.201  51.536  1.00  0.00    -0.353 OA
HETATM   23  C1  UNL     1      23.642   2.353  50.748  1.00  0.00     0.210 C 
ENDBRANCH   1  22
TORSDOF 6
ENDMDL
MODEL 2
REMARK VINA RESULT:      -6.8      1.351      1.562
REMARK  6 active torsions:
REMARK  status: ('A' for Active; 'I' for Inactive)
REMARK    1  A    between atoms: O1_2  and  C2_3 
REMARK    2  A    between atoms: C9_12  and  O2_13 
REMARK    3  A    between atoms: O2_13  and  C10_14 
REMARK    4  A    between atoms: C10_14  and  C11_15 
REMARK    5  A    between atoms: C11_15  and  C12_16 
REMARK    6  A    between atoms: C12_16  and  N3_17 
ROOT
HETATM    1  C2  UNL     1      24.908   1.158  53.250  1.00  0.00     0.102 A 
HETATM    2  C3  UNL     1      26.183   1.732  53.234  1.00  0.00     0.055 A 
HETATM    3  C4  UNL     1      27.301   0.947  53.427  1.00  0.00     0.013 A 
HETATM    4  C5  UNL     1      28.606   1.425  53.428  1.00  0.00     0.132 A 
HETATM    5  N1  UNL     1      29.665   0.609  53.622  1.00  0.00    -0.253 NA
HETATM    6  C6  UNL     1      29.474  -0.716  53.823  1.00  0.00     0.233 A 
HETATM    7  N2  UNL     1      28.215  -1.197  53.827  1.00  0.00    -0.241 NA
HETATM    8  C7  UNL     1      27.149  -0.400  53.635  1.00  0.00     0.072 A 
HETATM    9  C8  UNL     1      25.877  -0.923  53.644  1.00  0.00     0.072 A 
HETATM   10  C9  UNL     1      24.732  -0.216  53.461  1.00  0.00     0.104 A 
ENDROOT
BRANCH  10  11
HETATM   11  O2  UNL     1      23.426  -0.539  53.434  1.00  0.00    -0.348 OA
BRANCH  11  12
HETATM   12  C10 UNL     1      22.515  -0.933  54.399  1.00  0.00     0.177 C 
BRANCH  12  13
HETATM   13  C11 UNL     1      21.322  -0.039  54.421  1.00  0.00     0.046 C 
BRANCH  13  14
HETATM   14  C12 UNL     1      20.297  -0.351  53.363  1.00  0.00     0.124 C 
BRANCH  14  15
HETATM   15  N3  UNL     1      20.390   0.487  52.194  1.00  0.00    -0.387 N 
HETATM   16  C13 UNL     1      21.181   0.351  51.018  1.00  0.00     0.114 C 
HETATM   17  P1  UNL     1      21.542   1.760  50.225  1.00  0.00     0.046 P 
HETATM   18  N4  UNL     1      20.905   3.277  50.929  1.00  0.00    -0.284 NA
HETATM   19  C14 UNL     1      19.934   3.965  50.115  1.00  0.00     0.116 C 
HETATM   20  C15 UNL     1      20.411   2.930  52.241  1.00  0.00     0.114 C 
HETATM   21  C16 UNL     1      19.522   1.681  52.160  1.00  0.00     0.137 C 
ENDBRANCH  14  15
ENDBRANCH  13  14
ENDBRANCH  12  13
ENDBRANCH  11  12
ENDBRANCH  10  11
BRANCH   1  22
HETATM   22  O1  UNL     1      23.887   2.046  53.047  1.00  0.00    -0.353 OA
HETATM   23  C1  UNL     1      24.056   3.434  52.971  1.00  0.00     0.210 C 
ENDBRANCH   1  22
TORSDOF 6
ENDMDL
MODEL 3
REMARK VINA RESULT:      -6.8      2.718      5.162
REMARK  6 active torsions:
REMARK  status: ('A' for Active; 'I' for Inactive)
REMARK    1  A    between atoms: O1_2  and  C2_3 
REMARK    2  A    between atoms: C9_12  and  O2_13 
REMARK    3  A    between atoms: O2_13  and  C10_14 
REMARK    4  A    between atoms: C10_14  and  C11_15 
REMARK    5  A    between atoms: C11_15  and  C12_16 
REMARK    6  A    between atoms: C12_16  and  N3_17 
ROOT
HETATM    1  C2  UNL     1      25.977  -0.111  53.481  1.00  0.00     0.102 A 
HETATM    2  C3  UNL     1      25.159  -0.795  54.385  1.00  0.00     0.055 A 
HETATM    3  C4  UNL     1      23.787  -0.667  54.316  1.00  0.00     0.013 A 
HETATM    4  C5  UNL     1      22.895  -1.305  55.168  1.00  0.00     0.132 A 
HETATM    5  N1  UNL     1      21.559  -1.143  55.054  1.00  0.00    -0.253 NA
HETATM    6  C6  UNL     1      21.052  -0.340  54.089  1.00  0.00     0.233 A 
HETATM    7  N2  UNL     1      21.903   0.288  53.254  1.00  0.00    -0.241 NA
HETATM    8  C7  UNL     1      23.236   0.138  53.352  1.00  0.00     0.072 A 
HETATM    9  C8  UNL     1      24.077   0.792  52.483  1.00  0.00     0.072 A 
HETATM   10  C9  UNL     1      25.434   0.715  52.489  1.00  0.00     0.104 A 
ENDROOT
BRANCH  10  11
HETATM   11  O2  UNL     1      26.407   1.265  51.739  1.00  0.00    -0.348 OA
BRANCH  11  12
HETATM   12  C10 UNL     1      26.788   2.567  51.468  1.00  0.00     0.177 C 
BRANCH  12  13
HETATM   13  C11 UNL     1      26.387   2.978  50.092  1.00  0.00     0.046 C 
BRANCH  13  14
HETATM   14  C12 UNL     1      25.803   4.364  50.007  1.00  0.00     0.124 C 
BRANCH  14  15
HETATM   15  N3  UNL     1      24.405   4.431  50.353  1.00  0.00    -0.387 N 
HETATM   16  C13 UNL     1      23.769   4.813  51.567  1.00  0.00     0.114 C 
HETATM   17  P1  UNL     1      22.271   4.156  51.835  1.00  0.00     0.046 P 
HETATM   18  N4  UNL     1      21.630   3.053  50.581  1.00  0.00    -0.284 NA
HETATM   19  C14 UNL     1      20.455   3.528  49.894  1.00  0.00     0.116 C 
HETATM   20  C15 UNL     1      22.736   2.770  49.696  1.00  0.00     0.114 C 
HETATM   21  C16 UNL     1      23.439   4.075  49.294  1.00  0.00     0.137 C 
ENDBRANCH  14  15
ENDBRANCH  13  14
ENDBRANCH  12  13
ENDBRANCH  11  12
ENDBRANCH  10  11
BRANCH   1  22
HETATM   22  O1  UNL     1      27.318  -0.325  53.659  1.00  0.00    -0.353 OA
HETATM   23  C1  UNL     1      28.063   0.204  54.720  1.00  0.00     0.210 C 
ENDBRANCH   1  22
TORSDOF 6
ENDMDL
MODEL 4
REMARK VINA RESULT:      -6.7      3.745      6.284
REMARK  6 active torsions:
REMARK  status: ('A' for Active; 'I' for Inactive)
REMARK    1  A    between atoms: O1_2  and  C2_3 
REMARK    2  A    between atoms: C9_12  and  O2_13 
REMARK    3  A    between atoms: O2_13  and  C10_14 
REMARK    4  A    between atoms: C10_14  and  C11_15 
REMARK    5  A    between atoms: C11_15  and  C12_16 
REMARK    6  A    between atoms: C12_16  and  N3_17 
ROOT
HETATM    1  C2  UNL     1      25.928  -0.126  53.170  1.00  0.00     0.102 A 
HETATM    2  C3  UNL     1      25.130  -0.837  54.071  1.00  0.00     0.055 A 
HETATM    3  C4  UNL     1      23.772  -0.603  54.133  1.00  0.00     0.013 A 
HETATM    4  C5  UNL     1      22.900  -1.258  54.993  1.00  0.00     0.132 A 
HETATM    5  N1  UNL     1      21.577  -0.988  55.010  1.00  0.00    -0.253 NA
HETATM    6  C6  UNL     1      21.063  -0.055  54.175  1.00  0.00     0.233 A 
HETATM    7  N2  UNL     1      21.894   0.592  53.334  1.00  0.00    -0.241 NA
HETATM    8  C7  UNL     1      23.214   0.335  53.303  1.00  0.00     0.072 A 
HETATM    9  C8  UNL     1      24.035   1.013  52.432  1.00  0.00     0.072 A 
HETATM   10  C9  UNL     1      25.377   0.836  52.314  1.00  0.00     0.104 A 
ENDROOT
BRANCH  10  11
HETATM   11  O2  UNL     1      26.330   1.388  51.539  1.00  0.00    -0.348 OA
BRANCH  11  12
HETATM   12  C10 UNL     1      26.662   2.690  51.210  1.00  0.00     0.177 C 
BRANCH  12  13
HETATM   13  C11 UNL     1      26.160   3.055  49.854  1.00  0.00     0.046 C 
BRANCH  13  14
HETATM   14  C12 UNL     1      26.888   4.210  49.217  1.00  0.00     0.124 C 
BRANCH  14  15
HETATM   15  N3  UNL     1      26.171   5.459  49.279  1.00  0.00    -0.387 N 
HETATM   16  C13 UNL     1      26.630   6.799  49.135  1.00  0.00     0.114 C 
HETATM   17  P1  UNL     1      25.729   7.958  49.903  1.00  0.00     0.046 P 
HETATM   18  N4  UNL     1      24.297   7.400  50.819  1.00  0.00    -0.284 NA
HETATM   19  C14 UNL     1      23.029   7.849  50.300  1.00  0.00     0.116 C 
HETATM   20  C15 UNL     1      24.409   5.962  50.896  1.00  0.00     0.114 C 
HETATM   21  C16 UNL     1      24.715   5.380  49.509  1.00  0.00     0.137 C 
ENDBRANCH  14  15
ENDBRANCH  13  14
ENDBRANCH  12  13
ENDBRANCH  11  12
ENDBRANCH  10  11
BRANCH   1  22
HETATM   22  O1  UNL     1      27.256  -0.454  53.211  1.00  0.00    -0.353 OA
HETATM   23  C1  UNL     1      28.150   0.006  54.186  1.00  0.00     0.210 C 
ENDBRANCH   1  22
TORSDOF 6
ENDMDL
MODEL 5
REMARK VINA RESULT:      -6.5      2.406      3.793
REMARK  6 active torsions:
REMARK  status: ('A' for Active; 'I' for Inactive)
REMARK    1  A    between atoms: O1_2  and  C2_3 
REMARK    2  A    between atoms: C9_12  and  O2_13 
REMARK    3  A    between atoms: O2_13  and  C10_14 
REMARK    4  A    between atoms: C10_14  and  C11_15 
REMARK    5  A    between atoms: C11_15  and  C12_16 
REMARK    6  A    between atoms: C12_16  and  N3_17 
ROOT
HETATM    1  C2  UNL     1      24.128  -0.238  53.511  1.00  0.00     0.102 A 
HETATM    2  C3  UNL     1      25.287  -0.400  54.277  1.00  0.00     0.055 A 
HETATM    3  C4  UNL     1      26.376   0.421  54.071  1.00  0.00     0.013 A 
HETATM    4  C5  UNL     1      27.568   0.337  54.781  1.00  0.00     0.132 A 
HETATM    5  N1  UNL     1      28.604   1.169  54.537  1.00  0.00    -0.253 NA
HETATM    6  C6  UNL     1      28.501   2.118  53.578  1.00  0.00     0.233 A 
HETATM    7  N2  UNL     1      27.353   2.213  52.878  1.00  0.00    -0.241 NA
HETATM    8  C7  UNL     1      26.312   1.395  53.108  1.00  0.00     0.072 A 
HETATM    9  C8  UNL     1      25.153   1.518  52.377  1.00  0.00     0.072 A 
HETATM   10  C9  UNL     1      24.042   0.750  52.523  1.00  0.00     0.104 A 
ENDROOT
BRANCH  10  11
HETATM   11  O2  UNL     1      22.839   0.718  51.919  1.00  0.00    -0.348 OA
BRANCH  11  12
HETATM   12  C10 UNL     1      22.288   1.394  50.845  1.00  0.00     0.177 C 
BRANCH  12  13
HETATM   13  C11 UNL     1      20.974   2.003  51.200  1.00  0.00     0.046 C 
BRANCH  13  14
HETATM   14  C12 UNL     1      21.055   3.073  52.258  1.00  0.00     0.124 C 
BRANCH  14  15
HETATM   15  N3  UNL     1      21.548   4.338  51.773  1.00  0.00    -0.387 N 
HETATM   16  C13 UNL     1      20.975   5.265  50.857  1.00  0.00     0.114 C 
HETATM   17  P1  UNL     1      22.048   6.227  50.038  1.00  0.00     0.046 P 
HETATM   18  N4  UNL     1      23.786   5.992  50.392  1.00  0.00    -0.284 NA
HETATM   19  C14 UNL     1      24.437   7.116  51.020  1.00  0.00     0.116 C 
HETATM   20  C15 UNL     1      23.874   4.774  51.164  1.00  0.00     0.114 C 
HETATM   21  C16 UNL     1      22.847   4.795  52.305  1.00  0.00     0.137 C 
ENDBRANCH  14  15
ENDBRANCH  13  14
ENDBRANCH  12  13
ENDBRANCH  11  12
ENDBRANCH  10  11
BRANCH   1  22
HETATM   22  O1  UNL     1      23.123  -1.117  53.816  1.00  0.00    -0.353 OA
HETATM   23  C1  UNL     1      22.260  -0.974  54.909  1.00  0.00     0.210 C 
ENDBRANCH   1  22
TORSDOF 6
ENDMDL
MODEL 6
REMARK VINA RESULT:      -6.4      2.408      3.318
REMARK  6 active torsions:
REMARK  status: ('A' for Active; 'I' for Inactive)
REMARK    1  A    between atoms: O1_2  and  C2_3 
REMARK    2  A    between atoms: C9_12  and  O2_13 
REMARK    3  A    between atoms: O2_13  and  C10_14 
REMARK    4  A    between atoms: C10_14  and  C11_15 
REMARK    5  A    between atoms: C11_15  and  C12_16 
REMARK    6  A    between atoms: C12_16  and  N3_17 
ROOT
HETATM    1  C2  UNL     1      25.928  -0.093  52.990  1.00  0.00     0.102 A 
HETATM    2  C3  UNL     1      26.611   0.762  52.120  1.00  0.00     0.055 A 
HETATM    3  C4  UNL     1      25.997   1.900  51.640  1.00  0.00     0.013 A 
HETATM    4  C5  UNL     1      26.593   2.809  50.774  1.00  0.00     0.132 A 
HETATM    5  N1  UNL     1      25.943   3.908  50.335  1.00  0.00    -0.253 NA
HETATM    6  C6  UNL     1      24.673   4.153  50.736  1.00  0.00     0.233 A 
HETATM    7  N2  UNL     1      24.079   3.282  51.575  1.00  0.00    -0.241 NA
HETATM    8  C7  UNL     1      24.710   2.182  52.023  1.00  0.00     0.072 A 
HETATM    9  C8  UNL     1      24.075   1.313  52.879  1.00  0.00     0.072 A 
HETATM   10  C9  UNL     1      24.614   0.177  53.393  1.00  0.00     0.104 A 
ENDROOT
BRANCH  10  11
HETATM   11  O2  UNL     1      24.164  -0.779  54.227  1.00  0.00    -0.348 OA
BRANCH  11  12
HETATM   12  C10 UNL     1      22.936  -1.046  54.806  1.00  0.00     0.177 C 
BRANCH  12  13
HETATM   13  C11 UNL     1      21.952  -1.534  53.797  1.00  0.00     0.046 C 
BRANCH  13  14
HETATM   14  C12 UNL     1      20.513  -1.395  54.221  1.00  0.00     0.124 C 
BRANCH  14  15
HETATM   15  N3  UNL     1      19.716  -0.590  53.330  1.00  0.00    -0.387 N 
HETATM   16  C13 UNL     1      18.382  -0.768  52.865  1.00  0.00     0.114 C 
HETATM   17  P1  UNL     1      18.031  -0.077  51.400  1.00  0.00     0.046 P 
HETATM   18  N4  UNL     1      19.353   0.804  50.577  1.00  0.00    -0.284 NA
HETATM   19  C14 UNL     1      19.143   2.224  50.435  1.00  0.00     0.116 C 
HETATM   20  C15 UNL     1      20.561   0.473  51.298  1.00  0.00     0.114 C 
HETATM   21  C16 UNL     1      20.340   0.642  52.808  1.00  0.00     0.137 C 
ENDBRANCH  14  15
ENDBRANCH  13  14
ENDBRANCH  12  13
ENDBRANCH  11  12
ENDBRANCH  10  11
BRANCH   1  22
HETATM   22  O1  UNL     1      26.651  -1.185  53.391  1.00  0.00    -0.353 OA
HETATM   23  C1  UNL     1      27.015  -2.240  52.545  1.00  0.00     0.210 C 
ENDBRANCH   1  22
TORSDOF 6
ENDMDL
MODEL 7
REMARK VINA RESULT:      -6.4      3.299      4.341
REMARK  6 active torsions:
REMARK  status: ('A' for Active; 'I' for Inactive)
REMARK    1  A    between atoms: O1_2  and  C2_3 
REMARK    2  A    between atoms: C9_12  and  O2_13 
REMARK    3  A    between atoms: O2_13  and  C10_14 
REMARK    4  A    between atoms: C10_14  and  C11_15 
REMARK    5  A    between atoms: C11_15  and  C12_16 
REMARK    6  A    between atoms: C12_16  and  N3_17 
ROOT
HETATM    1  C2  UNL     1      24.467   0.217  53.523  1.00  0.00     0.102 A 
HETATM    2  C3  UNL     1      25.659  -0.378  53.947  1.00  0.00     0.055 A 
HETATM    3  C4  UNL     1      26.811   0.373  54.053  1.00  0.00     0.013 A 
HETATM    4  C5  UNL     1      28.040  -0.127  54.465  1.00  0.00     0.132 A 
HETATM    5  N1  UNL     1      29.137   0.656  54.550  1.00  0.00    -0.253 NA
HETATM    6  C6  UNL     1      29.062   1.969  54.229  1.00  0.00     0.233 A 
HETATM    7  N2  UNL     1      27.878   2.471  53.826  1.00  0.00    -0.241 NA
HETATM    8  C7  UNL     1      26.775   1.707  53.736  1.00  0.00     0.072 A 
HETATM    9  C8  UNL     1      25.582   2.251  53.322  1.00  0.00     0.072 A 
HETATM   10  C9  UNL     1      24.409   1.577  53.195  1.00  0.00     0.104 A 
ENDROOT
BRANCH  10  11
HETATM   11  O2  UNL     1      23.165   1.925  52.816  1.00  0.00    -0.348 OA
BRANCH  11  12
HETATM   12  C10 UNL     1      22.619   2.391  51.633  1.00  0.00     0.177 C 
BRANCH  12  13
HETATM   13  C11 UNL     1      21.660   3.507  51.878  1.00  0.00     0.046 C 
BRANCH  13  14
HETATM   14  C12 UNL     1      22.295   4.756  52.432  1.00  0.00     0.124 C 
BRANCH  14  15
HETATM   15  N3  UNL     1      22.764   5.671  51.421  1.00  0.00    -0.387 N 
HETATM   16  C13 UNL     1      24.035   6.289  51.249  1.00  0.00     0.114 C 
HETATM   17  P1  UNL     1      24.031   7.732  50.435  1.00  0.00     0.046 P 
HETATM   18  N4  UNL     1      22.447   8.344  49.870  1.00  0.00    -0.284 NA
HETATM   19  C14 UNL     1      22.295   8.411  48.438  1.00  0.00     0.116 C 
HETATM   20  C15 UNL     1      21.450   7.522  50.515  1.00  0.00     0.114 C 
HETATM   21  C16 UNL     1      21.807   6.036  50.358  1.00  0.00     0.137 C 
ENDBRANCH  14  15
ENDBRANCH  13  14
ENDBRANCH  12  13
ENDBRANCH  11  12
ENDBRANCH  10  11
BRANCH   1  22
HETATM   22  O1  UNL     1      23.400  -0.639  53.462  1.00  0.00    -0.353 OA
HETATM   23  C1  UNL     1      22.652  -1.043  54.575  1.00  0.00     0.210 C 
ENDBRANCH   1  22
TORSDOF 6
ENDMDL
MODEL 8
REMARK VINA RESULT:      -6.4      2.876      4.429
REMARK  6 active torsions:
REMARK  status: ('A' for Active; 'I' for Inactive)
REMARK    1  A    between atoms: O1_2  and  C2_3 
REMARK    2  A    between atoms: C9_12  and  O2_13 
REMARK    3  A    between atoms: O2_13  and  C10_14 
REMARK    4  A    between atoms: C10_14  and  C11_15 
REMARK    5  A    between atoms: C11_15  and  C12_16 
REMARK    6  A    between atoms: C12_16  and  N3_17 
ROOT
HETATM    1  C2  UNL     1      24.142   0.076  53.557  1.00  0.00     0.102 A 
HETATM    2  C3  UNL     1      25.307  -0.261  54.253  1.00  0.00     0.055 A 
HETATM    3  C4  UNL     1      26.447   0.502  54.110  1.00  0.00     0.013 A 
HETATM    4  C5  UNL     1      27.649   0.248  54.758  1.00  0.00     0.132 A 
HETATM    5  N1  UNL     1      28.736   1.030  54.580  1.00  0.00    -0.253 NA
HETATM    6  C6  UNL     1      28.676   2.098  53.751  1.00  0.00     0.233 A 
HETATM    7  N2  UNL     1      27.518   2.359  53.113  1.00  0.00    -0.241 NA
HETATM    8  C7  UNL     1      26.426   1.592  53.278  1.00  0.00     0.072 A 
HETATM    9  C8  UNL     1      25.259   1.886  52.612  1.00  0.00     0.072 A 
HETATM   10  C9  UNL     1      24.100   1.185  52.702  1.00  0.00     0.104 A 
ENDROOT
BRANCH  10  11
HETATM   11  O2  UNL     1      22.881   1.313  52.145  1.00  0.00    -0.348 OA
BRANCH  11  12
HETATM   12  C10 UNL     1      22.373   1.060  50.883  1.00  0.00     0.177 C 
BRANCH  12  13
HETATM   13  C11 UNL     1      22.655   2.184  49.946  1.00  0.00     0.046 C 
BRANCH  13  14
HETATM   14  C12 UNL     1      22.163   3.525  50.425  1.00  0.00     0.124 C 
BRANCH  14  15
HETATM   15  N3  UNL     1      23.200   4.520  50.545  1.00  0.00    -0.387 N 
HETATM   16  C13 UNL     1      23.348   5.598  51.462  1.00  0.00     0.114 C 
HETATM   17  P1  UNL     1      24.240   6.886  50.924  1.00  0.00     0.046 P 
HETATM   18  N4  UNL     1      24.908   6.779  49.267  1.00  0.00    -0.284 NA
HETATM   19  C14 UNL     1      26.347   6.733  49.193  1.00  0.00     0.116 C 
HETATM   20  C15 UNL     1      24.265   5.641  48.652  1.00  0.00     0.114 C 
HETATM   21  C16 UNL     1      24.324   4.428  49.591  1.00  0.00     0.137 C 
ENDBRANCH  14  15
ENDBRANCH  13  14
ENDBRANCH  12  13
ENDBRANCH  11  12
ENDBRANCH  10  11
BRANCH   1  22
HETATM   22  O1  UNL     1      23.084  -0.763  53.788  1.00  0.00    -0.353 OA
HETATM   23  C1  UNL     1      22.738  -1.261  55.050  1.00  0.00     0.210 C 
ENDBRANCH   1  22
TORSDOF 6
ENDMDL
MODEL 9
REMARK VINA RESULT:      -6.1      1.511      3.035
REMARK  6 active torsions:
REMARK  status: ('A' for Active; 'I' for Inactive)
REMARK    1  A    between atoms: O1_2  and  C2_3 
REMARK    2  A    between atoms: C9_12  and  O2_13 
REMARK    3  A    between atoms: O2_13  and  C10_14 
REMARK    4  A    between atoms: C10_14  and  C11_15 
REMARK    5  A    between atoms: C11_15  and  C12_16 
REMARK    6  A    between atoms: C12_16  and  N3_17 
ROOT
HETATM    1  C2  UNL     1      24.482   0.327  52.963  1.00  0.00     0.102 A 
HETATM    2  C3  UNL     1      25.453  -0.006  53.912  1.00  0.00     0.055 A 
HETATM    3  C4  UNL     1      26.668   0.648  53.923  1.00  0.00     0.013 A 
HETATM    4  C5  UNL     1      27.692   0.388  54.825  1.00  0.00     0.132 A 
HETATM    5  N1  UNL     1      28.863   1.061  54.789  1.00  0.00    -0.253 NA
HETATM    6  C6  UNL     1      29.067   2.020  53.856  1.00  0.00     0.233 A 
HETATM    7  N2  UNL     1      28.085   2.285  52.972  1.00  0.00    -0.241 NA
HETATM    8  C7  UNL     1      26.913   1.626  52.993  1.00  0.00     0.072 A 
HETATM    9  C8  UNL     1      25.930   1.920  52.077  1.00  0.00     0.072 A 
HETATM   10  C9  UNL     1      24.713   1.322  52.005  1.00  0.00     0.104 A 
ENDROOT
BRANCH  10  11
HETATM   11  O2  UNL     1      23.643   1.469  51.202  1.00  0.00    -0.348 OA
BRANCH  11  12
HETATM   12  C10 UNL     1      23.240   2.448  50.311  1.00  0.00     0.177 C 
BRANCH  12  13
HETATM   13  C11 UNL     1      22.049   2.014  49.525  1.00  0.00     0.046 C 
BRANCH  13  14
HETATM   14  C12 UNL     1      21.427   0.729  50.006  1.00  0.00     0.124 C 
BRANCH  14  15
HETATM   15  N3  UNL     1      20.165   0.907  50.680  1.00  0.00    -0.387 N 
HETATM   16  C13 UNL     1      19.488   0.072  51.613  1.00  0.00     0.114 C 
HETATM   17  P1  UNL     1      17.840   0.234  51.662  1.00  0.00     0.046 P 
HETATM   18  N4  UNL     1      17.105   1.426  50.547  1.00  0.00    -0.284 NA
HETATM   19  C14 UNL     1      16.467   2.548  51.190  1.00  0.00     0.116 C 
HETATM   20  C15 UNL     1      18.152   1.809  49.629  1.00  0.00     0.114 C 
HETATM   21  C16 UNL     1      19.432   2.158  50.401  1.00  0.00     0.137 C 
ENDBRANCH  14  15
ENDBRANCH  13  14
ENDBRANCH  12  13
ENDBRANCH  11  12
ENDBRANCH  10  11
BRANCH   1  22
HETATM   22  O1  UNL     1      23.325  -0.397  53.063  1.00  0.00    -0.353 OA
HETATM   23  C1  UNL     1      22.810  -0.894  54.266  1.00  0.00     0.210 C 
ENDBRANCH   1  22
TORSDOF 6
ENDMDL
