MODEL 1
REMARK VINA RESULT:      -9.2      0.000      0.000
REMARK  6 active torsions:
REMARK  status: ('A' for Active; 'I' for Inactive)
REMARK    1  A    between atoms: C2_2  and  C3_3 
REMARK    2  A    between atoms: C7_9  and  N3_10 
REMARK    3  A    between atoms: N3_10  and  C8_11 
REMARK    4  A    between atoms: C16_20  and  O1_21 
REMARK    5  A    between atoms: O1_21  and  C17_22 
REMARK    6  A    between atoms: C17_22  and  C18_23 
ROOT
HETATM    1  C3  UNL     1      22.727   0.503  53.149  1.00  0.00    -0.023 A 
HETATM    2  C4  UNL     1      21.602   1.183  52.732  1.00  0.00     0.042 A 
HETATM    3  C5  UNL     1      21.720   2.475  52.273  1.00  0.00     0.072 A 
HETATM    4  N1  UNL     1      20.580   3.106  51.871  1.00  0.00    -0.241 NA
HETATM    5  C6  UNL     1      20.636   4.372  51.413  1.00  0.00     0.236 A 
HETATM    6  N2  UNL     1      21.804   5.007  51.354  1.00  0.00    -0.224 NA
HETATM    7  C7  UNL     1      22.948   4.463  51.724  1.00  0.00     0.142 A 
HETATM    8  C14 UNL     1      22.903   3.175  52.192  1.00  0.00     0.041 A 
HETATM    9  C15 UNL     1      23.981   2.439  52.624  1.00  0.00     0.055 A 
HETATM   10  C16 UNL     1      23.946   1.145  53.095  1.00  0.00     0.076 A 
ENDROOT
BRANCH   7  11
HETATM   11  N3  UNL     1      24.194   5.114  51.671  1.00  0.00    -0.340 N 
HETATM   12  H8  UNL     1      24.543   5.703  52.444  1.00  0.00     0.167 HD
BRANCH  11  13
HETATM   13  C8  UNL     1      25.168   5.116  50.648  1.00  0.00     0.035 A 
HETATM   14  C9  UNL     1      25.895   4.007  50.211  1.00  0.00     0.029 A 
HETATM   15  C10 UNL     1      26.832   4.027  49.227  1.00  0.00     0.004 A 
HETATM   16  C11 UNL     1      27.130   5.198  48.577  1.00  0.00     0.024 A 
HETATM   17  C12 UNL     1      26.446   6.329  48.964  1.00  0.00     0.036 A 
HETATM   18 CL1  UNL     1      26.864   7.796  48.106  1.00  0.00    -0.084 Cl
HETATM   19  C13 UNL     1      25.499   6.255  49.973  1.00  0.00     0.053 A 
ENDBRANCH  11  13
ENDBRANCH   7  11
BRANCH  10  20
HETATM   20  O1  UNL     1      25.079   0.465  53.515  1.00  0.00    -0.350 OA
BRANCH  20  21
HETATM   21  C17 UNL     1      25.913  -0.115  52.560  1.00  0.00     0.180 C 
BRANCH  21  22
HETATM   22  C18 UNL     1      27.369   0.328  52.727  1.00  0.00     0.014 C 
HETATM   23  C19 UNL     1      27.883  -0.288  53.981  1.00  0.00     0.033 C 
HETATM   24  C20 UNL     1      29.103   0.434  54.522  1.00  0.00     0.168 C 
HETATM   25  O2  UNL     1      28.652   1.736  54.794  1.00  0.00    -0.391 OA
HETATM   26  C21 UNL     1      28.530   2.382  53.589  1.00  0.00     0.168 C 
HETATM   27  C22 UNL     1      27.533   1.803  52.637  1.00  0.00     0.033 C 
ENDBRANCH  21  22
ENDBRANCH  20  21
ENDBRANCH  10  20
BRANCH   1  28
HETATM   28  C2  UNL     1      22.662  -0.889  53.652  1.00  0.00     0.037 C 
HETATM   29  C1  UNL     1      21.494  -1.082  54.609  1.00  0.00     0.010 C 
ENDBRANCH   1  28
TORSDOF 6
ENDMDL
MODEL 2
REMARK VINA RESULT:      -8.6      3.542      6.140
REMARK  6 active torsions:
REMARK  status: ('A' for Active; 'I' for Inactive)
REMARK    1  A    between atoms: C2_2  and  C3_3 
REMARK    2  A    between atoms: C7_9  and  N3_10 
REMARK    3  A    between atoms: N3_10  and  C8_11 
REMARK    4  A    between atoms: C16_20  and  O1_21 
REMARK    5  A    between atoms: O1_21  and  C17_22 
REMARK    6  A    between atoms: C17_22  and  C18_23 
ROOT
HETATM    1  C3  UNL     1      20.018   0.090  52.142  1.00  0.00    -0.023 A 
HETATM    2  C4  UNL     1      20.258  -0.524  53.353  1.00  0.00     0.042 A 
HETATM    3  C5  UNL     1      21.553  -0.667  53.797  1.00  0.00     0.072 A 
HETATM    4  N1  UNL     1      21.742  -1.280  55.001  1.00  0.00    -0.241 NA
HETATM    5  C6  UNL     1      22.988  -1.447  55.484  1.00  0.00     0.236 A 
HETATM    6  N2  UNL     1      24.035  -1.015  54.787  1.00  0.00    -0.224 NA
HETATM    7  C7  UNL     1      23.933  -0.413  53.618  1.00  0.00     0.142 A 
HETATM    8  C14 UNL     1      22.669  -0.237  53.115  1.00  0.00     0.041 A 
HETATM    9  C15 UNL     1      22.357   0.364  51.919  1.00  0.00     0.055 A 
HETATM   10  C16 UNL     1      21.091   0.544  51.406  1.00  0.00     0.076 A 
ENDROOT
BRANCH   7  11
HETATM   11  N3  UNL     1      25.025   0.053  52.862  1.00  0.00    -0.340 N 
HETATM   12  H8  UNL     1      24.905   0.587  51.987  1.00  0.00     0.167 HD
BRANCH  11  13
HETATM   13  C8  UNL     1      26.411  -0.087  53.099  1.00  0.00     0.035 A 
HETATM   14  C9  UNL     1      27.162  -1.246  52.895  1.00  0.00     0.029 A 
HETATM   15  C10 UNL     1      28.495  -1.364  53.131  1.00  0.00     0.004 A 
HETATM   16  C11 UNL     1      29.211  -0.295  53.608  1.00  0.00     0.024 A 
HETATM   17  C12 UNL     1      28.527   0.879  53.830  1.00  0.00     0.036 A 
HETATM   18 CL1  UNL     1      29.486   2.210  54.439  1.00  0.00    -0.084 Cl
HETATM   19  C13 UNL     1      27.167   0.948  53.572  1.00  0.00     0.053 A 
ENDBRANCH  11  13
ENDBRANCH   7  11
BRANCH  10  20
HETATM   20  O1  UNL     1      20.852   1.161  50.187  1.00  0.00    -0.350 OA
BRANCH  20  21
HETATM   21  C17 UNL     1      21.899   1.285  49.275  1.00  0.00     0.180 C 
BRANCH  21  22
HETATM   22  C18 UNL     1      22.197   2.749  48.942  1.00  0.00     0.014 C 
HETATM   23  C19 UNL     1      23.606   3.022  49.339  1.00  0.00     0.033 C 
HETATM   24  C20 UNL     1      23.878   4.502  49.527  1.00  0.00     0.168 C 
HETATM   25  O2  UNL     1      23.017   4.890  50.567  1.00  0.00    -0.391 OA
HETATM   26  C21 UNL     1      21.752   4.964  50.039  1.00  0.00     0.168 C 
HETATM   27  C22 UNL     1      21.191   3.683  49.512  1.00  0.00     0.033 C 
ENDBRANCH  21  22
ENDBRANCH  20  21
ENDBRANCH  10  20
BRANCH   1  28
HETATM   28  C2  UNL     1      18.646   0.271  51.613  1.00  0.00     0.037 C 
HETATM   29  C1  UNL     1      17.678  -0.738  52.214  1.00  0.00     0.010 C 
ENDBRANCH   1  28
TORSDOF 6
ENDMDL
MODEL 3
REMARK VINA RESULT:      -8.5      4.360      7.260
REMARK  6 active torsions:
REMARK  status: ('A' for Active; 'I' for Inactive)
REMARK    1  A    between atoms: C2_2  and  C3_3 
REMARK    2  A    between atoms: C7_9  and  N3_10 
REMARK    3  A    between atoms: N3_10  and  C8_11 
REMARK    4  A    between atoms: C16_20  and  O1_21 
REMARK    5  A    between atoms: O1_21  and  C17_22 
REMARK    6  A    between atoms: C17_22  and  C18_23 
ROOT
HETATM    1  C3  UNL     1      19.734  -0.279  52.401  1.00  0.00    -0.023 A 
HETATM    2  C4  UNL     1      20.140  -0.876  53.575  1.00  0.00     0.042 A 
HETATM    3  C5  UNL     1      21.471  -0.854  53.924  1.00  0.00     0.072 A 
HETATM    4  N1  UNL     1      21.824  -1.457  55.095  1.00  0.00    -0.241 NA
HETATM    5  C6  UNL     1      23.113  -1.467  55.485  1.00  0.00     0.236 A 
HETATM    6  N2  UNL     1      24.042  -0.888  54.729  1.00  0.00    -0.224 NA
HETATM    7  C7  UNL     1      23.778  -0.285  53.586  1.00  0.00     0.142 A 
HETATM    8  C14 UNL     1      22.469  -0.269  53.178  1.00  0.00     0.041 A 
HETATM    9  C15 UNL     1      21.995   0.306  52.023  1.00  0.00     0.055 A 
HETATM   10  C16 UNL     1      20.683   0.327  51.604  1.00  0.00     0.076 A 
ENDROOT
BRANCH   7  11
HETATM   11  N3  UNL     1      24.742   0.333  52.769  1.00  0.00    -0.340 N 
HETATM   12  H8  UNL     1      24.530   0.661  51.813  1.00  0.00     0.167 HD
BRANCH  11  13
HETATM   13  C8  UNL     1      26.098   0.625  53.037  1.00  0.00     0.035 A 
HETATM   14  C9  UNL     1      26.630   1.894  53.271  1.00  0.00     0.029 A 
HETATM   15  C10 UNL     1      27.940   2.158  53.523  1.00  0.00     0.004 A 
HETATM   16  C11 UNL     1      28.856   1.138  53.563  1.00  0.00     0.024 A 
HETATM   17  C12 UNL     1      28.393  -0.139  53.340  1.00  0.00     0.036 A 
HETATM   18 CL1  UNL     1      29.603  -1.403  53.400  1.00  0.00    -0.084 Cl
HETATM   19  C13 UNL     1      27.048  -0.355  53.087  1.00  0.00     0.053 A 
ENDBRANCH  11  13
ENDBRANCH   7  11
BRANCH  10  20
HETATM   20  O1  UNL     1      20.278   0.927  50.422  1.00  0.00    -0.350 OA
BRANCH  20  21
HETATM   21  C17 UNL     1      20.516   2.289  50.238  1.00  0.00     0.180 C 
BRANCH  21  22
HETATM   22  C18 UNL     1      19.216   3.080  50.076  1.00  0.00     0.014 C 
HETATM   23  C19 UNL     1      18.792   3.528  51.431  1.00  0.00     0.033 C 
HETATM   24  C20 UNL     1      17.317   3.879  51.490  1.00  0.00     0.168 C 
HETATM   25  O2  UNL     1      16.656   2.683  51.167  1.00  0.00    -0.391 OA
HETATM   26  C21 UNL     1      16.786   2.501  49.812  1.00  0.00     0.168 C 
HETATM   27  C22 UNL     1      18.183   2.335  49.309  1.00  0.00     0.033 C 
ENDBRANCH  21  22
ENDBRANCH  20  21
ENDBRANCH  10  20
BRANCH   1  28
HETATM   28  C2  UNL     1      18.315  -0.271  51.974  1.00  0.00     0.037 C 
HETATM   29  C1  UNL     1      17.441  -1.073  52.927  1.00  0.00     0.010 C 
ENDBRANCH   1  28
TORSDOF 6
ENDMDL
MODEL 4
REMARK VINA RESULT:      -8.5      3.178      5.947
REMARK  6 active torsions:
REMARK  status: ('A' for Active; 'I' for Inactive)
REMARK    1  A    between atoms: C2_2  and  C3_3 
REMARK    2  A    between atoms: C7_9  and  N3_10 
REMARK    3  A    between atoms: N3_10  and  C8_11 
REMARK    4  A    between atoms: C16_20  and  O1_21 
REMARK    5  A    between atoms: O1_21  and  C17_22 
REMARK    6  A    between atoms: C17_22  and  C18_23 
ROOT
HETATM    1  C3  UNL     1      25.202   3.348  49.827  1.00  0.00    -0.023 A 
HETATM    2  C4  UNL     1      24.122   3.468  48.978  1.00  0.00     0.042 A 
HETATM    3  C5  UNL     1      22.854   3.226  49.454  1.00  0.00     0.072 A 
HETATM    4  N1  UNL     1      21.817   3.357  48.578  1.00  0.00    -0.241 NA
HETATM    5  C6  UNL     1      20.555   3.131  48.989  1.00  0.00     0.236 A 
HETATM    6  N2  UNL     1      20.318   2.780  50.250  1.00  0.00    -0.224 NA
HETATM    7  C7  UNL     1      21.266   2.634  51.155  1.00  0.00     0.142 A 
HETATM    8  C14 UNL     1      22.557   2.861  50.748  1.00  0.00     0.041 A 
HETATM    9  C15 UNL     1      23.677   2.760  51.538  1.00  0.00     0.055 A 
HETATM   10  C16 UNL     1      24.976   2.986  51.139  1.00  0.00     0.076 A 
ENDROOT
BRANCH   7  11
HETATM   11  N3  UNL     1      21.042   2.264  52.493  1.00  0.00    -0.340 N 
HETATM   12  H8  UNL     1      20.846   2.956  53.234  1.00  0.00     0.167 HD
BRANCH  11  13
HETATM   13  C8  UNL     1      21.032   0.981  53.085  1.00  0.00     0.035 A 
HETATM   14  C9  UNL     1      22.115   0.362  53.712  1.00  0.00     0.029 A 
HETATM   15  C10 UNL     1      22.090  -0.876  54.274  1.00  0.00     0.004 A 
HETATM   16  C11 UNL     1      20.938  -1.622  54.253  1.00  0.00     0.024 A 
HETATM   17  C12 UNL     1      19.834  -1.066  53.648  1.00  0.00     0.036 A 
HETATM   18 CL1  UNL     1      18.392  -2.059  53.648  1.00  0.00    -0.084 Cl
HETATM   19  C13 UNL     1      19.911   0.200  53.090  1.00  0.00     0.053 A 
ENDBRANCH  11  13
ENDBRANCH   7  11
BRANCH  10  20
HETATM   20  O1  UNL     1      26.060   2.864  51.994  1.00  0.00    -0.350 OA
BRANCH  20  21
HETATM   21  C17 UNL     1      26.090   1.805  52.901  1.00  0.00     0.180 C 
BRANCH  21  22
HETATM   22  C18 UNL     1      27.175   0.783  52.552  1.00  0.00     0.014 C 
HETATM   23  C19 UNL     1      26.563  -0.571  52.648  1.00  0.00     0.033 C 
HETATM   24  C20 UNL     1      27.600  -1.665  52.813  1.00  0.00     0.168 C 
HETATM   25  O2  UNL     1      28.247  -1.359  54.022  1.00  0.00    -0.391 OA
HETATM   26  C21 UNL     1      29.082  -0.297  53.777  1.00  0.00     0.168 C 
HETATM   27  C22 UNL     1      28.417   0.970  53.347  1.00  0.00     0.033 C 
ENDBRANCH  21  22
ENDBRANCH  20  21
ENDBRANCH  10  20
BRANCH   1  28
HETATM   28  C2  UNL     1      26.590   3.596  49.372  1.00  0.00     0.037 C 
HETATM   29  C1  UNL     1      26.799   5.055  48.989  1.00  0.00     0.010 C 
ENDBRANCH   1  28
TORSDOF 6
ENDMDL
MODEL 5
REMARK VINA RESULT:      -8.4      2.905      5.808
REMARK  6 active torsions:
REMARK  status: ('A' for Active; 'I' for Inactive)
REMARK    1  A    between atoms: C2_2  and  C3_3 
REMARK    2  A    between atoms: C7_9  and  N3_10 
REMARK    3  A    between atoms: N3_10  and  C8_11 
REMARK    4  A    between atoms: C16_20  and  O1_21 
REMARK    5  A    between atoms: O1_21  and  C17_22 
REMARK    6  A    between atoms: C17_22  and  C18_23 
ROOT
HETATM    1  C3  UNL     1      24.874   3.225  49.845  1.00  0.00    -0.023 A 
HETATM    2  C4  UNL     1      23.838   3.228  48.934  1.00  0.00     0.042 A 
HETATM    3  C5  UNL     1      22.562   2.930  49.354  1.00  0.00     0.072 A 
HETATM    4  N1  UNL     1      21.572   2.947  48.417  1.00  0.00    -0.241 NA
HETATM    5  C6  UNL     1      20.304   2.662  48.772  1.00  0.00     0.236 A 
HETATM    6  N2  UNL     1      20.018   2.363  50.036  1.00  0.00    -0.224 NA
HETATM    7  C7  UNL     1      20.920   2.327  50.998  1.00  0.00     0.142 A 
HETATM    8  C14 UNL     1      22.215   2.615  50.649  1.00  0.00     0.041 A 
HETATM    9  C15 UNL     1      23.293   2.630  51.501  1.00  0.00     0.055 A 
HETATM   10  C16 UNL     1      24.596   2.918  51.160  1.00  0.00     0.076 A 
ENDROOT
BRANCH   7  11
HETATM   11  N3  UNL     1      20.643   2.014  52.341  1.00  0.00    -0.340 N 
HETATM   12  H8  UNL     1      20.383   2.734  53.035  1.00  0.00     0.167 HD
BRANCH  11  13
HETATM   13  C8  UNL     1      20.654   0.763  52.997  1.00  0.00     0.035 A 
HETATM   14  C9  UNL     1      19.633  -0.189  52.957  1.00  0.00     0.029 A 
HETATM   15  C10 UNL     1      19.658  -1.388  53.597  1.00  0.00     0.004 A 
HETATM   16  C11 UNL     1      20.744  -1.745  54.356  1.00  0.00     0.024 A 
HETATM   17  C12 UNL     1      21.785  -0.848  54.435  1.00  0.00     0.036 A 
HETATM   18 CL1  UNL     1      23.144  -1.351  55.417  1.00  0.00    -0.084 Cl
HETATM   19  C13 UNL     1      21.711   0.362  53.763  1.00  0.00     0.053 A 
ENDBRANCH  11  13
ENDBRANCH   7  11
BRANCH  10  20
HETATM   20  O1  UNL     1      25.635   2.912  52.078  1.00  0.00    -0.350 OA
BRANCH  20  21
HETATM   21  C17 UNL     1      25.688   1.898  53.033  1.00  0.00     0.180 C 
BRANCH  21  22
HETATM   22  C18 UNL     1      27.088   1.288  53.143  1.00  0.00     0.014 C 
HETATM   23  C19 UNL     1      27.074   0.334  54.286  1.00  0.00     0.033 C 
HETATM   24  C20 UNL     1      28.466   0.040  54.812  1.00  0.00     0.168 C 
HETATM   25  O2  UNL     1      28.948   1.284  55.250  1.00  0.00    -0.391 OA
HETATM   26  C21 UNL     1      29.283   2.005  54.130  1.00  0.00     0.168 C 
HETATM   27  C22 UNL     1      28.159   2.318  53.197  1.00  0.00     0.033 C 
ENDBRANCH  21  22
ENDBRANCH  20  21
ENDBRANCH  10  20
BRANCH   1  28
HETATM   28  C2  UNL     1      26.267   3.538  49.451  1.00  0.00     0.037 C 
HETATM   29  C1  UNL     1      26.420   5.000  49.057  1.00  0.00     0.010 C 
ENDBRANCH   1  28
TORSDOF 6
ENDMDL
MODEL 6
REMARK VINA RESULT:      -8.4      1.541      2.167
REMARK  6 active torsions:
REMARK  status: ('A' for Active; 'I' for Inactive)
REMARK    1  A    between atoms: C2_2  and  C3_3 
REMARK    2  A    between atoms: C7_9  and  N3_10 
REMARK    3  A    between atoms: N3_10  and  C8_11 
REMARK    4  A    between atoms: C16_20  and  O1_21 
REMARK    5  A    between atoms: O1_21  and  C17_22 
REMARK    6  A    between atoms: C17_22  and  C18_23 
ROOT
HETATM    1  C3  UNL     1      23.255  -0.593  54.436  1.00  0.00    -0.023 A 
HETATM    2  C4  UNL     1      21.966  -0.116  54.320  1.00  0.00     0.042 A 
HETATM    3  C5  UNL     1      21.642   0.717  53.273  1.00  0.00     0.072 A 
HETATM    4  N1  UNL     1      20.355   1.162  53.200  1.00  0.00    -0.241 NA
HETATM    5  C6  UNL     1      19.981   1.980  52.197  1.00  0.00     0.236 A 
HETATM    6  N2  UNL     1      20.867   2.354  51.279  1.00  0.00    -0.224 NA
HETATM    7  C7  UNL     1      22.128   1.965  51.282  1.00  0.00     0.142 A 
HETATM    8  C14 UNL     1      22.520   1.132  52.298  1.00  0.00     0.041 A 
HETATM    9  C15 UNL     1      23.784   0.621  52.476  1.00  0.00     0.055 A 
HETATM   10  C16 UNL     1      24.187  -0.216  53.493  1.00  0.00     0.076 A 
ENDROOT
BRANCH   7  11
HETATM   11  N3  UNL     1      23.083   2.347  50.322  1.00  0.00    -0.340 N 
HETATM   12  H8  UNL     1      23.328   1.749  49.517  1.00  0.00     0.167 HD
BRANCH  11  13
HETATM   13  C8  UNL     1      23.860   3.524  50.241  1.00  0.00     0.035 A 
HETATM   14  C9  UNL     1      23.506   4.773  50.755  1.00  0.00     0.029 A 
HETATM   15  C10 UNL     1      24.265   5.898  50.666  1.00  0.00     0.004 A 
HETATM   16  C11 UNL     1      25.481   5.864  50.031  1.00  0.00     0.024 A 
HETATM   17  C12 UNL     1      25.887   4.659  49.502  1.00  0.00     0.036 A 
HETATM   18 CL1  UNL     1      27.444   4.671  48.703  1.00  0.00    -0.084 Cl
HETATM   19  C13 UNL     1      25.077   3.541  49.621  1.00  0.00     0.053 A 
ENDBRANCH  11  13
ENDBRANCH   7  11
BRANCH  10  20
HETATM   20  O1  UNL     1      25.484  -0.692  53.607  1.00  0.00    -0.350 OA
BRANCH  20  21
HETATM   21  C17 UNL     1      26.267  -0.808  52.459  1.00  0.00     0.180 C 
BRANCH  21  22
HETATM   22  C18 UNL     1      27.556   0.011  52.561  1.00  0.00     0.014 C 
HETATM   23  C19 UNL     1      28.316  -0.494  53.738  1.00  0.00     0.033 C 
HETATM   24  C20 UNL     1      29.333   0.510  54.245  1.00  0.00     0.168 C 
HETATM   25  O2  UNL     1      28.569   1.625  54.627  1.00  0.00    -0.391 OA
HETATM   26  C21 UNL     1      28.181   2.265  53.476  1.00  0.00     0.168 C 
HETATM   27  C22 UNL     1      27.307   1.477  52.556  1.00  0.00     0.033 C 
ENDBRANCH  21  22
ENDBRANCH  20  21
ENDBRANCH  10  20
BRANCH   1  28
HETATM   28  C2  UNL     1      23.663  -1.492  55.541  1.00  0.00     0.037 C 
HETATM   29  C1  UNL     1      24.819  -0.906  56.339  1.00  0.00     0.010 C 
ENDBRANCH   1  28
TORSDOF 6
ENDMDL
MODEL 7
REMARK VINA RESULT:      -8.3      2.621      4.998
REMARK  6 active torsions:
REMARK  status: ('A' for Active; 'I' for Inactive)
REMARK    1  A    between atoms: C2_2  and  C3_3 
REMARK    2  A    between atoms: C7_9  and  N3_10 
REMARK    3  A    between atoms: N3_10  and  C8_11 
REMARK    4  A    between atoms: C16_20  and  O1_21 
REMARK    5  A    between atoms: O1_21  and  C17_22 
REMARK    6  A    between atoms: C17_22  and  C18_23 
ROOT
HETATM    1  C3  UNL     1      23.383   0.060  53.271  1.00  0.00    -0.023 A 
HETATM    2  C4  UNL     1      24.633   0.224  53.830  1.00  0.00     0.042 A 
HETATM    3  C5  UNL     1      25.580   0.974  53.169  1.00  0.00     0.072 A 
HETATM    4  N1  UNL     1      26.801   1.109  53.761  1.00  0.00    -0.241 NA
HETATM    5  C6  UNL     1      27.765   1.831  53.158  1.00  0.00     0.236 A 
HETATM    6  N2  UNL     1      27.527   2.412  51.986  1.00  0.00    -0.224 NA
HETATM    7  C7  UNL     1      26.373   2.328  51.353  1.00  0.00     0.142 A 
HETATM    8  C14 UNL     1      25.383   1.595  51.956  1.00  0.00     0.041 A 
HETATM    9  C15 UNL     1      24.118   1.389  51.458  1.00  0.00     0.055 A 
HETATM   10  C16 UNL     1      23.118   0.655  52.056  1.00  0.00     0.076 A 
ENDROOT
BRANCH   7  11
HETATM   11  N3  UNL     1      26.097   2.933  50.113  1.00  0.00    -0.340 N 
HETATM   12  H8  UNL     1      25.708   2.407  49.314  1.00  0.00     0.167 HD
BRANCH  11  13
HETATM   13  C8  UNL     1      26.270   4.275  49.705  1.00  0.00     0.035 A 
HETATM   14  C9  UNL     1      25.415   5.336  50.004  1.00  0.00     0.029 A 
HETATM   15  C10 UNL     1      25.595   6.622  49.601  1.00  0.00     0.004 A 
HETATM   16  C11 UNL     1      26.683   6.962  48.838  1.00  0.00     0.024 A 
HETATM   17  C12 UNL     1      27.566   5.958  48.509  1.00  0.00     0.036 A 
HETATM   18 CL1  UNL     1      28.935   6.444  47.534  1.00  0.00    -0.084 Cl
HETATM   19  C13 UNL     1      27.337   4.663  48.946  1.00  0.00     0.053 A 
ENDBRANCH  11  13
ENDBRANCH   7  11
BRANCH  10  20
HETATM   20  O1  UNL     1      21.863   0.491  51.491  1.00  0.00    -0.350 OA
BRANCH  20  21
HETATM   21  C17 UNL     1      20.994   1.580  51.444  1.00  0.00     0.180 C 
BRANCH  21  22
HETATM   22  C18 UNL     1      20.934   2.204  50.048  1.00  0.00     0.014 C 
HETATM   23  C19 UNL     1      21.427   1.185  49.080  1.00  0.00     0.033 C 
HETATM   24  C20 UNL     1      21.882   1.803  47.771  1.00  0.00     0.168 C 
HETATM   25  O2  UNL     1      22.939   2.655  48.131  1.00  0.00    -0.391 OA
HETATM   26  C21 UNL     1      22.383   3.765  48.717  1.00  0.00     0.168 C 
HETATM   27  C22 UNL     1      21.619   3.521  49.978  1.00  0.00     0.033 C 
ENDBRANCH  21  22
ENDBRANCH  20  21
ENDBRANCH  10  20
BRANCH   1  28
HETATM   28  C2  UNL     1      22.325  -0.736  53.936  1.00  0.00     0.037 C 
HETATM   29  C1  UNL     1      22.808  -1.310  55.260  1.00  0.00     0.010 C 
ENDBRANCH   1  28
TORSDOF 6
ENDMDL
MODEL 8
REMARK VINA RESULT:      -8.3      1.988      2.315
REMARK  6 active torsions:
REMARK  status: ('A' for Active; 'I' for Inactive)
REMARK    1  A    between atoms: C2_2  and  C3_3 
REMARK    2  A    between atoms: C7_9  and  N3_10 
REMARK    3  A    between atoms: N3_10  and  C8_11 
REMARK    4  A    between atoms: C16_20  and  O1_21 
REMARK    5  A    between atoms: O1_21  and  C17_22 
REMARK    6  A    between atoms: C17_22  and  C18_23 
ROOT
HETATM    1  C3  UNL     1      22.900   0.053  52.969  1.00  0.00    -0.023 A 
HETATM    2  C4  UNL     1      21.653   0.023  52.381  1.00  0.00     0.042 A 
HETATM    3  C5  UNL     1      21.436   0.718  51.213  1.00  0.00     0.072 A 
HETATM    4  N1  UNL     1      20.187   0.657  50.669  1.00  0.00    -0.241 NA
HETATM    5  C6  UNL     1      19.917   1.319  49.527  1.00  0.00     0.236 A 
HETATM    6  N2  UNL     1      20.868   2.031  48.930  1.00  0.00    -0.224 NA
HETATM    7  C7  UNL     1      22.099   2.137  49.394  1.00  0.00     0.142 A 
HETATM    8  C14 UNL     1      22.385   1.468  50.557  1.00  0.00     0.041 A 
HETATM    9  C15 UNL     1      23.602   1.454  51.197  1.00  0.00     0.055 A 
HETATM   10  C16 UNL     1      23.899   0.786  52.364  1.00  0.00     0.076 A 
ENDROOT
BRANCH   7  11
HETATM   11  N3  UNL     1      23.121   2.884  48.782  1.00  0.00    -0.340 N 
HETATM   12  H8  UNL     1      23.509   2.637  47.857  1.00  0.00     0.167 HD
BRANCH  11  13
HETATM   13  C8  UNL     1      23.796   4.037  49.242  1.00  0.00     0.035 A 
HETATM   14  C9  UNL     1      25.180   4.189  49.338  1.00  0.00     0.029 A 
HETATM   15  C10 UNL     1      25.813   5.306  49.786  1.00  0.00     0.004 A 
HETATM   16  C11 UNL     1      25.088   6.398  50.190  1.00  0.00     0.024 A 
HETATM   17  C12 UNL     1      23.716   6.310  50.119  1.00  0.00     0.036 A 
HETATM   18 CL1  UNL     1      22.838   7.729  50.646  1.00  0.00    -0.084 Cl
HETATM   19  C13 UNL     1      23.119   5.149  49.653  1.00  0.00     0.053 A 
ENDBRANCH  11  13
ENDBRANCH   7  11
BRANCH  10  20
HETATM   20  O1  UNL     1      25.154   0.819  52.953  1.00  0.00    -0.350 OA
BRANCH  20  21
HETATM   21  C17 UNL     1      26.055   1.812  52.570  1.00  0.00     0.180 C 
BRANCH  21  22
HETATM   22  C18 UNL     1      27.506   1.335  52.668  1.00  0.00     0.014 C 
HETATM   23  C19 UNL     1      27.480  -0.117  52.998  1.00  0.00     0.033 C 
HETATM   24  C20 UNL     1      28.788  -0.598  53.598  1.00  0.00     0.168 C 
HETATM   25  O2  UNL     1      28.929   0.146  54.780  1.00  0.00    -0.391 OA
HETATM   26  C21 UNL     1      29.307   1.416  54.417  1.00  0.00     0.168 C 
HETATM   27  C22 UNL     1      28.326   2.173  53.582  1.00  0.00     0.033 C 
ENDBRANCH  21  22
ENDBRANCH  20  21
ENDBRANCH  10  20
BRANCH   1  28
HETATM   28  C2  UNL     1      23.194  -0.675  54.226  1.00  0.00     0.037 C 
HETATM   29  C1  UNL     1      21.931  -1.267  54.835  1.00  0.00     0.010 C 
ENDBRANCH   1  28
TORSDOF 6
ENDMDL
MODEL 9
REMARK VINA RESULT:      -8.2      2.710      5.614
REMARK  6 active torsions:
REMARK  status: ('A' for Active; 'I' for Inactive)
REMARK    1  A    between atoms: C2_2  and  C3_3 
REMARK    2  A    between atoms: C7_9  and  N3_10 
REMARK    3  A    between atoms: N3_10  and  C8_11 
REMARK    4  A    between atoms: C16_20  and  O1_21 
REMARK    5  A    between atoms: O1_21  and  C17_22 
REMARK    6  A    between atoms: C17_22  and  C18_23 
ROOT
HETATM    1  C3  UNL     1      22.993   0.122  53.034  1.00  0.00    -0.023 A 
HETATM    2  C4  UNL     1      24.298   0.208  53.471  1.00  0.00     0.042 A 
HETATM    3  C5  UNL     1      25.196   0.990  52.782  1.00  0.00     0.072 A 
HETATM    4  N1  UNL     1      26.474   1.044  53.253  1.00  0.00    -0.241 NA
HETATM    5  C6  UNL     1      27.395   1.793  52.616  1.00  0.00     0.236 A 
HETATM    6  N2  UNL     1      27.058   2.480  51.529  1.00  0.00    -0.224 NA
HETATM    7  C7  UNL     1      25.844   2.479  51.014  1.00  0.00     0.142 A 
HETATM    8  C14 UNL     1      24.897   1.719  51.653  1.00  0.00     0.041 A 
HETATM    9  C15 UNL     1      23.582   1.588  51.273  1.00  0.00     0.055 A 
HETATM   10  C16 UNL     1      22.625   0.828  51.908  1.00  0.00     0.076 A 
ENDROOT
BRANCH   7  11
HETATM   11  N3  UNL     1      25.463   3.196  49.865  1.00  0.00    -0.340 N 
HETATM   12  H8  UNL     1      24.676   2.902  49.264  1.00  0.00     0.167 HD
BRANCH  11  13
HETATM   13  C8  UNL     1      26.014   4.375  49.314  1.00  0.00     0.035 A 
HETATM   14  C9  UNL     1      25.320   5.559  49.058  1.00  0.00     0.029 A 
HETATM   15  C10 UNL     1      25.865   6.684  48.524  1.00  0.00     0.004 A 
HETATM   16  C11 UNL     1      27.195   6.716  48.188  1.00  0.00     0.024 A 
HETATM   17  C12 UNL     1      27.935   5.578  48.416  1.00  0.00     0.036 A 
HETATM   18 CL1  UNL     1      29.624   5.672  47.970  1.00  0.00    -0.084 Cl
HETATM   19  C13 UNL     1      27.332   4.457  48.965  1.00  0.00     0.053 A 
ENDBRANCH  11  13
ENDBRANCH   7  11
BRANCH  10  20
HETATM   20  O1  UNL     1      21.314   0.743  51.465  1.00  0.00    -0.350 OA
BRANCH  20  21
HETATM   21  C17 UNL     1      21.031   1.028  50.129  1.00  0.00     0.180 C 
BRANCH  21  22
HETATM   22  C18 UNL     1      19.846   1.987  49.988  1.00  0.00     0.014 C 
HETATM   23  C19 UNL     1      20.219   3.263  50.658  1.00  0.00     0.033 C 
HETATM   24  C20 UNL     1      19.009   4.100  51.025  1.00  0.00     0.168 C 
HETATM   25  O2  UNL     1      18.282   3.298  51.921  1.00  0.00    -0.391 OA
HETATM   26  C21 UNL     1      17.661   2.324  51.180  1.00  0.00     0.168 C 
HETATM   27  C22 UNL     1      18.565   1.387  50.447  1.00  0.00     0.033 C 
ENDBRANCH  21  22
ENDBRANCH  20  21
ENDBRANCH  10  20
BRANCH   1  28
HETATM   28  C2  UNL     1      21.982  -0.704  53.735  1.00  0.00     0.037 C 
HETATM   29  C1  UNL     1      22.536  -1.284  55.029  1.00  0.00     0.010 C 
ENDBRANCH   1  28
TORSDOF 6
ENDMDL
