MODEL 1
REMARK VINA RESULT:      -7.6      0.000      0.000
REMARK  5 active torsions:
REMARK  status: ('A' for Active; 'I' for Inactive)
REMARK    1  A    between atoms: C2_2  and  C3_3 
REMARK       I    between atoms: C3_3  and  N1_5 
REMARK    2  A    between atoms: N1_5  and  C4_6 
REMARK    3  A    between atoms: C8_10  and  N2_11 
REMARK    4  A    between atoms: N2_11  and  C9_12 
REMARK    5  A    between atoms: C14_17  and  O2_18 
ROOT
HETATM    1  C4  UNL     1      24.783   3.110  51.477  1.00  0.00     0.037 A 
HETATM    2  C5  UNL     1      23.445   2.829  51.348  1.00  0.00     0.029 A 
HETATM    3  C6  UNL     1      22.858   1.795  52.026  1.00  0.00     0.004 A 
HETATM    4  C7  UNL     1      23.634   1.024  52.854  1.00  0.00     0.029 A 
HETATM    5  C8  UNL     1      24.984   1.234  53.042  1.00  0.00     0.034 A 
HETATM    6  C16 UNL     1      25.496   2.305  52.315  1.00  0.00     0.059 A 
ENDROOT
BRANCH   5   7
HETATM    7  N2  UNL     1      25.829   0.450  53.863  1.00  0.00    -0.354 N 
HETATM    8  H8  UNL     1      25.528   0.549  54.879  1.00  0.00     0.166 HD
BRANCH   7   9
HETATM    9  C9  UNL     1      26.932  -0.394  53.598  1.00  0.00     0.066 A 
HETATM   10  C10 UNL     1      26.895  -1.629  53.023  1.00  0.00     0.032 A 
HETATM   11  C11 UNL     1      27.978  -2.445  52.786  1.00  0.00     0.002 A 
HETATM   12  C12 UNL     1      29.221  -1.981  53.160  1.00  0.00     0.003 A 
HETATM   13  C13 UNL     1      29.301  -0.737  53.744  1.00  0.00     0.039 A 
HETATM   14  C14 UNL     1      28.189   0.043  53.961  1.00  0.00     0.094 A 
BRANCH  14  15
HETATM   15  O2  UNL     1      28.383   1.261  54.548  1.00  0.00    -0.354 OA
HETATM   16  C15 UNL     1      28.882   2.398  53.868  1.00  0.00     0.210 C 
ENDBRANCH  14  15
ENDBRANCH   7   9
ENDBRANCH   5   7
BRANCH   1  17
HETATM   17  N1  UNL     1      25.284   4.201  50.730  1.00  0.00    -0.324 N 
HETATM   18  C3  UNL     1      26.208   4.212  49.656  1.00  0.00     0.244 C 
HETATM   19  O1  UNL     1      26.692   3.147  49.251  1.00  0.00    -0.268 OA
HETATM   20  H4  UNL     1      24.975   5.182  50.941  1.00  0.00     0.169 HD
BRANCH  18  21
HETATM   21  C2  UNL     1      26.668   5.394  48.945  1.00  0.00     0.064 C 
HETATM   22  C1  UNL     1      27.901   5.079  48.541  1.00  0.00     0.017 C 
ENDBRANCH  18  21
ENDBRANCH   1  17
TORSDOF 5
ENDMDL
MODEL 2
REMARK VINA RESULT:      -7.3      2.566      6.224
REMARK  5 active torsions:
REMARK  status: ('A' for Active; 'I' for Inactive)
REMARK    1  A    between atoms: C2_2  and  C3_3 
REMARK       I    between atoms: C3_3  and  N1_5 
REMARK    2  A    between atoms: N1_5  and  C4_6 
REMARK    3  A    between atoms: C8_10  and  N2_11 
REMARK    4  A    between atoms: N2_11  and  C9_12 
REMARK    5  A    between atoms: C14_17  and  O2_18 
ROOT
HETATM    1  C4  UNL     1      24.705  -0.537  54.140  1.00  0.00     0.037 A 
HETATM    2  C5  UNL     1      23.959  -1.263  55.034  1.00  0.00     0.029 A 
HETATM    3  C6  UNL     1      22.595  -1.158  55.087  1.00  0.00     0.004 A 
HETATM    4  C7  UNL     1      21.966  -0.301  54.220  1.00  0.00     0.029 A 
HETATM    5  C8  UNL     1      22.635   0.467  53.291  1.00  0.00     0.034 A 
HETATM    6  C16 UNL     1      24.017   0.296  53.307  1.00  0.00     0.059 A 
ENDROOT
BRANCH   5   7
HETATM    7  N2  UNL     1      22.034   1.383  52.397  1.00  0.00    -0.354 N 
HETATM    8  H8  UNL     1      21.417   2.058  52.943  1.00  0.00     0.166 HD
BRANCH   7   9
HETATM    9  C9  UNL     1      22.100   1.561  50.996  1.00  0.00     0.066 A 
HETATM   10  C10 UNL     1      21.396   0.876  50.052  1.00  0.00     0.032 A 
HETATM   11  C11 UNL     1      21.484   1.051  48.689  1.00  0.00     0.002 A 
HETATM   12  C12 UNL     1      22.362   2.006  48.224  1.00  0.00     0.003 A 
HETATM   13  C13 UNL     1      23.092   2.721  49.146  1.00  0.00     0.039 A 
HETATM   14  C14 UNL     1      22.970   2.510  50.499  1.00  0.00     0.094 A 
BRANCH  14  15
HETATM   15  O2  UNL     1      23.743   3.275  51.326  1.00  0.00    -0.354 OA
HETATM   16  C15 UNL     1      23.504   4.645  51.592  1.00  0.00     0.210 C 
ENDBRANCH  14  15
ENDBRANCH   7   9
ENDBRANCH   5   7
BRANCH   1  17
HETATM   17  N1  UNL     1      26.107  -0.724  54.172  1.00  0.00    -0.324 N 
HETATM   18  C3  UNL     1      27.129   0.173  54.567  1.00  0.00     0.244 C 
HETATM   19  O1  UNL     1      26.831   1.310  54.957  1.00  0.00    -0.268 OA
HETATM   20  H4  UNL     1      26.532  -1.637  53.875  1.00  0.00     0.169 HD
BRANCH  18  21
HETATM   21  C2  UNL     1      28.554  -0.112  54.565  1.00  0.00     0.064 C 
HETATM   22  C1  UNL     1      28.754  -0.796  53.435  1.00  0.00     0.017 C 
ENDBRANCH  18  21
ENDBRANCH   1  17
TORSDOF 5
ENDMDL
MODEL 3
REMARK VINA RESULT:      -7.2      1.605      6.257
REMARK  5 active torsions:
REMARK  status: ('A' for Active; 'I' for Inactive)
REMARK    1  A    between atoms: C2_2  and  C3_3 
REMARK       I    between atoms: C3_3  and  N1_5 
REMARK    2  A    between atoms: N1_5  and  C4_6 
REMARK    3  A    between atoms: C8_10  and  N2_11 
REMARK    4  A    between atoms: N2_11  and  C9_12 
REMARK    5  A    between atoms: C14_17  and  O2_18 
ROOT
HETATM    1  C4  UNL     1      26.209   0.750  52.474  1.00  0.00     0.037 A 
HETATM    2  C5  UNL     1      25.115   0.177  53.073  1.00  0.00     0.029 A 
HETATM    3  C6  UNL     1      23.858   0.699  52.926  1.00  0.00     0.004 A 
HETATM    4  C7  UNL     1      23.697   1.826  52.159  1.00  0.00     0.029 A 
HETATM    5  C8  UNL     1      24.739   2.467  51.523  1.00  0.00     0.034 A 
HETATM    6  C16 UNL     1      25.979   1.868  51.727  1.00  0.00     0.059 A 
ENDROOT
BRANCH   5   7
HETATM    7  N2  UNL     1      24.626   3.644  50.746  1.00  0.00    -0.354 N 
HETATM    8  H8  UNL     1      23.610   3.963  50.732  1.00  0.00     0.166 HD
BRANCH   7   9
HETATM    9  C9  UNL     1      25.558   4.431  50.032  1.00  0.00     0.066 A 
HETATM   10  C10 UNL     1      26.652   3.983  49.352  1.00  0.00     0.032 A 
HETATM   11  C11 UNL     1      27.559   4.766  48.673  1.00  0.00     0.002 A 
HETATM   12  C12 UNL     1      27.353   6.128  48.674  1.00  0.00     0.003 A 
HETATM   13  C13 UNL     1      26.259   6.620  49.349  1.00  0.00     0.039 A 
HETATM   14  C14 UNL     1      25.380   5.798  50.014  1.00  0.00     0.094 A 
BRANCH  14  15
HETATM   15  O2  UNL     1      24.327   6.392  50.652  1.00  0.00    -0.354 OA
HETATM   16  C15 UNL     1      24.098   7.788  50.672  1.00  0.00     0.210 C 
ENDBRANCH  14  15
ENDBRANCH   7   9
ENDBRANCH   5   7
BRANCH   1  17
HETATM   17  N1  UNL     1      27.460   0.127  52.693  1.00  0.00    -0.324 N 
HETATM   18  C3  UNL     1      28.431   0.378  53.693  1.00  0.00     0.244 C 
HETATM   19  O1  UNL     1      28.228   1.258  54.540  1.00  0.00    -0.268 OA
HETATM   20  H4  UNL     1      27.791  -0.645  52.063  1.00  0.00     0.169 HD
BRANCH  18  21
HETATM   21  C2  UNL     1      29.698  -0.320  53.837  1.00  0.00     0.064 C 
HETATM   22  C1  UNL     1      29.453  -1.551  53.382  1.00  0.00     0.017 C 
ENDBRANCH  18  21
ENDBRANCH   1  17
TORSDOF 5
ENDMDL
MODEL 4
REMARK VINA RESULT:      -7.0      2.865      6.698
REMARK  5 active torsions:
REMARK  status: ('A' for Active; 'I' for Inactive)
REMARK    1  A    between atoms: C2_2  and  C3_3 
REMARK       I    between atoms: C3_3  and  N1_5 
REMARK    2  A    between atoms: N1_5  and  C4_6 
REMARK    3  A    between atoms: C8_10  and  N2_11 
REMARK    4  A    between atoms: N2_11  and  C9_12 
REMARK    5  A    between atoms: C14_17  and  O2_18 
ROOT
HETATM    1  C4  UNL     1      24.759  -0.425  54.157  1.00  0.00     0.037 A 
HETATM    2  C5  UNL     1      23.924  -1.174  54.948  1.00  0.00     0.029 A 
HETATM    3  C6  UNL     1      22.563  -1.040  54.886  1.00  0.00     0.004 A 
HETATM    4  C7  UNL     1      22.029  -0.130  54.009  1.00  0.00     0.029 A 
HETATM    5  C8  UNL     1      22.792   0.664  53.180  1.00  0.00     0.034 A 
HETATM    6  C16 UNL     1      24.163   0.461  53.308  1.00  0.00     0.059 A 
ENDROOT
BRANCH   5   7
HETATM    7  N2  UNL     1      22.289   1.634  52.281  1.00  0.00    -0.354 N 
HETATM    8  H8  UNL     1      21.818   2.415  52.830  1.00  0.00     0.166 HD
BRANCH   7   9
HETATM    9  C9  UNL     1      22.298   1.752  50.872  1.00  0.00     0.066 A 
HETATM   10  C10 UNL     1      23.143   2.516  50.123  1.00  0.00     0.032 A 
HETATM   11  C11 UNL     1      23.129   2.632  48.751  1.00  0.00     0.002 A 
HETATM   12  C12 UNL     1      22.177   1.913  48.060  1.00  0.00     0.003 A 
HETATM   13  C13 UNL     1      21.305   1.128  48.780  1.00  0.00     0.039 A 
HETATM   14  C14 UNL     1      21.358   1.045  50.152  1.00  0.00     0.094 A 
BRANCH  14  15
HETATM   15  O2  UNL     1      20.444   0.236  50.766  1.00  0.00    -0.354 OA
HETATM   16  C15 UNL     1      19.085   0.581  50.961  1.00  0.00     0.210 C 
ENDBRANCH  14  15
ENDBRANCH   7   9
ENDBRANCH   5   7
BRANCH   1  17
HETATM   17  N1  UNL     1      26.149  -0.645  54.302  1.00  0.00    -0.324 N 
HETATM   18  C3  UNL     1      27.181   0.273  54.616  1.00  0.00     0.244 C 
HETATM   19  O1  UNL     1      26.906   1.465  54.808  1.00  0.00    -0.268 OA
HETATM   20  H4  UNL     1      26.556  -1.605  54.174  1.00  0.00     0.169 HD
BRANCH  18  21
HETATM   21  C2  UNL     1      28.593  -0.050  54.744  1.00  0.00     0.064 C 
HETATM   22  C1  UNL     1      29.222   0.983  54.177  1.00  0.00     0.017 C 
ENDBRANCH  18  21
ENDBRANCH   1  17
TORSDOF 5
ENDMDL
MODEL 5
REMARK VINA RESULT:      -6.8      2.872      6.066
REMARK  5 active torsions:
REMARK  status: ('A' for Active; 'I' for Inactive)
REMARK    1  A    between atoms: C2_2  and  C3_3 
REMARK       I    between atoms: C3_3  and  N1_5 
REMARK    2  A    between atoms: N1_5  and  C4_6 
REMARK    3  A    between atoms: C8_10  and  N2_11 
REMARK    4  A    between atoms: N2_11  and  C9_12 
REMARK    5  A    between atoms: C14_17  and  O2_18 
ROOT
HETATM    1  C4  UNL     1      26.332   1.483  52.303  1.00  0.00     0.037 A 
HETATM    2  C5  UNL     1      26.457   2.204  51.142  1.00  0.00     0.029 A 
HETATM    3  C6  UNL     1      25.381   2.808  50.550  1.00  0.00     0.004 A 
HETATM    4  C7  UNL     1      24.148   2.682  51.139  1.00  0.00     0.029 A 
HETATM    5  C8  UNL     1      23.931   1.976  52.303  1.00  0.00     0.034 A 
HETATM    6  C16 UNL     1      25.080   1.397  52.835  1.00  0.00     0.059 A 
ENDROOT
BRANCH   5   7
HETATM    7  N2  UNL     1      22.676   1.796  52.932  1.00  0.00    -0.354 N 
HETATM    8  H8  UNL     1      22.222   2.745  53.095  1.00  0.00     0.166 HD
BRANCH   7   9
HETATM    9  C9  UNL     1      21.954   0.656  53.354  1.00  0.00     0.066 A 
HETATM   10  C10 UNL     1      22.445  -0.410  54.047  1.00  0.00     0.032 A 
HETATM   11  C11 UNL     1      21.731  -1.521  54.437  1.00  0.00     0.002 A 
HETATM   12  C12 UNL     1      20.395  -1.570  54.103  1.00  0.00     0.003 A 
HETATM   13  C13 UNL     1      19.860  -0.512  53.404  1.00  0.00     0.039 A 
HETATM   14  C14 UNL     1      20.615   0.577  53.035  1.00  0.00     0.094 A 
BRANCH  14  15
HETATM   15  O2  UNL     1      19.983   1.571  52.342  1.00  0.00    -0.354 OA
HETATM   16  C15 UNL     1      19.074   1.344  51.281  1.00  0.00     0.210 C 
ENDBRANCH  14  15
ENDBRANCH   7   9
ENDBRANCH   5   7
BRANCH   1  17
HETATM   17  N1  UNL     1      27.511   0.902  52.827  1.00  0.00    -0.324 N 
HETATM   18  C3  UNL     1      28.488   1.461  53.687  1.00  0.00     0.244 C 
HETATM   19  O1  UNL     1      28.363   2.627  54.083  1.00  0.00    -0.268 OA
HETATM   20  H4  UNL     1      27.771  -0.088  52.592  1.00  0.00     0.169 HD
BRANCH  18  21
HETATM   21  C2  UNL     1      29.675   0.780  54.176  1.00  0.00     0.064 C 
HETATM   22  C1  UNL     1      29.644  -0.413  53.577  1.00  0.00     0.017 C 
ENDBRANCH  18  21
ENDBRANCH   1  17
TORSDOF 5
ENDMDL
MODEL 6
REMARK VINA RESULT:      -6.8      2.821      6.203
REMARK  5 active torsions:
REMARK  status: ('A' for Active; 'I' for Inactive)
REMARK    1  A    between atoms: C2_2  and  C3_3 
REMARK       I    between atoms: C3_3  and  N1_5 
REMARK    2  A    between atoms: N1_5  and  C4_6 
REMARK    3  A    between atoms: C8_10  and  N2_11 
REMARK    4  A    between atoms: N2_11  and  C9_12 
REMARK    5  A    between atoms: C14_17  and  O2_18 
ROOT
HETATM    1  C4  UNL     1      26.094   1.469  52.145  1.00  0.00     0.037 A 
HETATM    2  C5  UNL     1      26.177   2.262  51.027  1.00  0.00     0.029 A 
HETATM    3  C6  UNL     1      25.086   2.921  50.530  1.00  0.00     0.004 A 
HETATM    4  C7  UNL     1      23.881   2.779  51.171  1.00  0.00     0.029 A 
HETATM    5  C8  UNL     1      23.707   2.003  52.297  1.00  0.00     0.034 A 
HETATM    6  C16 UNL     1      24.868   1.371  52.733  1.00  0.00     0.059 A 
ENDROOT
BRANCH   5   7
HETATM    7  N2  UNL     1      22.481   1.805  52.976  1.00  0.00    -0.354 N 
HETATM    8  H8  UNL     1      22.508   2.313  53.911  1.00  0.00     0.166 HD
BRANCH   7   9
HETATM    9  C9  UNL     1      21.296   1.103  52.659  1.00  0.00     0.066 A 
HETATM   10  C10 UNL     1      20.551   1.230  51.524  1.00  0.00     0.032 A 
HETATM   11  C11 UNL     1      19.389   0.549  51.238  1.00  0.00     0.002 A 
HETATM   12  C12 UNL     1      18.927  -0.347  52.177  1.00  0.00     0.003 A 
HETATM   13  C13 UNL     1      19.651  -0.505  53.337  1.00  0.00     0.039 A 
HETATM   14  C14 UNL     1      20.807   0.199  53.579  1.00  0.00     0.094 A 
BRANCH  14  15
HETATM   15  O2  UNL     1      21.447  -0.034  54.763  1.00  0.00    -0.354 OA
HETATM   16  C15 UNL     1      22.295  -1.142  55.001  1.00  0.00     0.210 C 
ENDBRANCH  14  15
ENDBRANCH   7   9
ENDBRANCH   5   7
BRANCH   1  17
HETATM   17  N1  UNL     1      27.285   0.834  52.571  1.00  0.00    -0.324 N 
HETATM   18  C3  UNL     1      28.267   1.281  53.489  1.00  0.00     0.244 C 
HETATM   19  O1  UNL     1      28.135   2.380  54.044  1.00  0.00    -0.268 OA
HETATM   20  H4  UNL     1      27.552  -0.111  52.199  1.00  0.00     0.169 HD
BRANCH  18  21
HETATM   21  C2  UNL     1      29.467   0.553  53.867  1.00  0.00     0.064 C 
HETATM   22  C1  UNL     1      29.157  -0.729  53.657  1.00  0.00     0.017 C 
ENDBRANCH  18  21
ENDBRANCH   1  17
TORSDOF 5
ENDMDL
MODEL 7
REMARK VINA RESULT:      -6.8      2.701      6.872
REMARK  5 active torsions:
REMARK  status: ('A' for Active; 'I' for Inactive)
REMARK    1  A    between atoms: C2_2  and  C3_3 
REMARK       I    between atoms: C3_3  and  N1_5 
REMARK    2  A    between atoms: N1_5  and  C4_6 
REMARK    3  A    between atoms: C8_10  and  N2_11 
REMARK    4  A    between atoms: N2_11  and  C9_12 
REMARK    5  A    between atoms: C14_17  and  O2_18 
ROOT
HETATM    1  C4  UNL     1      24.529   0.678  52.808  1.00  0.00     0.037 A 
HETATM    2  C5  UNL     1      25.740   0.047  52.671  1.00  0.00     0.029 A 
HETATM    3  C6  UNL     1      26.771   0.612  51.970  1.00  0.00     0.004 A 
HETATM    4  C7  UNL     1      26.579   1.842  51.392  1.00  0.00     0.029 A 
HETATM    5  C8  UNL     1      25.397   2.546  51.478  1.00  0.00     0.034 A 
HETATM    6  C16 UNL     1      24.405   1.897  52.209  1.00  0.00     0.059 A 
ENDROOT
BRANCH   5   7
HETATM    7  N2  UNL     1      25.144   3.801  50.877  1.00  0.00    -0.354 N 
HETATM    8  H8  UNL     1      24.168   4.132  51.146  1.00  0.00     0.166 HD
BRANCH   7   9
HETATM    9  C9  UNL     1      25.903   4.650  50.039  1.00  0.00     0.066 A 
HETATM   10  C10 UNL     1      26.937   4.285  49.230  1.00  0.00     0.032 A 
HETATM   11  C11 UNL     1      27.678   5.128  48.431  1.00  0.00     0.002 A 
HETATM   12  C12 UNL     1      27.351   6.466  48.442  1.00  0.00     0.003 A 
HETATM   13  C13 UNL     1      26.311   6.876  49.245  1.00  0.00     0.039 A 
HETATM   14  C14 UNL     1      25.601   5.995  50.027  1.00  0.00     0.094 A 
BRANCH  14  15
HETATM   15  O2  UNL     1      24.588   6.509  50.788  1.00  0.00    -0.354 OA
HETATM   16  C15 UNL     1      23.727   7.550  50.364  1.00  0.00     0.210 C 
ENDBRANCH  14  15
ENDBRANCH   7   9
ENDBRANCH   5   7
BRANCH   1  17
HETATM   17  N1  UNL     1      23.534   0.003  53.554  1.00  0.00    -0.324 N 
HETATM   18  C3  UNL     1      22.259  -0.462  53.146  1.00  0.00     0.244 C 
HETATM   19  O1  UNL     1      21.888  -0.291  51.977  1.00  0.00    -0.268 OA
HETATM   20  H4  UNL     1      23.686  -0.225  54.567  1.00  0.00     0.169 HD
BRANCH  18  21
HETATM   21  C2  UNL     1      21.298  -1.150  53.991  1.00  0.00     0.064 C 
HETATM   22  C1  UNL     1      22.037  -1.686  54.966  1.00  0.00     0.017 C 
ENDBRANCH  18  21
ENDBRANCH   1  17
TORSDOF 5
ENDMDL
MODEL 8
REMARK VINA RESULT:      -6.8      2.055      6.617
REMARK  5 active torsions:
REMARK  status: ('A' for Active; 'I' for Inactive)
REMARK    1  A    between atoms: C2_2  and  C3_3 
REMARK       I    between atoms: C3_3  and  N1_5 
REMARK    2  A    between atoms: N1_5  and  C4_6 
REMARK    3  A    between atoms: C8_10  and  N2_11 
REMARK    4  A    between atoms: N2_11  and  C9_12 
REMARK    5  A    between atoms: C14_17  and  O2_18 
ROOT
HETATM    1  C4  UNL     1      26.148   0.412  52.969  1.00  0.00     0.037 A 
HETATM    2  C5  UNL     1      25.080  -0.388  53.287  1.00  0.00     0.029 A 
HETATM    3  C6  UNL     1      23.799   0.093  53.300  1.00  0.00     0.004 A 
HETATM    4  C7  UNL     1      23.587   1.412  52.987  1.00  0.00     0.029 A 
HETATM    5  C8  UNL     1      24.599   2.287  52.657  1.00  0.00     0.034 A 
HETATM    6  C16 UNL     1      25.868   1.713  52.668  1.00  0.00     0.059 A 
ENDROOT
BRANCH   5   7
HETATM    7  N2  UNL     1      24.433   3.659  52.353  1.00  0.00    -0.354 N 
HETATM    8  H8  UNL     1      24.405   4.220  53.257  1.00  0.00     0.166 HD
BRANCH   7   9
HETATM    9  C9  UNL     1      24.307   4.379  51.144  1.00  0.00     0.066 A 
HETATM   10  C10 UNL     1      25.263   4.535  50.185  1.00  0.00     0.032 A 
HETATM   11  C11 UNL     1      25.130   5.254  49.017  1.00  0.00     0.002 A 
HETATM   12  C12 UNL     1      23.923   5.878  48.787  1.00  0.00     0.003 A 
HETATM   13  C13 UNL     1      22.930   5.744  49.732  1.00  0.00     0.039 A 
HETATM   14  C14 UNL     1      23.111   5.015  50.884  1.00  0.00     0.094 A 
BRANCH  14  15
HETATM   15  O2  UNL     1      22.060   4.948  51.754  1.00  0.00    -0.354 OA
HETATM   16  C15 UNL     1      20.927   4.121  51.567  1.00  0.00     0.210 C 
ENDBRANCH  14  15
ENDBRANCH   7   9
ENDBRANCH   5   7
BRANCH   1  17
HETATM   17  N1  UNL     1      27.429  -0.189  52.987  1.00  0.00    -0.324 N 
HETATM   18  C3  UNL     1      28.463  -0.083  53.949  1.00  0.00     0.244 C 
HETATM   19  O1  UNL     1      28.298   0.621  54.954  1.00  0.00    -0.268 OA
HETATM   20  H4  UNL     1      27.734  -0.822  52.207  1.00  0.00     0.169 HD
BRANCH  18  21
HETATM   21  C2  UNL     1      29.756  -0.744  53.879  1.00  0.00     0.064 C 
HETATM   22  C1  UNL     1      29.488  -1.944  53.357  1.00  0.00     0.017 C 
ENDBRANCH  18  21
ENDBRANCH   1  17
TORSDOF 5
ENDMDL
MODEL 9
REMARK VINA RESULT:      -6.5      2.674      5.537
REMARK  5 active torsions:
REMARK  status: ('A' for Active; 'I' for Inactive)
REMARK    1  A    between atoms: C2_2  and  C3_3 
REMARK       I    between atoms: C3_3  and  N1_5 
REMARK    2  A    between atoms: N1_5  and  C4_6 
REMARK    3  A    between atoms: C8_10  and  N2_11 
REMARK    4  A    between atoms: N2_11  and  C9_12 
REMARK    5  A    between atoms: C14_17  and  O2_18 
ROOT
HETATM    1  C4  UNL     1      25.996   2.558  51.393  1.00  0.00     0.037 A 
HETATM    2  C5  UNL     1      26.777   1.433  51.486  1.00  0.00     0.029 A 
HETATM    3  C6  UNL     1      26.348   0.311  52.141  1.00  0.00     0.004 A 
HETATM    4  C7  UNL     1      25.103   0.320  52.718  1.00  0.00     0.029 A 
HETATM    5  C8  UNL     1      24.254   1.404  52.675  1.00  0.00     0.034 A 
HETATM    6  C16 UNL     1      24.771   2.500  51.989  1.00  0.00     0.059 A 
ENDROOT
BRANCH   5   7
HETATM    7  N2  UNL     1      22.975   1.470  53.278  1.00  0.00    -0.354 N 
HETATM    8  H8  UNL     1      23.085   1.613  54.327  1.00  0.00     0.166 HD
BRANCH   7   9
HETATM    9  C9  UNL     1      21.657   1.391  52.773  1.00  0.00     0.066 A 
HETATM   10  C10 UNL     1      20.899   2.423  52.307  1.00  0.00     0.032 A 
HETATM   11  C11 UNL     1      19.609   2.331  51.833  1.00  0.00     0.002 A 
HETATM   12  C12 UNL     1      19.020   1.086  51.824  1.00  0.00     0.003 A 
HETATM   13  C13 UNL     1      19.753   0.016  52.287  1.00  0.00     0.039 A 
HETATM   14  C14 UNL     1      21.040   0.158  52.751  1.00  0.00     0.094 A 
BRANCH  14  15
HETATM   15  O2  UNL     1      21.676  -0.970  53.188  1.00  0.00    -0.354 OA
HETATM   16  C15 UNL     1      21.388  -1.618  54.413  1.00  0.00     0.210 C 
ENDBRANCH  14  15
ENDBRANCH   7   9
ENDBRANCH   5   7
BRANCH   1  17
HETATM   17  N1  UNL     1      26.539   3.661  50.693  1.00  0.00    -0.324 N 
HETATM   18  C3  UNL     1      26.023   4.365  49.577  1.00  0.00     0.244 C 
HETATM   19  O1  UNL     1      24.939   4.025  49.084  1.00  0.00    -0.268 OA
HETATM   20  H4  UNL     1      27.459   4.078  50.981  1.00  0.00     0.169 HD
BRANCH  18  21
HETATM   21  C2  UNL     1      26.659   5.494  48.920  1.00  0.00     0.064 C 
HETATM   22  C1  UNL     1      27.861   5.034  48.559  1.00  0.00     0.017 C 
ENDBRANCH  18  21
ENDBRANCH   1  17
TORSDOF 5
ENDMDL
