MODEL 1
REMARK VINA RESULT:      -8.6      0.000      0.000
REMARK  0 active torsions:
REMARK  status: ('A' for Active; 'I' for Inactive)
ROOT
HETATM    1  F1  UNL     1      19.499   0.997  49.331  1.00  0.00    -0.206 F 
HETATM    2  C1  UNL     1      20.331   1.753  50.046  1.00  0.00     0.116 C 
HETATM    3  C2  UNL     1      20.708   1.140  51.113  1.00  0.00     0.043 C 
HETATM    4  C3  UNL     1      21.438   1.039  52.350  1.00  0.00     0.020 C 
HETATM    5  C4  UNL     1      22.034   0.801  53.469  1.00  0.00     0.083 C 
HETATM    6  N1  UNL     1      21.999  -0.387  54.223  1.00  0.00    -0.397 N 
HETATM    7  C5  UNL     1      23.055  -1.097  53.470  1.00  0.00     0.145 C 
HETATM    8  C6  UNL     1      24.347  -0.345  53.708  1.00  0.00     0.187 C 
HETATM    9  O1  UNL     1      25.433  -0.893  53.044  1.00  0.00    -0.387 OA
HETATM   10  C7  UNL     1      26.557  -0.142  53.334  1.00  0.00     0.194 C 
HETATM   11  C8  UNL     1      26.503   1.301  52.965  1.00  0.00     0.201 C 
HETATM   12  O2  UNL     1      26.302   1.450  51.591  1.00  0.00    -0.348 OA
HETATM   13  C9  UNL     1      25.798   2.623  51.065  1.00  0.00     0.112 A 
HETATM   14  C10 UNL     1      26.360   3.552  50.329  1.00  0.00     0.134 A 
HETATM   15  O3  UNL     1      27.534   3.982  49.751  1.00  0.00    -0.344 OA
HETATM   16  C11 UNL     1      27.559   4.783  48.583  1.00  0.00     0.202 C 
HETATM   17  C12 UNL     1      26.696   6.019  48.721  1.00  0.00     0.202 C 
HETATM   18  O4  UNL     1      25.419   5.623  49.253  1.00  0.00    -0.345 OA
HETATM   19  C13 UNL     1      25.294   4.483  50.013  1.00  0.00     0.115 A 
HETATM   20  C14 UNL     1      24.127   4.170  50.521  1.00  0.00     0.038 A 
HETATM   21  C15 UNL     1      22.682   4.372  50.736  1.00  0.00     0.070 C 
HETATM   22  N2  UNL     1      22.588   4.966  51.861  1.00  0.00    -0.242 NA
HETATM   23  C16 UNL     1      23.379   4.428  52.949  1.00  0.00     0.228 C 
HETATM   24  N3  UNL     1      24.131   3.378  52.707  1.00  0.00    -0.266 NA
HETATM   25  C17 UNL     1      24.371   2.930  51.350  1.00  0.00     0.207 A 
HETATM   26  C18 UNL     1      21.638   3.924  49.800  1.00  0.00     0.035 C 
HETATM   27  C19 UNL     1      20.742   3.013  49.459  1.00  0.00     0.044 C 
HETATM   28  H4  UNL     1      21.354  -0.527  55.027  1.00  0.00     0.158 HD
ENDROOT
TORSDOF 0
ENDMDL
MODEL 2
REMARK VINA RESULT:      -8.3      2.274      4.225
REMARK  0 active torsions:
REMARK  status: ('A' for Active; 'I' for Inactive)
ROOT
HETATM    1  F1  UNL     1      22.100   2.300  47.127  1.00  0.00    -0.206 F 
HETATM    2  C1  UNL     1      22.473   2.540  48.384  1.00  0.00     0.116 C 
HETATM    3  C2  UNL     1      21.495   2.352  49.198  1.00  0.00     0.043 C 
HETATM    4  C3  UNL     1      20.894   2.332  50.506  1.00  0.00     0.020 C 
HETATM    5  C4  UNL     1      20.225   2.262  51.608  1.00  0.00     0.083 C 
HETATM    6  N1  UNL     1      18.890   1.846  51.774  1.00  0.00    -0.397 N 
HETATM    7  C5  UNL     1      19.168   0.394  51.811  1.00  0.00     0.145 C 
HETATM    8  C6  UNL     1      19.976   0.133  53.064  1.00  0.00     0.187 C 
HETATM    9  O1  UNL     1      20.326  -1.198  53.225  1.00  0.00    -0.387 OA
HETATM   10  C7  UNL     1      21.048  -1.331  54.397  1.00  0.00     0.194 C 
HETATM   11  C8  UNL     1      22.304  -0.534  54.494  1.00  0.00     0.201 C 
HETATM   12  O2  UNL     1      23.189  -0.884  53.472  1.00  0.00    -0.348 OA
HETATM   13  C9  UNL     1      24.204  -0.032  53.081  1.00  0.00     0.112 A 
HETATM   14  C10 UNL     1      25.505  -0.116  53.223  1.00  0.00     0.134 A 
HETATM   15  O3  UNL     1      26.541  -0.847  53.762  1.00  0.00    -0.344 OA
HETATM   16  C11 UNL     1      27.844  -0.844  53.207  1.00  0.00     0.202 C 
HETATM   17  C12 UNL     1      28.385   0.559  53.030  1.00  0.00     0.202 C 
HETATM   18  O4  UNL     1      27.369   1.360  52.399  1.00  0.00    -0.345 OA
HETATM   19  C13 UNL     1      26.037   1.035  52.520  1.00  0.00     0.115 A 
HETATM   20  C14 UNL     1      25.132   1.807  51.970  1.00  0.00     0.038 A 
HETATM   21  C15 UNL     1      24.692   2.964  51.168  1.00  0.00     0.070 C 
HETATM   22  N2  UNL     1      24.405   3.873  52.016  1.00  0.00    -0.242 NA
HETATM   23  C16 UNL     1      23.599   3.473  53.152  1.00  0.00     0.228 C 
HETATM   24  N3  UNL     1      23.222   2.217  53.231  1.00  0.00    -0.266 NA
HETATM   25  C17 UNL     1      23.802   1.209  52.367  1.00  0.00     0.207 A 
HETATM   26  C18 UNL     1      24.611   2.966  49.699  1.00  0.00     0.035 C 
HETATM   27  C19 UNL     1      23.876   2.826  48.608  1.00  0.00     0.044 C 
HETATM   28  H4  UNL     1      18.094   2.512  51.830  1.00  0.00     0.158 HD
ENDROOT
TORSDOF 0
ENDMDL
MODEL 3
REMARK VINA RESULT:      -8.3      2.461      4.642
REMARK  0 active torsions:
REMARK  status: ('A' for Active; 'I' for Inactive)
ROOT
HETATM    1  F1  UNL     1      22.244  -1.861  53.406  1.00  0.00    -0.206 F 
HETATM    2  C1  UNL     1      22.111  -0.560  53.151  1.00  0.00     0.116 C 
HETATM    3  C2  UNL     1      23.226   0.059  53.323  1.00  0.00     0.043 C 
HETATM    4  C3  UNL     1      24.057   1.234  53.338  1.00  0.00     0.020 C 
HETATM    5  C4  UNL     1      24.921   2.192  53.390  1.00  0.00     0.083 C 
HETATM    6  N1  UNL     1      26.293   2.092  53.690  1.00  0.00    -0.397 N 
HETATM    7  C5  UNL     1      26.737   1.720  52.330  1.00  0.00     0.145 C 
HETATM    8  C6  UNL     1      26.465   2.911  51.436  1.00  0.00     0.187 C 
HETATM    9  O1  UNL     1      26.820   2.699  50.114  1.00  0.00    -0.387 OA
HETATM   10  C7  UNL     1      26.542   3.843  49.389  1.00  0.00     0.194 C 
HETATM   11  C8  UNL     1      25.123   4.300  49.392  1.00  0.00     0.201 C 
HETATM   12  O2  UNL     1      24.288   3.313  48.862  1.00  0.00    -0.348 OA
HETATM   13  C9  UNL     1      22.934   3.299  49.137  1.00  0.00     0.112 A 
HETATM   14  C10 UNL     1      21.895   3.538  48.373  1.00  0.00     0.134 A 
HETATM   15  O3  UNL     1      21.477   3.933  47.121  1.00  0.00    -0.344 OA
HETATM   16  C11 UNL     1      20.231   3.537  46.575  1.00  0.00     0.202 C 
HETATM   17  C12 UNL     1      19.078   3.844  47.506  1.00  0.00     0.202 C 
HETATM   18  O4  UNL     1      19.424   3.384  48.825  1.00  0.00    -0.345 OA
HETATM   19  C13 UNL     1      20.741   3.269  49.209  1.00  0.00     0.115 A 
HETATM   20  C14 UNL     1      21.026   2.888  50.430  1.00  0.00     0.038 A 
HETATM   21  C15 UNL     1      20.677   2.430  51.787  1.00  0.00     0.070 C 
HETATM   22  N2  UNL     1      20.701   3.479  52.514  1.00  0.00    -0.242 NA
HETATM   23  C16 UNL     1      21.843   4.356  52.354  1.00  0.00     0.228 C 
HETATM   24  N3  UNL     1      22.766   4.017  51.482  1.00  0.00    -0.266 NA
HETATM   25  C17 UNL     1      22.534   2.953  50.526  1.00  0.00     0.207 A 
HETATM   26  C18 UNL     1      20.399   1.029  52.139  1.00  0.00     0.035 C 
HETATM   27  C19 UNL     1      20.833  -0.122  52.627  1.00  0.00     0.044 C 
HETATM   28  H4  UNL     1      26.678   2.265  54.641  1.00  0.00     0.158 HD
ENDROOT
TORSDOF 0
ENDMDL
MODEL 4
REMARK VINA RESULT:      -8.1      6.888     11.367
REMARK  0 active torsions:
REMARK  status: ('A' for Active; 'I' for Inactive)
ROOT
HETATM    1  F1  UNL     1      33.756   4.576  43.693  1.00  0.00    -0.206 F 
HETATM    2  C1  UNL     1      33.378   4.904  44.927  1.00  0.00     0.116 C 
HETATM    3  C2  UNL     1      33.816   6.072  45.247  1.00  0.00     0.043 C 
HETATM    4  C3  UNL     1      33.980   7.184  46.147  1.00  0.00     0.020 C 
HETATM    5  C4  UNL     1      34.205   8.250  46.836  1.00  0.00     0.083 C 
HETATM    6  N1  UNL     1      34.891   9.409  46.423  1.00  0.00    -0.397 N 
HETATM    7  C5  UNL     1      33.746  10.050  45.742  1.00  0.00     0.145 C 
HETATM    8  C6  UNL     1      32.726  10.378  46.811  1.00  0.00     0.187 C 
HETATM    9  O1  UNL     1      31.579  10.976  46.312  1.00  0.00    -0.387 OA
HETATM   10  C7  UNL     1      30.722  11.243  47.364  1.00  0.00     0.194 C 
HETATM   11  C8  UNL     1      30.287  10.072  48.177  1.00  0.00     0.201 C 
HETATM   12  O2  UNL     1      29.615   9.143  47.379  1.00  0.00    -0.348 OA
HETATM   13  C9  UNL     1      29.492   7.823  47.767  1.00  0.00     0.112 A 
HETATM   14  C10 UNL     1      28.448   7.129  48.153  1.00  0.00     0.134 A 
HETATM   15  O3  UNL     1      27.103   7.177  48.449  1.00  0.00    -0.344 OA
HETATM   16  C11 UNL     1      26.255   6.050  48.320  1.00  0.00     0.202 C 
HETATM   17  C12 UNL     1      26.793   4.845  49.061  1.00  0.00     0.202 C 
HETATM   18  O4  UNL     1      28.186   4.695  48.733  1.00  0.00    -0.345 OA
HETATM   19  C13 UNL     1      28.937   5.776  48.333  1.00  0.00     0.115 A 
HETATM   20  C14 UNL     1      30.213   5.618  48.081  1.00  0.00     0.038 A 
HETATM   21  C15 UNL     1      31.445   4.817  47.946  1.00  0.00     0.070 C 
HETATM   22  N2  UNL     1      32.068   4.969  49.049  1.00  0.00    -0.242 NA
HETATM   23  C16 UNL     1      32.176   6.322  49.556  1.00  0.00     0.228 C 
HETATM   24  N3  UNL     1      31.632   7.291  48.854  1.00  0.00    -0.266 NA
HETATM   25  C17 UNL     1      30.731   7.001  47.757  1.00  0.00     0.207 A 
HETATM   26  C18 UNL     1      31.805   4.056  46.741  1.00  0.00     0.035 C 
HETATM   27  C19 UNL     1      32.481   3.990  45.604  1.00  0.00     0.044 C 
HETATM   28  H4  UNL     1      35.896   9.575  46.631  1.00  0.00     0.158 HD
ENDROOT
TORSDOF 0
ENDMDL
MODEL 5
REMARK VINA RESULT:      -7.8      2.731      5.107
REMARK  0 active torsions:
REMARK  status: ('A' for Active; 'I' for Inactive)
ROOT
HETATM    1  F1  UNL     1      21.762   3.155  46.277  1.00  0.00    -0.206 F 
HETATM    2  C1  UNL     1      21.821   3.318  47.598  1.00  0.00     0.116 C 
HETATM    3  C2  UNL     1      20.660   3.176  48.132  1.00  0.00     0.043 C 
HETATM    4  C3  UNL     1      19.749   3.151  49.247  1.00  0.00     0.020 C 
HETATM    5  C4  UNL     1      18.821   3.092  50.142  1.00  0.00     0.083 C 
HETATM    6  N1  UNL     1      17.463   2.772  49.948  1.00  0.00    -0.397 N 
HETATM    7  C5  UNL     1      17.630   1.303  49.973  1.00  0.00     0.145 C 
HETATM    8  C6  UNL     1      18.077   0.934  51.371  1.00  0.00     0.187 C 
HETATM    9  O1  UNL     1      18.290  -0.425  51.540  1.00  0.00    -0.387 OA
HETATM   10  C7  UNL     1      18.683  -0.656  52.845  1.00  0.00     0.194 C 
HETATM   11  C8  UNL     1      19.922   0.040  53.296  1.00  0.00     0.201 C 
HETATM   12  O2  UNL     1      21.012  -0.338  52.508  1.00  0.00    -0.348 OA
HETATM   13  C9  UNL     1      22.145   0.449  52.429  1.00  0.00     0.112 A 
HETATM   14  C10 UNL     1      23.360   0.261  52.885  1.00  0.00     0.134 A 
HETATM   15  O3  UNL     1      24.178  -0.567  53.623  1.00  0.00    -0.344 OA
HETATM   16  C11 UNL     1      25.577  -0.642  53.411  1.00  0.00     0.202 C 
HETATM   17  C12 UNL     1      26.232   0.721  53.452  1.00  0.00     0.202 C 
HETATM   18  O4  UNL     1      25.463   1.621  52.633  1.00  0.00    -0.345 OA
HETATM   19  C13 UNL     1      24.125   1.394  52.401  1.00  0.00     0.115 A 
HETATM   20  C14 UNL     1      23.439   2.252  51.687  1.00  0.00     0.038 A 
HETATM   21  C15 UNL     1      23.290   3.468  50.866  1.00  0.00     0.070 C 
HETATM   22  N2  UNL     1      22.858   4.364  51.665  1.00  0.00    -0.242 NA
HETATM   23  C16 UNL     1      21.768   3.984  52.541  1.00  0.00     0.228 C 
HETATM   24  N3  UNL     1      21.303   2.758  52.454  1.00  0.00    -0.266 NA
HETATM   25  C17 UNL     1      22.016   1.742  51.708  1.00  0.00     0.207 A 
HETATM   26  C18 UNL     1      23.582   3.532  49.426  1.00  0.00     0.035 C 
HETATM   27  C19 UNL     1      23.138   3.489  48.180  1.00  0.00     0.044 C 
HETATM   28  H4  UNL     1      16.723   3.495  49.841  1.00  0.00     0.158 HD
ENDROOT
TORSDOF 0
ENDMDL
MODEL 6
REMARK VINA RESULT:      -7.7      3.330      6.183
REMARK  0 active torsions:
REMARK  status: ('A' for Active; 'I' for Inactive)
ROOT
HETATM    1  F1  UNL     1      21.612   6.827  51.477  1.00  0.00    -0.206 F 
HETATM    2  C1  UNL     1      21.538   5.596  50.973  1.00  0.00     0.116 C 
HETATM    3  C2  UNL     1      22.638   4.956  51.157  1.00  0.00     0.043 C 
HETATM    4  C3  UNL     1      23.493   3.803  51.038  1.00  0.00     0.020 C 
HETATM    5  C4  UNL     1      24.365   2.853  51.013  1.00  0.00     0.083 C 
HETATM    6  N1  UNL     1      25.653   2.856  51.583  1.00  0.00    -0.397 N 
HETATM    7  C5  UNL     1      25.234   2.482  52.950  1.00  0.00     0.145 C 
HETATM    8  C6  UNL     1      24.682   1.075  52.872  1.00  0.00     0.187 C 
HETATM    9  O1  UNL     1      24.232   0.592  54.090  1.00  0.00    -0.387 OA
HETATM   10  C7  UNL     1      23.761  -0.696  53.913  1.00  0.00     0.194 C 
HETATM   11  C8  UNL     1      22.646  -0.864  52.937  1.00  0.00     0.201 C 
HETATM   12  O2  UNL     1      21.535  -0.113  53.327  1.00  0.00    -0.348 OA
HETATM   13  C9  UNL     1      20.559   0.245  52.417  1.00  0.00     0.112 A 
HETATM   14  C10 UNL     1      19.314  -0.148  52.285  1.00  0.00     0.134 A 
HETATM   15  O3  UNL     1      18.341  -1.004  52.755  1.00  0.00    -0.344 OA
HETATM   16  C11 UNL     1      16.959  -0.710  52.659  1.00  0.00     0.202 C 
HETATM   17  C12 UNL     1      16.548  -0.362  51.244  1.00  0.00     0.202 C 
HETATM   18  O4  UNL     1      17.489   0.593  50.720  1.00  0.00    -0.345 OA
HETATM   19  C13 UNL     1      18.774   0.657  51.208  1.00  0.00     0.115 A 
HETATM   20  C14 UNL     1      19.622   1.507  50.682  1.00  0.00     0.038 A 
HETATM   21  C15 UNL     1      20.007   2.589  49.757  1.00  0.00     0.070 C 
HETATM   22  N2  UNL     1      20.561   2.006  48.767  1.00  0.00    -0.242 NA
HETATM   23  C16 UNL     1      21.538   0.983  49.077  1.00  0.00     0.228 C 
HETATM   24  N3  UNL     1      21.787   0.728  50.343  1.00  0.00    -0.266 NA
HETATM   25  C17 UNL     1      20.934   1.252  51.390  1.00  0.00     0.207 A 
HETATM   26  C18 UNL     1      19.780   4.019  50.021  1.00  0.00     0.035 C 
HETATM   27  C19 UNL     1      20.252   5.178  50.452  1.00  0.00     0.044 C 
HETATM   28  H4  UNL     1      26.510   3.082  51.039  1.00  0.00     0.158 HD
ENDROOT
TORSDOF 0
ENDMDL
MODEL 7
REMARK VINA RESULT:      -7.6      3.933      6.118
REMARK  0 active torsions:
REMARK  status: ('A' for Active; 'I' for Inactive)
ROOT
HETATM    1  F1  UNL     1      21.163  -0.559  55.111  1.00  0.00    -0.206 F 
HETATM    2  C1  UNL     1      21.164  -0.105  53.858  1.00  0.00     0.116 C 
HETATM    3  C2  UNL     1      20.020  -0.294  53.299  1.00  0.00     0.043 C 
HETATM    4  C3  UNL     1      19.097  -0.219  52.197  1.00  0.00     0.020 C 
HETATM    5  C4  UNL     1      18.165  -0.216  51.305  1.00  0.00     0.083 C 
HETATM    6  N1  UNL     1      16.837  -0.661  51.454  1.00  0.00    -0.397 N 
HETATM    7  C5  UNL     1      16.309   0.579  52.061  1.00  0.00     0.145 C 
HETATM    8  C6  UNL     1      16.401   1.660  51.005  1.00  0.00     0.187 C 
HETATM    9  O1  UNL     1      15.951   2.895  51.441  1.00  0.00    -0.387 OA
HETATM   10  C7  UNL     1      16.067   3.804  50.405  1.00  0.00     0.194 C 
HETATM   11  C8  UNL     1      17.438   4.008  49.855  1.00  0.00     0.201 C 
HETATM   12  O2  UNL     1      18.303   4.468  50.851  1.00  0.00    -0.348 OA
HETATM   13  C9  UNL     1      19.672   4.329  50.728  1.00  0.00     0.112 A 
HETATM   14  C10 UNL     1      20.617   5.218  50.537  1.00  0.00     0.134 A 
HETATM   15  O3  UNL     1      20.890   6.550  50.310  1.00  0.00    -0.344 OA
HETATM   16  C11 UNL     1      22.112   7.153  50.697  1.00  0.00     0.202 C 
HETATM   17  C12 UNL     1      23.312   6.395  50.171  1.00  0.00     0.202 C 
HETATM   18  O4  UNL     1      23.122   4.996  50.446  1.00  0.00    -0.345 OA
HETATM   19  C13 UNL     1      21.858   4.471  50.593  1.00  0.00     0.115 A 
HETATM   20  C14 UNL     1      21.713   3.185  50.801  1.00  0.00     0.038 A 
HETATM   21  C15 UNL     1      22.218   1.817  51.019  1.00  0.00     0.070 C 
HETATM   22  N2  UNL     1      22.169   1.252  49.876  1.00  0.00    -0.242 NA
HETATM   23  C16 UNL     1      20.948   1.425  49.116  1.00  0.00     0.228 C 
HETATM   24  N3  UNL     1      19.983   2.142  49.649  1.00  0.00    -0.266 NA
HETATM   25  C17 UNL     1      20.220   2.951  50.827  1.00  0.00     0.207 A 
HETATM   26  C18 UNL     1      22.642   1.293  52.327  1.00  0.00     0.035 C 
HETATM   27  C19 UNL     1      22.350   0.601  53.417  1.00  0.00     0.044 C 
HETATM   28  H4  UNL     1      16.524  -1.610  51.164  1.00  0.00     0.158 HD
ENDROOT
TORSDOF 0
ENDMDL
MODEL 8
REMARK VINA RESULT:      -7.6      2.952      4.828
REMARK  0 active torsions:
REMARK  status: ('A' for Active; 'I' for Inactive)
ROOT
HETATM    1  F1  UNL     1      26.151   0.740  54.624  1.00  0.00    -0.206 F 
HETATM    2  C1  UNL     1      25.750   1.185  53.434  1.00  0.00     0.116 C 
HETATM    3  C2  UNL     1      24.546   0.809  53.183  1.00  0.00     0.043 C 
HETATM    4  C3  UNL     1      23.366   0.728  52.362  1.00  0.00     0.020 C 
HETATM    5  C4  UNL     1      22.243   0.576  51.744  1.00  0.00     0.083 C 
HETATM    6  N1  UNL     1      21.090  -0.083  52.213  1.00  0.00    -0.397 N 
HETATM    7  C5  UNL     1      20.549   1.055  52.988  1.00  0.00     0.145 C 
HETATM    8  C6  UNL     1      20.187   2.134  51.990  1.00  0.00     0.187 C 
HETATM    9  O1  UNL     1      19.675   3.279  52.579  1.00  0.00    -0.387 OA
HETATM   10  C7  UNL     1      19.369   4.192  51.587  1.00  0.00     0.194 C 
HETATM   11  C8  UNL     1      20.496   4.619  50.709  1.00  0.00     0.201 C 
HETATM   12  O2  UNL     1      21.507   5.217  51.464  1.00  0.00    -0.348 OA
HETATM   13  C9  UNL     1      22.800   5.306  50.985  1.00  0.00     0.112 A 
HETATM   14  C10 UNL     1      23.507   6.339  50.592  1.00  0.00     0.134 A 
HETATM   15  O3  UNL     1      23.494   7.696  50.358  1.00  0.00    -0.344 OA
HETATM   16  C11 UNL     1      24.662   8.494  50.439  1.00  0.00     0.202 C 
HETATM   17  C12 UNL     1      25.787   7.944  49.589  1.00  0.00     0.202 C 
HETATM   18  O4  UNL     1      25.902   6.532  49.846  1.00  0.00    -0.345 OA
HETATM   19  C13 UNL     1      24.822   5.807  50.293  1.00  0.00     0.115 A 
HETATM   20  C14 UNL     1      24.944   4.515  50.478  1.00  0.00     0.038 A 
HETATM   21  C15 UNL     1      25.700   3.249  50.501  1.00  0.00     0.070 C 
HETATM   22  N2  UNL     1      25.443   2.682  49.387  1.00  0.00    -0.242 NA
HETATM   23  C16 UNL     1      24.054   2.650  48.978  1.00  0.00     0.228 C 
HETATM   24  N3  UNL     1      23.162   3.198  49.772  1.00  0.00    -0.266 NA
HETATM   25  C17 UNL     1      23.568   4.037  50.881  1.00  0.00     0.207 A 
HETATM   26  C18 UNL     1      26.531   2.805  51.631  1.00  0.00     0.035 C 
HETATM   27  C19 UNL     1      26.650   2.077  52.730  1.00  0.00     0.044 C 
HETATM   28  H4  UNL     1      20.867  -1.070  51.976  1.00  0.00     0.158 HD
ENDROOT
TORSDOF 0
ENDMDL
MODEL 9
REMARK VINA RESULT:      -7.4      4.036      6.361
REMARK  0 active torsions:
REMARK  status: ('A' for Active; 'I' for Inactive)
ROOT
HETATM    1  F1  UNL     1      23.495   7.997  44.100  1.00  0.00    -0.206 F 
HETATM    2  C1  UNL     1      24.176   8.086  45.242  1.00  0.00     0.116 C 
HETATM    3  C2  UNL     1      23.553   7.491  46.197  1.00  0.00     0.043 C 
HETATM    4  C3  UNL     1      23.397   7.061  47.563  1.00  0.00     0.020 C 
HETATM    5  C4  UNL     1      23.125   6.606  48.739  1.00  0.00     0.083 C 
HETATM    6  N1  UNL     1      22.018   5.822  49.119  1.00  0.00    -0.397 N 
HETATM    7  C5  UNL     1      22.585   4.519  48.709  1.00  0.00     0.145 C 
HETATM    8  C6  UNL     1      23.772   4.253  49.610  1.00  0.00     0.187 C 
HETATM    9  O1  UNL     1      24.419   3.060  49.329  1.00  0.00    -0.387 OA
HETATM   10  C7  UNL     1      25.475   2.907  50.209  1.00  0.00     0.194 C 
HETATM   11  C8  UNL     1      26.510   3.980  50.194  1.00  0.00     0.201 C 
HETATM   12  O2  UNL     1      27.094   4.082  48.929  1.00  0.00    -0.348 OA
HETATM   13  C9  UNL     1      27.744   5.235  48.532  1.00  0.00     0.112 A 
HETATM   14  C10 UNL     1      29.014   5.480  48.319  1.00  0.00     0.134 A 
HETATM   15  O3  UNL     1      30.292   4.967  48.375  1.00  0.00    -0.344 OA
HETATM   16  C11 UNL     1      31.335   5.427  47.533  1.00  0.00     0.202 C 
HETATM   17  C12 UNL     1      31.496   6.930  47.597  1.00  0.00     0.202 C 
HETATM   18  O4  UNL     1      30.196   7.532  47.467  1.00  0.00    -0.345 OA
HETATM   19  C13 UNL     1      29.060   6.843  47.828  1.00  0.00     0.115 A 
HETATM   20  C14 UNL     1      27.893   7.432  47.739  1.00  0.00     0.038 A 
HETATM   21  C15 UNL     1      27.002   8.557  47.399  1.00  0.00     0.070 C 
HETATM   22  N2  UNL     1      26.807   9.178  48.497  1.00  0.00    -0.242 NA
HETATM   23  C16 UNL     1      26.485   8.367  49.654  1.00  0.00     0.228 C 
HETATM   24  N3  UNL     1      26.415   7.064  49.497  1.00  0.00    -0.266 NA
HETATM   25  C17 UNL     1      26.899   6.433  48.286  1.00  0.00     0.207 A 
HETATM   26  C18 UNL     1      26.479   8.816  46.049  1.00  0.00     0.035 C 
HETATM   27  C19 UNL     1      25.491   8.693  45.177  1.00  0.00     0.044 C 
HETATM   28  H4  UNL     1      21.158   6.225  49.541  1.00  0.00     0.158 HD
ENDROOT
TORSDOF 0
ENDMDL
