MODEL 1
REMARK VINA RESULT:      -7.0      0.000      0.000
REMARK  5 active torsions:
REMARK  status: ('A' for Active; 'I' for Inactive)
REMARK    1  A    between atoms: O1_2  and  C2_3 
REMARK    2  A    between atoms: C8_10  and  N2_11 
REMARK    3  A    between atoms: N2_11  and  C9_12 
REMARK    4  A    between atoms: C9_12  and  C11_15 
REMARK    5  A    between atoms: C15_21  and  O2_22 
ROOT
HETATM    1  C9  UNL     1      26.216   1.679  52.749  1.00  0.00     0.213 C 
HETATM    2  C10 UNL     1      26.500   2.405  51.505  1.00  0.00     0.088 C 
HETATM    3  N3  UNL     1      26.729   2.969  50.551  1.00  0.00    -0.195 NA
ENDROOT
BRANCH   1   4
HETATM    4  N2  UNL     1      24.894   1.112  52.735  1.00  0.00    -0.378 N 
HETATM    5  H9  UNL     1      24.116   1.478  52.128  1.00  0.00     0.160 HD
BRANCH   4   6
HETATM    6  C8  UNL     1      24.373   0.038  53.454  1.00  0.00     0.104 C 
HETATM    7  C7  UNL     1      23.249  -0.544  53.766  1.00  0.00     0.026 C 
HETATM    8  C6  UNL     1      22.168  -1.352  54.241  1.00  0.00     0.040 C 
HETATM    9  C14 UNL     1      22.517   0.411  53.187  1.00  0.00    -0.112 C 
HETATM   10  C5  UNL     1      20.852  -1.567  54.274  1.00  0.00     0.117 C 
HETATM   11  N1  UNL     1      20.396  -0.538  53.508  1.00  0.00    -0.273 NA
HETATM   12  C4  UNL     1      19.375  -0.340  52.861  1.00  0.00     0.118 C 
HETATM   13  C3  UNL     1      18.943   0.825  52.036  1.00  0.00     0.054 C 
HETATM   14  C2  UNL     1      19.324   2.047  51.588  1.00  0.00     0.081 C 
HETATM   15  C15 UNL     1      20.326   3.101  51.533  1.00  0.00     0.213 C 
HETATM   16  P1  UNL     1      21.739   1.392  52.586  1.00  0.00    -0.017 P 
HETATM   17  H15 UNL     1      21.478   1.733  52.375  1.00  0.00     0.073 HD
BRANCH  14  18
HETATM   18  O1  UNL     1      18.660   2.944  50.792  1.00  0.00    -0.357 OA
HETATM   19  C1  UNL     1      17.752   3.924  51.217  1.00  0.00     0.209 C 
ENDBRANCH  14  18
BRANCH  15  20
HETATM   20  O2  UNL     1      21.210   3.174  50.535  1.00  0.00    -0.379 OA
HETATM   21  C16 UNL     1      21.697   4.423  50.232  1.00  0.00     0.203 C 
ENDBRANCH  15  20
ENDBRANCH   4   6
ENDBRANCH   1   4
BRANCH   1  22
HETATM   22  C11 UNL     1      27.300   0.682  52.956  1.00  0.00     0.027 C 
HETATM   23  C12 UNL     1      28.502   0.896  53.508  1.00  0.00    -0.016 C 
HETATM   24  C13 UNL     1      29.179   2.078  54.076  1.00  0.00     0.056 C 
HETATM   25 BR1  UNL     1      29.740  -0.574  53.668  1.00  0.00    -0.056 Br
ENDBRANCH   1  22
TORSDOF 5
ENDMDL
MODEL 2
REMARK VINA RESULT:      -7.0      3.016      4.768
REMARK  5 active torsions:
REMARK  status: ('A' for Active; 'I' for Inactive)
REMARK    1  A    between atoms: O1_2  and  C2_3 
REMARK    2  A    between atoms: C8_10  and  N2_11 
REMARK    3  A    between atoms: N2_11  and  C9_12 
REMARK    4  A    between atoms: C9_12  and  C11_15 
REMARK    5  A    between atoms: C15_21  and  O2_22 
ROOT
HETATM    1  C9  UNL     1      26.031   4.011  49.499  1.00  0.00     0.213 C 
HETATM    2  C10 UNL     1      27.296   4.526  48.960  1.00  0.00     0.088 C 
HETATM    3  N3  UNL     1      28.266   4.923  48.534  1.00  0.00    -0.195 NA
ENDROOT
BRANCH   1   4
HETATM    4  N2  UNL     1      26.169   3.620  50.876  1.00  0.00    -0.378 N 
HETATM    5  H9  UNL     1      25.792   4.189  51.678  1.00  0.00     0.160 HD
BRANCH   4   6
HETATM    6  C8  UNL     1      26.776   2.495  51.431  1.00  0.00     0.104 C 
HETATM    7  C7  UNL     1      26.510   1.390  52.068  1.00  0.00     0.026 C 
HETATM    8  C6  UNL     1      26.478   0.137  52.760  1.00  0.00     0.040 C 
HETATM    9  C14 UNL     1      25.217   1.698  52.197  1.00  0.00    -0.112 C 
HETATM   10  C5  UNL     1      25.743  -0.801  53.358  1.00  0.00     0.117 C 
HETATM   11  N1  UNL     1      24.491  -0.285  53.218  1.00  0.00    -0.273 NA
HETATM   12  C4  UNL     1      23.364  -0.764  53.220  1.00  0.00     0.118 C 
HETATM   13  C3  UNL     1      22.024  -0.129  53.057  1.00  0.00     0.054 C 
HETATM   14  C2  UNL     1      21.395   1.052  52.836  1.00  0.00     0.081 C 
HETATM   15  C15 UNL     1      21.477   2.486  52.600  1.00  0.00     0.213 C 
HETATM   16  P1  UNL     1      23.868   1.997  52.336  1.00  0.00    -0.017 P 
HETATM   17  H15 UNL     1      23.404   2.107  52.378  1.00  0.00     0.073 HD
BRANCH  14  18
HETATM   18  O1  UNL     1      20.058   1.338  52.734  1.00  0.00    -0.357 OA
HETATM   19  C1  UNL     1      19.075   0.530  52.145  1.00  0.00     0.209 C 
ENDBRANCH  14  18
BRANCH  15  20
HETATM   20  O2  UNL     1      21.474   2.992  51.364  1.00  0.00    -0.379 OA
HETATM   21  C16 UNL     1      20.865   4.213  51.199  1.00  0.00     0.203 C 
ENDBRANCH  15  20
ENDBRANCH   4   6
ENDBRANCH   1   4
BRANCH   1  22
HETATM   22  C11 UNL     1      24.981   5.038  49.263  1.00  0.00     0.027 C 
HETATM   23  C12 UNL     1      23.756   4.842  48.759  1.00  0.00    -0.016 C 
HETATM   24  C13 UNL     1      23.018   3.659  48.277  1.00  0.00     0.056 C 
HETATM   25 BR1  UNL     1      22.569   6.348  48.555  1.00  0.00    -0.056 Br
ENDBRANCH   1  22
TORSDOF 5
ENDMDL
MODEL 3
REMARK VINA RESULT:      -7.0      3.939      7.846
REMARK  5 active torsions:
REMARK  status: ('A' for Active; 'I' for Inactive)
REMARK    1  A    between atoms: O1_2  and  C2_3 
REMARK    2  A    between atoms: C8_10  and  N2_11 
REMARK    3  A    between atoms: N2_11  and  C9_12 
REMARK    4  A    between atoms: C9_12  and  C11_15 
REMARK    5  A    between atoms: C15_21  and  O2_22 
ROOT
HETATM    1  C9  UNL     1      20.669   0.020  53.075  1.00  0.00     0.213 C 
HETATM    2  C10 UNL     1      21.232  -0.718  54.213  1.00  0.00     0.088 C 
HETATM    3  N3  UNL     1      21.658  -1.282  55.097  1.00  0.00    -0.195 NA
ENDROOT
BRANCH   1   4
HETATM    4  N2  UNL     1      21.545  -0.024  51.936  1.00  0.00    -0.378 N 
HETATM    5  H9  UNL     1      22.160  -0.848  51.712  1.00  0.00     0.160 HD
BRANCH   4   6
HETATM    6  C8  UNL     1      21.771   0.927  50.943  1.00  0.00     0.104 C 
HETATM    7  C7  UNL     1      22.671   1.760  50.500  1.00  0.00     0.026 C 
HETATM    8  C6  UNL     1      23.479   2.734  49.831  1.00  0.00     0.040 C 
HETATM    9  C14 UNL     1      23.495   1.517  51.523  1.00  0.00    -0.112 C 
HETATM   10  C5  UNL     1      24.642   3.382  49.771  1.00  0.00     0.117 C 
HETATM   11  N1  UNL     1      25.303   2.842  50.831  1.00  0.00    -0.273 NA
HETATM   12  C4  UNL     1      26.484   2.724  51.133  1.00  0.00     0.118 C 
HETATM   13  C3  UNL     1      27.139   2.111  52.324  1.00  0.00     0.054 C 
HETATM   14  C2  UNL     1      26.897   1.454  53.486  1.00  0.00     0.081 C 
HETATM   15  C15 UNL     1      25.941   0.871  54.416  1.00  0.00     0.213 C 
HETATM   16  P1  UNL     1      24.368   1.274  52.575  1.00  0.00    -0.017 P 
HETATM   17  H15 UNL     1      24.664   1.183  52.940  1.00  0.00     0.073 HD
BRANCH  14  18
HETATM   18  O1  UNL     1      27.767   0.991  54.439  1.00  0.00    -0.357 OA
HETATM   19  C1  UNL     1      29.106   0.625  54.239  1.00  0.00     0.209 C 
ENDBRANCH  14  18
BRANCH  15  20
HETATM   20  O2  UNL     1      25.619  -0.424  54.368  1.00  0.00    -0.379 OA
HETATM   21  C16 UNL     1      25.181  -0.995  55.539  1.00  0.00     0.203 C 
ENDBRANCH  15  20
ENDBRANCH   4   6
ENDBRANCH   1   4
BRANCH   1  22
HETATM   22  C11 UNL     1      19.306  -0.517  52.811  1.00  0.00     0.027 C 
HETATM   23  C12 UNL     1      18.326   0.071  52.112  1.00  0.00    -0.016 C 
HETATM   24  C13 UNL     1      18.200   1.353  51.394  1.00  0.00     0.056 C 
HETATM   25 BR1  UNL     1      16.639  -0.840  51.908  1.00  0.00    -0.056 Br
ENDBRANCH   1  22
TORSDOF 5
ENDMDL
MODEL 4
REMARK VINA RESULT:      -6.7      2.457      3.975
REMARK  5 active torsions:
REMARK  status: ('A' for Active; 'I' for Inactive)
REMARK    1  A    between atoms: O1_2  and  C2_3 
REMARK    2  A    between atoms: C8_10  and  N2_11 
REMARK    3  A    between atoms: N2_11  and  C9_12 
REMARK    4  A    between atoms: C9_12  and  C11_15 
REMARK    5  A    between atoms: C15_21  and  O2_22 
ROOT
HETATM    1  C9  UNL     1      26.466   1.768  53.453  1.00  0.00     0.213 C 
HETATM    2  C10 UNL     1      27.815   2.325  53.287  1.00  0.00     0.088 C 
HETATM    3  N3  UNL     1      28.858   2.747  53.166  1.00  0.00    -0.195 NA
ENDROOT
BRANCH   1   4
HETATM    4  N2  UNL     1      25.474   2.601  52.830  1.00  0.00    -0.378 N 
HETATM    5  H9  UNL     1      24.634   2.977  53.340  1.00  0.00     0.160 HD
BRANCH   4   6
HETATM    6  C8  UNL     1      25.394   3.071  51.521  1.00  0.00     0.104 C 
HETATM    7  C7  UNL     1      24.615   3.078  50.475  1.00  0.00     0.026 C 
HETATM    8  C6  UNL     1      23.951   3.229  49.216  1.00  0.00     0.040 C 
HETATM    9  C14 UNL     1      23.741   2.240  51.038  1.00  0.00    -0.112 C 
HETATM   10  C5  UNL     1      22.879   2.965  48.469  1.00  0.00     0.117 C 
HETATM   11  N1  UNL     1      22.129   2.229  49.334  1.00  0.00    -0.273 NA
HETATM   12  C4  UNL     1      20.935   1.973  49.426  1.00  0.00     0.118 C 
HETATM   13  C3  UNL     1      20.177   1.151  50.414  1.00  0.00     0.054 C 
HETATM   14  C2  UNL     1      20.306   0.401  51.537  1.00  0.00     0.081 C 
HETATM   15  C15 UNL     1      21.157  -0.151  52.580  1.00  0.00     0.213 C 
HETATM   16  P1  UNL     1      22.817   1.374  51.608  1.00  0.00    -0.017 P 
HETATM   17  H15 UNL     1      22.502   1.077  51.813  1.00  0.00     0.073 HD
BRANCH  14  18
HETATM   18  O1  UNL     1      19.360  -0.279  52.260  1.00  0.00    -0.357 OA
HETATM   19  C1  UNL     1      18.002  -0.417  51.937  1.00  0.00     0.209 C 
ENDBRANCH  14  18
BRANCH  15  20
HETATM   20  O2  UNL     1      21.318   0.468  53.752  1.00  0.00    -0.379 OA
HETATM   21  C16 UNL     1      21.595  -0.329  54.838  1.00  0.00     0.203 C 
ENDBRANCH  15  20
ENDBRANCH   4   6
ENDBRANCH   1   4
BRANCH   1  22
HETATM   22  C11 UNL     1      26.484   0.368  52.951  1.00  0.00     0.027 C 
HETATM   23  C12 UNL     1      27.390  -0.580  53.227  1.00  0.00    -0.016 C 
HETATM   24  C13 UNL     1      28.613  -0.627  54.051  1.00  0.00     0.056 C 
HETATM   25 BR1  UNL     1      27.187  -2.333  52.449  1.00  0.00    -0.056 Br
ENDBRANCH   1  22
TORSDOF 5
ENDMDL
MODEL 5
REMARK VINA RESULT:      -6.6      3.229      4.946
REMARK  5 active torsions:
REMARK  status: ('A' for Active; 'I' for Inactive)
REMARK    1  A    between atoms: O1_2  and  C2_3 
REMARK    2  A    between atoms: C8_10  and  N2_11 
REMARK    3  A    between atoms: N2_11  and  C9_12 
REMARK    4  A    between atoms: C9_12  and  C11_15 
REMARK    5  A    between atoms: C15_21  and  O2_22 
ROOT
HETATM    1  C9  UNL     1      25.633   4.305  49.898  1.00  0.00     0.213 C 
HETATM    2  C10 UNL     1      24.347   4.325  49.190  1.00  0.00     0.088 C 
HETATM    3  N3  UNL     1      23.356   4.352  48.645  1.00  0.00    -0.195 NA
ENDROOT
BRANCH   1   4
HETATM    4  N2  UNL     1      26.015   2.965  50.255  1.00  0.00    -0.378 N 
HETATM    5  H9  UNL     1      25.728   2.117  49.702  1.00  0.00     0.160 HD
BRANCH   4   6
HETATM    6  C8  UNL     1      26.787   2.508  51.321  1.00  0.00     0.104 C 
HETATM    7  C7  UNL     1      26.730   1.765  52.391  1.00  0.00     0.026 C 
HETATM    8  C6  UNL     1      26.920   1.015  53.594  1.00  0.00     0.040 C 
HETATM    9  C14 UNL     1      25.413   1.575  52.268  1.00  0.00    -0.112 C 
HETATM   10  C5  UNL     1      26.388   0.212  54.517  1.00  0.00     0.117 C 
HETATM   11  N1  UNL     1      25.111   0.096  54.063  1.00  0.00    -0.273 NA
HETATM   12  C4  UNL     1      24.220  -0.730  54.218  1.00  0.00     0.118 C 
HETATM   13  C3  UNL     1      22.829  -0.792  53.681  1.00  0.00     0.054 C 
HETATM   14  C2  UNL     1      21.940  -0.155  52.878  1.00  0.00     0.081 C 
HETATM   15  C15 UNL     1      21.631   0.955  51.990  1.00  0.00     0.213 C 
HETATM   16  P1  UNL     1      24.046   1.361  52.154  1.00  0.00    -0.017 P 
HETATM   17  H15 UNL     1      23.575   1.291  52.107  1.00  0.00     0.073 HD
BRANCH  14  18
HETATM   18  O1  UNL     1      20.646  -0.477  52.562  1.00  0.00    -0.357 OA
HETATM   19  C1  UNL     1      19.574  -0.602  53.458  1.00  0.00     0.209 C 
ENDBRANCH  14  18
BRANCH  15  20
HETATM   20  O2  UNL     1      21.769   0.851  50.666  1.00  0.00    -0.379 OA
HETATM   21  C16 UNL     1      20.960   1.653  49.896  1.00  0.00     0.203 C 
ENDBRANCH  15  20
ENDBRANCH   4   6
ENDBRANCH   1   4
BRANCH   1  22
HETATM   22  C11 UNL     1      26.632   5.014  49.054  1.00  0.00     0.027 C 
HETATM   23  C12 UNL     1      26.815   6.338  48.956  1.00  0.00    -0.016 C 
HETATM   24  C13 UNL     1      26.174   7.514  49.572  1.00  0.00     0.056 C 
HETATM   25 BR1  UNL     1      28.190   7.015  47.785  1.00  0.00    -0.056 Br
ENDBRANCH   1  22
TORSDOF 5
ENDMDL
MODEL 6
REMARK VINA RESULT:      -6.5      3.388      5.957
REMARK  5 active torsions:
REMARK  status: ('A' for Active; 'I' for Inactive)
REMARK    1  A    between atoms: O1_2  and  C2_3 
REMARK    2  A    between atoms: C8_10  and  N2_11 
REMARK    3  A    between atoms: N2_11  and  C9_12 
REMARK    4  A    between atoms: C9_12  and  C11_15 
REMARK    5  A    between atoms: C15_21  and  O2_22 
ROOT
HETATM    1  C9  UNL     1      24.679   4.493  49.135  1.00  0.00     0.213 C 
HETATM    2  C10 UNL     1      25.169   5.716  49.785  1.00  0.00     0.088 C 
HETATM    3  N3  UNL     1      25.541   6.664  50.277  1.00  0.00    -0.195 NA
ENDROOT
BRANCH   1   4
HETATM    4  N2  UNL     1      25.298   3.320  49.692  1.00  0.00    -0.378 N 
HETATM    5  H9  UNL     1      24.936   2.345  49.529  1.00  0.00     0.160 HD
BRANCH   4   6
HETATM    6  C8  UNL     1      26.423   3.202  50.505  1.00  0.00     0.104 C 
HETATM    7  C7  UNL     1      26.863   2.597  51.573  1.00  0.00     0.026 C 
HETATM    8  C6  UNL     1      27.570   2.064  52.697  1.00  0.00     0.040 C 
HETATM    9  C14 UNL     1      25.669   2.064  51.844  1.00  0.00    -0.112 C 
HETATM   10  C5  UNL     1      27.550   1.264  53.764  1.00  0.00     0.117 C 
HETATM   11  N1  UNL     1      26.281   0.774  53.704  1.00  0.00    -0.273 NA
HETATM   12  C4  UNL     1      25.730  -0.229  54.142  1.00  0.00     0.118 C 
HETATM   13  C3  UNL     1      24.321  -0.705  54.032  1.00  0.00     0.054 C 
HETATM   14  C2  UNL     1      23.109  -0.414  53.498  1.00  0.00     0.081 C 
HETATM   15  C15 UNL     1      22.277   0.471  52.696  1.00  0.00     0.213 C 
HETATM   16  P1  UNL     1      24.436   1.496  52.139  1.00  0.00    -0.017 P 
HETATM   17  H15 UNL     1      24.008   1.303  52.233  1.00  0.00     0.073 HD
BRANCH  14  18
HETATM   18  O1  UNL     1      21.919  -1.090  53.582  1.00  0.00    -0.357 OA
HETATM   19  C1  UNL     1      20.907  -0.883  54.531  1.00  0.00     0.209 C 
ENDBRANCH  14  18
BRANCH  15  20
HETATM   20  O2  UNL     1      22.078   0.253  51.394  1.00  0.00    -0.379 OA
HETATM   21  C16 UNL     1      20.841   0.584  50.894  1.00  0.00     0.203 C 
ENDBRANCH  15  20
ENDBRANCH   4   6
ENDBRANCH   1   4
BRANCH   1  22
HETATM   22  C11 UNL     1      23.194   4.493  49.220  1.00  0.00     0.027 C 
HETATM   23  C12 UNL     1      22.353   3.597  48.686  1.00  0.00    -0.016 C 
HETATM   24  C13 UNL     1      22.527   2.375  47.879  1.00  0.00     0.056 C 
HETATM   25 BR1  UNL     1      20.455   3.817  48.945  1.00  0.00    -0.056 Br
ENDBRANCH   1  22
TORSDOF 5
ENDMDL
MODEL 7
REMARK VINA RESULT:      -6.4      3.675      7.750
REMARK  5 active torsions:
REMARK  status: ('A' for Active; 'I' for Inactive)
REMARK    1  A    between atoms: O1_2  and  C2_3 
REMARK    2  A    between atoms: C8_10  and  N2_11 
REMARK    3  A    between atoms: N2_11  and  C9_12 
REMARK    4  A    between atoms: C9_12  and  C11_15 
REMARK    5  A    between atoms: C15_21  and  O2_22 
ROOT
HETATM    1  C9  UNL     1      19.467   1.332  50.852  1.00  0.00     0.213 C 
HETATM    2  C10 UNL     1      19.153   2.616  51.493  1.00  0.00     0.088 C 
HETATM    3  N3  UNL     1      18.901   3.601  51.989  1.00  0.00    -0.195 NA
ENDROOT
BRANCH   1   4
HETATM    4  N2  UNL     1      20.799   1.328  50.312  1.00  0.00    -0.378 N 
HETATM    5  H9  UNL     1      21.459   0.513  50.410  1.00  0.00     0.160 HD
BRANCH   4   6
HETATM    6  C8  UNL     1      21.477   2.310  49.592  1.00  0.00     0.104 C 
HETATM    7  C7  UNL     1      22.645   2.878  49.472  1.00  0.00     0.026 C 
HETATM    8  C6  UNL     1      23.810   3.644  49.153  1.00  0.00     0.040 C 
HETATM    9  C14 UNL     1      23.145   2.223  50.523  1.00  0.00    -0.112 C 
HETATM   10  C5  UNL     1      25.097   3.894  49.399  1.00  0.00     0.117 C 
HETATM   11  N1  UNL     1      25.353   3.005  50.398  1.00  0.00    -0.273 NA
HETATM   12  C4  UNL     1      26.368   2.473  50.830  1.00  0.00     0.118 C 
HETATM   13  C3  UNL     1      26.572   1.497  51.939  1.00  0.00     0.054 C 
HETATM   14  C2  UNL     1      25.927   0.767  52.884  1.00  0.00     0.081 C 
HETATM   15  C15 UNL     1      24.680   0.370  53.520  1.00  0.00     0.213 C 
HETATM   16  P1  UNL     1      23.685   1.546  51.609  1.00  0.00    -0.017 P 
HETATM   17  H15 UNL     1      23.865   1.307  51.984  1.00  0.00     0.073 HD
BRANCH  14  18
HETATM   18  O1  UNL     1      26.423  -0.097  53.825  1.00  0.00    -0.357 OA
HETATM   19  C1  UNL     1      26.624   0.177  55.186  1.00  0.00     0.209 C 
ENDBRANCH  14  18
BRANCH  15  20
HETATM   20  O2  UNL     1      24.024  -0.731  53.146  1.00  0.00    -0.379 OA
HETATM   21  C16 UNL     1      22.885  -1.041  53.851  1.00  0.00     0.203 C 
ENDBRANCH  15  20
ENDBRANCH   4   6
ENDBRANCH   1   4
BRANCH   1  22
HETATM   22  C11 UNL     1      19.211   0.252  51.842  1.00  0.00     0.027 C 
HETATM   23  C12 UNL     1      18.083  -0.454  51.996  1.00  0.00    -0.016 C 
HETATM   24  C13 UNL     1      16.768  -0.453  51.326  1.00  0.00     0.056 C 
HETATM   25 BR1  UNL     1      18.002  -1.816  53.358  1.00  0.00    -0.056 Br
ENDBRANCH   1  22
TORSDOF 5
ENDMDL
MODEL 8
REMARK VINA RESULT:      -6.4      1.995      2.445
REMARK  5 active torsions:
REMARK  status: ('A' for Active; 'I' for Inactive)
REMARK    1  A    between atoms: O1_2  and  C2_3 
REMARK    2  A    between atoms: C8_10  and  N2_11 
REMARK    3  A    between atoms: N2_11  and  C9_12 
REMARK    4  A    between atoms: C9_12  and  C11_15 
REMARK    5  A    between atoms: C15_21  and  O2_22 
ROOT
HETATM    1  C9  UNL     1      26.024   0.408  52.507  1.00  0.00     0.213 C 
HETATM    2  C10 UNL     1      26.714   0.796  53.745  1.00  0.00     0.088 C 
HETATM    3  N3  UNL     1      27.255   1.094  54.693  1.00  0.00    -0.195 NA
ENDROOT
BRANCH   1   4
HETATM    4  N2  UNL     1      24.603   0.314  52.707  1.00  0.00    -0.378 N 
HETATM    5  H9  UNL     1      23.907   0.905  52.184  1.00  0.00     0.160 HD
BRANCH   4   6
HETATM    6  C8  UNL     1      23.872  -0.510  53.559  1.00  0.00     0.104 C 
HETATM    7  C7  UNL     1      22.655  -0.892  53.829  1.00  0.00     0.026 C 
HETATM    8  C6  UNL     1      21.432  -1.458  54.312  1.00  0.00     0.040 C 
HETATM    9  C14 UNL     1      22.120  -0.026  52.964  1.00  0.00    -0.112 C 
HETATM   10  C5  UNL     1      20.105  -1.528  54.207  1.00  0.00     0.117 C 
HETATM   11  N1  UNL     1      19.873  -0.662  53.184  1.00  0.00    -0.273 NA
HETATM   12  C4  UNL     1      18.966  -0.517  52.374  1.00  0.00     0.118 C 
HETATM   13  C3  UNL     1      18.781   0.465  51.267  1.00  0.00     0.054 C 
HETATM   14  C2  UNL     1      19.363   1.509  50.625  1.00  0.00     0.081 C 
HETATM   15  C15 UNL     1      20.491   2.418  50.485  1.00  0.00     0.213 C 
HETATM   16  P1  UNL     1      21.547   0.863  52.065  1.00  0.00    -0.017 P 
HETATM   17  H15 UNL     1      21.356   1.172  51.752  1.00  0.00     0.073 HD
BRANCH  14  18
HETATM   18  O1  UNL     1      18.914   2.262  49.571  1.00  0.00    -0.357 OA
HETATM   19  C1  UNL     1      18.334   3.537  49.644  1.00  0.00     0.209 C 
ENDBRANCH  14  18
BRANCH  15  20
HETATM   20  O2  UNL     1      21.484   2.172  49.627  1.00  0.00    -0.379 OA
HETATM   21  C16 UNL     1      22.120   3.267  49.090  1.00  0.00     0.203 C 
ENDBRANCH  15  20
ENDBRANCH   4   6
ENDBRANCH   1   4
BRANCH   1  22
HETATM   22  C11 UNL     1      26.424   1.365  51.441  1.00  0.00     0.027 C 
HETATM   23  C12 UNL     1      25.847   2.538  51.148  1.00  0.00    -0.016 C 
HETATM   24  C13 UNL     1      24.701   3.287  51.697  1.00  0.00     0.056 C 
HETATM   25 BR1  UNL     1      26.562   3.607  49.711  1.00  0.00    -0.056 Br
ENDBRANCH   1  22
TORSDOF 5
ENDMDL
MODEL 9
REMARK VINA RESULT:      -6.3      2.650      5.027
REMARK  5 active torsions:
REMARK  status: ('A' for Active; 'I' for Inactive)
REMARK    1  A    between atoms: O1_2  and  C2_3 
REMARK    2  A    between atoms: C8_10  and  N2_11 
REMARK    3  A    between atoms: N2_11  and  C9_12 
REMARK    4  A    between atoms: C9_12  and  C11_15 
REMARK    5  A    between atoms: C15_21  and  O2_22 
ROOT
HETATM    1  C9  UNL     1      23.429  -0.639  53.392  1.00  0.00     0.213 C 
HETATM    2  C10 UNL     1      22.547  -1.293  54.367  1.00  0.00     0.088 C 
HETATM    3  N3  UNL     1      21.875  -1.805  55.119  1.00  0.00    -0.195 NA
ENDROOT
BRANCH   1   4
HETATM    4  N2  UNL     1      22.846   0.575  52.889  1.00  0.00    -0.378 N 
HETATM    5  H9  UNL     1      23.404   1.327  52.408  1.00  0.00     0.160 HD
BRANCH   4   6
HETATM    6  C8  UNL     1      21.522   1.009  52.912  1.00  0.00     0.104 C 
HETATM    7  C7  UNL     1      20.727   1.917  52.419  1.00  0.00     0.026 C 
HETATM    8  C6  UNL     1      19.669   2.794  52.020  1.00  0.00     0.040 C 
HETATM    9  C14 UNL     1      21.730   2.565  51.820  1.00  0.00    -0.112 C 
HETATM   10  C5  UNL     1      19.293   3.851  51.300  1.00  0.00     0.117 C 
HETATM   11  N1  UNL     1      20.470   4.205  50.714  1.00  0.00    -0.273 NA
HETATM   12  C4  UNL     1      20.768   4.834  49.707  1.00  0.00     0.118 C 
HETATM   13  C3  UNL     1      22.095   5.183  49.121  1.00  0.00     0.054 C 
HETATM   14  C2  UNL     1      23.434   5.033  49.283  1.00  0.00     0.081 C 
HETATM   15  C15 UNL     1      24.546   4.486  50.044  1.00  0.00     0.213 C 
HETATM   16  P1  UNL     1      22.759   3.248  51.185  1.00  0.00    -0.017 P 
HETATM   17  H15 UNL     1      23.119   3.478  50.967  1.00  0.00     0.073 HD
BRANCH  14  18
HETATM   18  O1  UNL     1      24.475   5.508  48.529  1.00  0.00    -0.357 OA
HETATM   19  C1  UNL     1      25.093   6.761  48.654  1.00  0.00     0.209 C 
ENDBRANCH  14  18
BRANCH  15  20
HETATM   20  O2  UNL     1      25.107   3.318  49.720  1.00  0.00    -0.379 OA
HETATM   21  C16 UNL     1      26.479   3.254  49.782  1.00  0.00     0.203 C 
ENDBRANCH  15  20
ENDBRANCH   4   6
ENDBRANCH   1   4
BRANCH   1  22
HETATM   22  C11 UNL     1      24.760  -0.453  54.030  1.00  0.00     0.027 C 
HETATM   23  C12 UNL     1      25.897  -0.069  53.435  1.00  0.00    -0.016 C 
HETATM   24  C13 UNL     1      26.265   0.289  52.052  1.00  0.00     0.056 C 
HETATM   25 BR1  UNL     1      27.501   0.106  54.491  1.00  0.00    -0.056 Br
ENDBRANCH   1  22
TORSDOF 5
ENDMDL
