MODEL 1
REMARK VINA RESULT:      -7.7      0.000      0.000
REMARK  7 active torsions:
REMARK  status: ('A' for Active; 'I' for Inactive)
REMARK    1  A    between atoms: C2_2  and  C3_3 
REMARK    2  A    between atoms: C3_3  and  C4_4 
REMARK    3  A    between atoms: C4_4  and  N1_5 
REMARK    4  A    between atoms: N1_5  and  C5_6 
REMARK       I    between atoms: N1_5  and  C11_16 
REMARK    5  A    between atoms: C5_6  and  C6_7 
REMARK    6  A    between atoms: C10_14  and  O1_15 
REMARK       I    between atoms: C11_16  and  N2_18 
REMARK    7  A    between atoms: N2_18  and  C12_19 
ROOT
HETATM    1  N1  UNL     1      23.804   0.950  52.626  1.00  0.00    -0.333 N 
HETATM    2  C11 UNL     1      24.878   0.126  53.035  1.00  0.00     0.322 C 
HETATM    3  O2  UNL     1      24.626  -0.632  53.990  1.00  0.00    -0.247 OA
HETATM    4  N2  UNL     1      26.171   0.102  52.456  1.00  0.00    -0.309 N 
HETATM    5  H16 UNL     1      26.233   0.785  51.673  1.00  0.00     0.170 HD
ENDROOT
BRANCH   1   6
HETATM    6  C4  UNL     1      22.603   0.756  53.405  1.00  0.00     0.127 C 
BRANCH   6   7
HETATM    7  C3  UNL     1      21.511   0.090  52.565  1.00  0.00     0.020 C 
BRANCH   7   8
HETATM    8  C2  UNL     1      20.536  -0.598  53.504  1.00  0.00    -0.003 C 
HETATM    9  C1  UNL     1      21.238  -1.529  54.448  1.00  0.00     0.005 C 
ENDBRANCH   7   8
ENDBRANCH   6   7
ENDBRANCH   1   6
BRANCH   1  10
HETATM   10  C5  UNL     1      23.870   1.894  51.538  1.00  0.00     0.143 C 
BRANCH  10  11
HETATM   11  C6  UNL     1      24.576   3.170  51.866  1.00  0.00     0.093 A 
HETATM   12  P1  UNL     1      23.418   4.619  51.969  1.00  0.00    -0.070 P 
HETATM   13  C7  UNL     1      24.012   5.826  50.727  1.00  0.00     0.037 A 
HETATM   14  H13 UNL     1      23.405   5.148  53.307  1.00  0.00     0.064 HD
HETATM   15 CL1  UNL     1      22.974   7.233  50.753  1.00  0.00    -0.084 Cl
HETATM   16  C8  UNL     1      25.040   5.717  49.919  1.00  0.00     0.050 A 
HETATM   17  C9  UNL     1      25.826   4.493  49.996  1.00  0.00     0.065 A 
HETATM   18 CL2  UNL     1      27.194   4.366  48.909  1.00  0.00    -0.082 Cl
HETATM   19  C10 UNL     1      25.581   3.485  50.818  1.00  0.00     0.075 A 
BRANCH  19  20
HETATM   20  O1  UNL     1      26.430   2.362  50.781  1.00  0.00    -0.362 OA
HETATM   21  H15 UNL     1      26.422   1.651  51.486  1.00  0.00     0.217 HD
ENDBRANCH  19  20
ENDBRANCH  10  11
ENDBRANCH   1  10
BRANCH   4  22
HETATM   22  C12 UNL     1      27.304  -0.678  52.789  1.00  0.00     0.036 A 
HETATM   23  C13 UNL     1      28.394  -0.069  53.327  1.00  0.00     0.029 A 
HETATM   24  C14 UNL     1      29.524  -0.743  53.676  1.00  0.00     0.002 A 
HETATM   25  C15 UNL     1      29.626  -2.088  53.502  1.00  0.00     0.000 A 
HETATM   26  C16 UNL     1      28.546  -2.752  52.960  1.00  0.00     0.002 A 
HETATM   27  C17 UNL     1      27.438  -2.036  52.626  1.00  0.00     0.029 A 
ENDBRANCH   4  22
TORSDOF 7
ENDMDL
MODEL 2
REMARK VINA RESULT:      -7.4      2.976      5.482
REMARK  7 active torsions:
REMARK  status: ('A' for Active; 'I' for Inactive)
REMARK    1  A    between atoms: C2_2  and  C3_3 
REMARK    2  A    between atoms: C3_3  and  C4_4 
REMARK    3  A    between atoms: C4_4  and  N1_5 
REMARK    4  A    between atoms: N1_5  and  C5_6 
REMARK       I    between atoms: N1_5  and  C11_16 
REMARK    5  A    between atoms: C5_6  and  C6_7 
REMARK    6  A    between atoms: C10_14  and  O1_15 
REMARK       I    between atoms: C11_16  and  N2_18 
REMARK    7  A    between atoms: N2_18  and  C12_19 
ROOT
HETATM    1  N1  UNL     1      24.673   2.525  51.091  1.00  0.00    -0.333 N 
HETATM    2  C11 UNL     1      25.935   1.992  51.443  1.00  0.00     0.322 C 
HETATM    3  O2  UNL     1      26.877   2.335  50.704  1.00  0.00    -0.247 OA
HETATM    4  N2  UNL     1      26.194   1.129  52.536  1.00  0.00    -0.309 N 
HETATM    5  H16 UNL     1      25.317   0.930  53.061  1.00  0.00     0.170 HD
ENDROOT
BRANCH   1   6
HETATM    6  C4  UNL     1      24.715   3.375  49.924  1.00  0.00     0.127 C 
BRANCH   6   7
HETATM    7  C3  UNL     1      24.719   4.851  50.326  1.00  0.00     0.020 C 
BRANCH   7   8
HETATM    8  C2  UNL     1      25.263   5.664  49.165  1.00  0.00    -0.003 C 
HETATM    9  C1  UNL     1      26.687   5.307  48.856  1.00  0.00     0.005 C 
ENDBRANCH   7   8
ENDBRANCH   6   7
ENDBRANCH   1   6
BRANCH   1  10
HETATM   10  C5  UNL     1      23.451   2.268  51.812  1.00  0.00     0.143 C 
BRANCH  10  11
HETATM   11  C6  UNL     1      22.790   0.972  51.470  1.00  0.00     0.093 A 
HETATM   12  P1  UNL     1      21.236   1.205  50.479  1.00  0.00    -0.070 P 
HETATM   13  C7  UNL     1      19.895   0.432  51.458  1.00  0.00     0.037 A 
HETATM   14  H13 UNL     1      21.389   0.618  49.174  1.00  0.00     0.064 HD
HETATM   15 CL1  UNL     1      18.383   0.605  50.597  1.00  0.00    -0.084 Cl
HETATM   16  C8  UNL     1      19.985  -0.168  52.621  1.00  0.00     0.050 A 
HETATM   17  C9  UNL     1      21.304  -0.246  53.235  1.00  0.00     0.065 A 
HETATM   18 CL2  UNL     1      21.403  -1.052  54.788  1.00  0.00    -0.082 Cl
HETATM   19  C10 UNL     1      22.415   0.244  52.709  1.00  0.00     0.075 A 
BRANCH  19  20
HETATM   20  O1  UNL     1      23.622   0.093  53.420  1.00  0.00    -0.362 OA
HETATM   21  H15 UNL     1      24.518   0.272  53.013  1.00  0.00     0.217 HD
ENDBRANCH  19  20
ENDBRANCH  10  11
ENDBRANCH   1  10
BRANCH   4  22
HETATM   22  C12 UNL     1      27.409   0.546  52.969  1.00  0.00     0.036 A 
HETATM   23  C13 UNL     1      27.577  -0.799  52.858  1.00  0.00     0.029 A 
HETATM   24  C14 UNL     1      28.712  -1.441  53.249  1.00  0.00     0.002 A 
HETATM   25  C15 UNL     1      29.760  -0.758  53.783  1.00  0.00     0.000 A 
HETATM   26  C16 UNL     1      29.639   0.609  53.915  1.00  0.00     0.002 A 
HETATM   27  C17 UNL     1      28.485   1.207  53.511  1.00  0.00     0.029 A 
ENDBRANCH   4  22
TORSDOF 7
ENDMDL
MODEL 3
REMARK VINA RESULT:      -7.3      2.130      2.529
REMARK  7 active torsions:
REMARK  status: ('A' for Active; 'I' for Inactive)
REMARK    1  A    between atoms: C2_2  and  C3_3 
REMARK    2  A    between atoms: C3_3  and  C4_4 
REMARK    3  A    between atoms: C4_4  and  N1_5 
REMARK    4  A    between atoms: N1_5  and  C5_6 
REMARK       I    between atoms: N1_5  and  C11_16 
REMARK    5  A    between atoms: C5_6  and  C6_7 
REMARK    6  A    between atoms: C10_14  and  O1_15 
REMARK       I    between atoms: C11_16  and  N2_18 
REMARK    7  A    between atoms: N2_18  and  C12_19 
ROOT
HETATM    1  N1  UNL     1      24.067   2.673  51.312  1.00  0.00    -0.333 N 
HETATM    2  C11 UNL     1      24.933   1.855  52.075  1.00  0.00     0.322 C 
HETATM    3  O2  UNL     1      24.414   1.329  53.077  1.00  0.00    -0.247 OA
HETATM    4  N2  UNL     1      26.297   1.602  51.790  1.00  0.00    -0.309 N 
HETATM    5  H16 UNL     1      26.590   2.106  50.927  1.00  0.00     0.170 HD
ENDROOT
BRANCH   1   6
HETATM    6  C4  UNL     1      22.728   2.747  51.848  1.00  0.00     0.127 C 
BRANCH   6   7
HETATM    7  C3  UNL     1      21.688   2.640  50.730  1.00  0.00     0.020 C 
BRANCH   7   8
HETATM    8  C2  UNL     1      21.558   1.180  50.334  1.00  0.00    -0.003 C 
HETATM    9  C1  UNL     1      21.483   1.014  48.845  1.00  0.00     0.005 C 
ENDBRANCH   7   8
ENDBRANCH   6   7
ENDBRANCH   1   6
BRANCH   1  10
HETATM   10  C5  UNL     1      24.454   3.371  50.111  1.00  0.00     0.143 C 
BRANCH  10  11
HETATM   11  C6  UNL     1      25.009   4.739  50.339  1.00  0.00     0.093 A 
HETATM   12  P1  UNL     1      23.898   6.077  49.685  1.00  0.00    -0.070 P 
HETATM   13  C7  UNL     1      24.897   7.010  48.467  1.00  0.00     0.037 A 
HETATM   14  H13 UNL     1      23.421   6.897  50.767  1.00  0.00     0.064 HD
HETATM   15 CL1  UNL     1      23.926   8.298  47.794  1.00  0.00    -0.084 Cl
HETATM   16  C8  UNL     1      26.143   6.799  48.110  1.00  0.00     0.050 A 
HETATM   17  C9  UNL     1      26.844   5.691  48.746  1.00  0.00     0.065 A 
HETATM   18 CL2  UNL     1      28.505   5.426  48.257  1.00  0.00    -0.082 Cl
HETATM   19  C10 UNL     1      26.319   4.884  49.654  1.00  0.00     0.075 A 
BRANCH  19  20
HETATM   20  O1  UNL     1      27.120   3.852  50.183  1.00  0.00    -0.362 OA
HETATM   21  H15 UNL     1      27.872   3.433  49.673  1.00  0.00     0.217 HD
ENDBRANCH  19  20
ENDBRANCH  10  11
ENDBRANCH   1  10
BRANCH   4  22
HETATM   22  C12 UNL     1      27.240   0.806  52.483  1.00  0.00     0.036 A 
HETATM   23  C13 UNL     1      28.235   1.415  53.182  1.00  0.00     0.029 A 
HETATM   24  C14 UNL     1      29.183   0.727  53.877  1.00  0.00     0.002 A 
HETATM   25  C15 UNL     1      29.185  -0.633  53.910  1.00  0.00     0.000 A 
HETATM   26  C16 UNL     1      28.195  -1.297  53.217  1.00  0.00     0.002 A 
HETATM   27  C17 UNL     1      27.270  -0.567  52.537  1.00  0.00     0.029 A 
ENDBRANCH   4  22
TORSDOF 7
ENDMDL
MODEL 4
REMARK VINA RESULT:      -7.1      3.069      6.594
REMARK  7 active torsions:
REMARK  status: ('A' for Active; 'I' for Inactive)
REMARK    1  A    between atoms: C2_2  and  C3_3 
REMARK    2  A    between atoms: C3_3  and  C4_4 
REMARK    3  A    between atoms: C4_4  and  N1_5 
REMARK    4  A    between atoms: N1_5  and  C5_6 
REMARK       I    between atoms: N1_5  and  C11_16 
REMARK    5  A    between atoms: C5_6  and  C6_7 
REMARK    6  A    between atoms: C10_14  and  O1_15 
REMARK       I    between atoms: C11_16  and  N2_18 
REMARK    7  A    between atoms: N2_18  and  C12_19 
ROOT
HETATM    1  N1  UNL     1      25.837   1.337  52.183  1.00  0.00    -0.333 N 
HETATM    2  C11 UNL     1      26.395   2.456  51.521  1.00  0.00     0.322 C 
HETATM    3  O2  UNL     1      27.565   2.731  51.847  1.00  0.00    -0.247 OA
HETATM    4  N2  UNL     1      25.743   3.254  50.549  1.00  0.00    -0.309 N 
HETATM    5  H16 UNL     1      24.776   2.906  50.380  1.00  0.00     0.170 HD
ENDROOT
BRANCH   1   6
HETATM    6  C4  UNL     1      26.739   0.720  53.126  1.00  0.00     0.127 C 
BRANCH   6   7
HETATM    7  C3  UNL     1      27.315  -0.579  52.558  1.00  0.00     0.020 C 
BRANCH   7   8
HETATM    8  C2  UNL     1      28.309  -1.141  53.558  1.00  0.00    -0.003 C 
HETATM    9  C1  UNL     1      29.704  -0.661  53.284  1.00  0.00     0.005 C 
ENDBRANCH   7   8
ENDBRANCH   6   7
ENDBRANCH   1   6
BRANCH   1  10
HETATM   10  C5  UNL     1      24.504   0.838  51.953  1.00  0.00     0.143 C 
BRANCH  10  11
HETATM   11  C6  UNL     1      23.552   1.067  53.083  1.00  0.00     0.093 A 
HETATM   12  P1  UNL     1      22.828  -0.514  53.736  1.00  0.00    -0.070 P 
HETATM   13  C7  UNL     1      21.014  -0.351  53.549  1.00  0.00     0.037 A 
HETATM   14  H13 UNL     1      23.236  -0.719  55.100  1.00  0.00     0.064 HD
HETATM   15 CL1  UNL     1      20.243  -1.804  54.142  1.00  0.00    -0.084 Cl
HETATM   16  C8  UNL     1      20.338   0.662  53.058  1.00  0.00     0.050 A 
HETATM   17  C9  UNL     1      21.100   1.815  52.597  1.00  0.00     0.065 A 
HETATM   18 CL2  UNL     1      20.180   3.156  51.946  1.00  0.00    -0.082 Cl
HETATM   19  C10 UNL     1      22.419   1.916  52.635  1.00  0.00     0.075 A 
BRANCH  19  20
HETATM   20  O1  UNL     1      23.019   3.096  52.152  1.00  0.00    -0.362 OA
HETATM   21  H15 UNL     1      23.620   3.111  51.352  1.00  0.00     0.217 HD
ENDBRANCH  19  20
ENDBRANCH  10  11
ENDBRANCH   1  10
BRANCH   4  22
HETATM   22  C12 UNL     1      26.210   4.383  49.834  1.00  0.00     0.036 A 
HETATM   23  C13 UNL     1      27.334   4.269  49.076  1.00  0.00     0.029 A 
HETATM   24  C14 UNL     1      27.852   5.302  48.357  1.00  0.00     0.002 A 
HETATM   25  C15 UNL     1      27.263   6.529  48.359  1.00  0.00     0.000 A 
HETATM   26  C16 UNL     1      26.121   6.694  49.112  1.00  0.00     0.002 A 
HETATM   27  C17 UNL     1      25.639   5.632  49.814  1.00  0.00     0.029 A 
ENDBRANCH   4  22
TORSDOF 7
ENDMDL
MODEL 5
REMARK VINA RESULT:      -7.1      3.522      6.537
REMARK  7 active torsions:
REMARK  status: ('A' for Active; 'I' for Inactive)
REMARK    1  A    between atoms: C2_2  and  C3_3 
REMARK    2  A    between atoms: C3_3  and  C4_4 
REMARK    3  A    between atoms: C4_4  and  N1_5 
REMARK    4  A    between atoms: N1_5  and  C5_6 
REMARK       I    between atoms: N1_5  and  C11_16 
REMARK    5  A    between atoms: C5_6  and  C6_7 
REMARK    6  A    between atoms: C10_14  and  O1_15 
REMARK       I    between atoms: C11_16  and  N2_18 
REMARK    7  A    between atoms: N2_18  and  C12_19 
ROOT
HETATM    1  N1  UNL     1      24.151   3.382  50.699  1.00  0.00    -0.333 N 
HETATM    2  C11 UNL     1      24.806   4.225  49.771  1.00  0.00     0.322 C 
HETATM    3  O2  UNL     1      24.197   4.405  48.701  1.00  0.00    -0.247 OA
HETATM    4  N2  UNL     1      26.060   4.855  49.967  1.00  0.00    -0.309 N 
HETATM    5  H16 UNL     1      26.449   4.613  50.902  1.00  0.00     0.170 HD
ENDROOT
BRANCH   1   6
HETATM    6  C4  UNL     1      22.883   2.882  50.222  1.00  0.00     0.127 C 
BRANCH   6   7
HETATM    7  C3  UNL     1      21.786   3.092  51.268  1.00  0.00     0.020 C 
BRANCH   7   8
HETATM    8  C2  UNL     1      21.044   1.781  51.456  1.00  0.00    -0.003 C 
HETATM    9  C1  UNL     1      21.490   0.745  50.468  1.00  0.00     0.005 C 
ENDBRANCH   7   8
ENDBRANCH   6   7
ENDBRANCH   1   6
BRANCH   1  10
HETATM   10  C5  UNL     1      24.669   3.045  52.001  1.00  0.00     0.143 C 
BRANCH  10  11
HETATM   11  C6  UNL     1      25.409   1.747  52.057  1.00  0.00     0.093 A 
HETATM   12  P1  UNL     1      24.531   0.472  53.084  1.00  0.00    -0.070 P 
HETATM   13  C7  UNL     1      25.702  -0.001  54.409  1.00  0.00     0.037 A 
HETATM   14  H13 UNL     1      24.137  -0.641  52.260  1.00  0.00     0.064 HD
HETATM   15 CL1  UNL     1      24.956  -1.206  55.432  1.00  0.00    -0.084 Cl
HETATM   16  C8  UNL     1      26.917   0.453  54.615  1.00  0.00     0.050 A 
HETATM   17  C9  UNL     1      27.423   1.457  53.690  1.00  0.00     0.065 A 
HETATM   18 CL2  UNL     1      29.046   2.049  53.983  1.00  0.00    -0.082 Cl
HETATM   19  C10 UNL     1      26.752   1.946  52.660  1.00  0.00     0.075 A 
BRANCH  19  20
HETATM   20  O1  UNL     1      27.372   2.917  51.849  1.00  0.00    -0.362 OA
HETATM   21  H15 UNL     1      26.859   3.614  51.347  1.00  0.00     0.217 HD
ENDBRANCH  19  20
ENDBRANCH  10  11
ENDBRANCH   1  10
BRANCH   4  22
HETATM   22  C12 UNL     1      26.795   5.708  49.110  1.00  0.00     0.036 A 
HETATM   23  C13 UNL     1      26.275   6.920  48.777  1.00  0.00     0.029 A 
HETATM   24  C14 UNL     1      26.913   7.802  47.959  1.00  0.00     0.002 A 
HETATM   25  C15 UNL     1      28.129   7.514  47.421  1.00  0.00     0.000 A 
HETATM   26  C16 UNL     1      28.698   6.297  47.730  1.00  0.00     0.002 A 
HETATM   27  C17 UNL     1      28.022   5.447  48.551  1.00  0.00     0.029 A 
ENDBRANCH   4  22
TORSDOF 7
ENDMDL
MODEL 6
REMARK VINA RESULT:      -6.9      1.691      5.769
REMARK  7 active torsions:
REMARK  status: ('A' for Active; 'I' for Inactive)
REMARK    1  A    between atoms: C2_2  and  C3_3 
REMARK    2  A    between atoms: C3_3  and  C4_4 
REMARK    3  A    between atoms: C4_4  and  N1_5 
REMARK    4  A    between atoms: N1_5  and  C5_6 
REMARK       I    between atoms: N1_5  and  C11_16 
REMARK    5  A    between atoms: C5_6  and  C6_7 
REMARK    6  A    between atoms: C10_14  and  O1_15 
REMARK       I    between atoms: C11_16  and  N2_18 
REMARK    7  A    between atoms: N2_18  and  C12_19 
ROOT
HETATM    1  N1  UNL     1      24.627   0.976  53.029  1.00  0.00    -0.333 N 
HETATM    2  C11 UNL     1      23.351   0.376  52.918  1.00  0.00     0.322 C 
HETATM    3  O2  UNL     1      23.305  -0.826  53.238  1.00  0.00    -0.247 OA
HETATM    4  N2  UNL     1      22.167   1.022  52.485  1.00  0.00    -0.309 N 
HETATM    5  H16 UNL     1      22.358   2.019  52.252  1.00  0.00     0.170 HD
ENDROOT
BRANCH   1   6
HETATM    6  C4  UNL     1      25.649   0.069  53.496  1.00  0.00     0.127 C 
BRANCH   6   7
HETATM    7  C3  UNL     1      26.559  -0.365  52.345  1.00  0.00     0.020 C 
BRANCH   7   8
HETATM    8  C2  UNL     1      27.764  -1.081  52.929  1.00  0.00    -0.003 C 
HETATM    9  C1  UNL     1      28.710  -0.125  53.592  1.00  0.00     0.005 C 
ENDBRANCH   7   8
ENDBRANCH   6   7
ENDBRANCH   1   6
BRANCH   1  10
HETATM   10  C5  UNL     1      24.907   2.356  52.719  1.00  0.00     0.143 C 
BRANCH  10  11
HETATM   11  C6  UNL     1      24.638   2.741  51.301  1.00  0.00     0.093 A 
HETATM   12  P1  UNL     1      26.193   2.890  50.295  1.00  0.00    -0.070 P 
HETATM   13  C7  UNL     1      26.220   4.607  49.662  1.00  0.00     0.037 A 
HETATM   14  H13 UNL     1      26.200   1.904  49.247  1.00  0.00     0.064 HD
HETATM   15 CL1  UNL     1      27.659   4.841  48.697  1.00  0.00    -0.084 Cl
HETATM   16  C8  UNL     1      25.338   5.558  49.862  1.00  0.00     0.050 A 
HETATM   17  C9  UNL     1      24.180   5.236  50.686  1.00  0.00     0.065 A 
HETATM   18 CL2  UNL     1      23.014   6.518  50.940  1.00  0.00    -0.082 Cl
HETATM   19  C10 UNL     1      23.954   4.059  51.247  1.00  0.00     0.075 A 
BRANCH  19  20
HETATM   20  O1  UNL     1      22.788   3.894  52.021  1.00  0.00    -0.362 OA
HETATM   21  H15 UNL     1      22.756   4.083  53.003  1.00  0.00     0.217 HD
ENDBRANCH  19  20
ENDBRANCH  10  11
ENDBRANCH   1  10
BRANCH   4  22
HETATM   22  C12 UNL     1      20.853   0.515  52.341  1.00  0.00     0.036 A 
HETATM   23  C13 UNL     1      20.285  -0.158  53.377  1.00  0.00     0.029 A 
HETATM   24  C14 UNL     1      19.028  -0.679  53.324  1.00  0.00     0.002 A 
HETATM   25  C15 UNL     1      18.257  -0.550  52.210  1.00  0.00     0.000 A 
HETATM   26  C16 UNL     1      18.789   0.126  51.133  1.00  0.00     0.002 A 
HETATM   27  C17 UNL     1      20.050   0.628  51.232  1.00  0.00     0.029 A 
ENDBRANCH   4  22
TORSDOF 7
ENDMDL
MODEL 7
REMARK VINA RESULT:      -6.7      2.087      2.729
REMARK  7 active torsions:
REMARK  status: ('A' for Active; 'I' for Inactive)
REMARK    1  A    between atoms: C2_2  and  C3_3 
REMARK    2  A    between atoms: C3_3  and  C4_4 
REMARK    3  A    between atoms: C4_4  and  N1_5 
REMARK    4  A    between atoms: N1_5  and  C5_6 
REMARK       I    between atoms: N1_5  and  C11_16 
REMARK    5  A    between atoms: C5_6  and  C6_7 
REMARK    6  A    between atoms: C10_14  and  O1_15 
REMARK       I    between atoms: C11_16  and  N2_18 
REMARK    7  A    between atoms: N2_18  and  C12_19 
ROOT
HETATM    1  N1  UNL     1      22.561   1.309  52.380  1.00  0.00    -0.333 N 
HETATM    2  C11 UNL     1      23.727   0.712  52.915  1.00  0.00     0.322 C 
HETATM    3  O2  UNL     1      23.522  -0.216  53.719  1.00  0.00    -0.247 OA
HETATM    4  N2  UNL     1      25.060   1.083  52.612  1.00  0.00    -0.309 N 
HETATM    5  H16 UNL     1      25.075   1.869  51.930  1.00  0.00     0.170 HD
ENDROOT
BRANCH   1   6
HETATM    6  C4  UNL     1      21.338   0.722  52.875  1.00  0.00     0.127 C 
BRANCH   6   7
HETATM    7  C3  UNL     1      20.460   0.238  51.720  1.00  0.00     0.020 C 
BRANCH   7   8
HETATM    8  C2  UNL     1      19.103  -0.150  52.278  1.00  0.00    -0.003 C 
HETATM    9  C1  UNL     1      18.041  -0.133  51.218  1.00  0.00     0.005 C 
ENDBRANCH   7   8
ENDBRANCH   6   7
ENDBRANCH   1   6
BRANCH   1  10
HETATM   10  C5  UNL     1      22.564   2.391  51.428  1.00  0.00     0.143 C 
BRANCH  10  11
HETATM   11  C6  UNL     1      22.035   3.685  51.957  1.00  0.00     0.093 A 
HETATM   12  P1  UNL     1      20.477   4.221  51.098  1.00  0.00    -0.070 P 
HETATM   13  C7  UNL     1      20.840   5.865  50.377  1.00  0.00     0.037 A 
HETATM   14  H13 UNL     1      19.381   4.246  52.030  1.00  0.00     0.064 HD
HETATM   15 CL1  UNL     1      19.421   6.452  49.543  1.00  0.00    -0.084 Cl
HETATM   16  C8  UNL     1      21.960   6.546  50.440  1.00  0.00     0.050 A 
HETATM   17  C9  UNL     1      23.071   5.945  51.166  1.00  0.00     0.065 A 
HETATM   18 CL2  UNL     1      24.557   6.871  51.237  1.00  0.00    -0.082 Cl
HETATM   19  C10 UNL     1      23.035   4.766  51.765  1.00  0.00     0.075 A 
BRANCH  19  20
HETATM   20  O1  UNL     1      24.190   4.313  52.432  1.00  0.00    -0.362 OA
HETATM   21  H15 UNL     1      24.867   4.934  52.831  1.00  0.00     0.217 HD
ENDBRANCH  19  20
ENDBRANCH  10  11
ENDBRANCH   1  10
BRANCH   4  22
HETATM   22  C12 UNL     1      26.283   0.554  53.089  1.00  0.00     0.036 A 
HETATM   23  C13 UNL     1      26.800  -0.557  52.499  1.00  0.00     0.029 A 
HETATM   24  C14 UNL     1      27.970  -1.132  52.894  1.00  0.00     0.002 A 
HETATM   25  C15 UNL     1      28.698  -0.616  53.921  1.00  0.00     0.000 A 
HETATM   26  C16 UNL     1      28.216   0.512  54.551  1.00  0.00     0.002 A 
HETATM   27  C17 UNL     1      27.042   1.050  54.121  1.00  0.00     0.029 A 
ENDBRANCH   4  22
TORSDOF 7
ENDMDL
MODEL 8
REMARK VINA RESULT:      -6.4      3.132      5.336
REMARK  7 active torsions:
REMARK  status: ('A' for Active; 'I' for Inactive)
REMARK    1  A    between atoms: C2_2  and  C3_3 
REMARK    2  A    between atoms: C3_3  and  C4_4 
REMARK    3  A    between atoms: C4_4  and  N1_5 
REMARK    4  A    between atoms: N1_5  and  C5_6 
REMARK       I    between atoms: N1_5  and  C11_16 
REMARK    5  A    between atoms: C5_6  and  C6_7 
REMARK    6  A    between atoms: C10_14  and  O1_15 
REMARK       I    between atoms: C11_16  and  N2_18 
REMARK    7  A    between atoms: N2_18  and  C12_19 
ROOT
HETATM    1  N1  UNL     1      25.111   4.161  50.677  1.00  0.00    -0.333 N 
HETATM    2  C11 UNL     1      26.069   3.177  51.018  1.00  0.00     0.322 C 
HETATM    3  O2  UNL     1      26.797   2.803  50.079  1.00  0.00    -0.247 OA
HETATM    4  N2  UNL     1      26.251   2.609  52.303  1.00  0.00    -0.309 N 
HETATM    5  H16 UNL     1      25.575   3.015  52.981  1.00  0.00     0.170 HD
ENDROOT
BRANCH   1   6
HETATM    6  C4  UNL     1      25.158   4.549  49.287  1.00  0.00     0.127 C 
BRANCH   6   7
HETATM    7  C3  UNL     1      24.898   6.049  49.131  1.00  0.00     0.020 C 
BRANCH   7   8
HETATM    8  C2  UNL     1      26.041   6.654  48.337  1.00  0.00    -0.003 C 
HETATM    9  C1  UNL     1      27.310   5.873  48.507  1.00  0.00     0.005 C 
ENDBRANCH   7   8
ENDBRANCH   6   7
ENDBRANCH   1   6
BRANCH   1  10
HETATM   10  C5  UNL     1      24.175   4.741  51.606  1.00  0.00     0.143 C 
BRANCH  10  11
HETATM   11  C6  UNL     1      22.827   4.095  51.614  1.00  0.00     0.093 A 
HETATM   12  P1  UNL     1      22.816   2.460  50.732  1.00  0.00    -0.070 P 
HETATM   13  C7  UNL     1      21.580   2.619  49.391  1.00  0.00     0.037 A 
HETATM   14  H13 UNL     1      22.507   1.402  51.657  1.00  0.00     0.064 HD
HETATM   15 CL1  UNL     1      21.501   1.117  48.501  1.00  0.00    -0.084 Cl
HETATM   16  C8  UNL     1      20.841   3.662  49.091  1.00  0.00     0.050 A 
HETATM   17  C9  UNL     1      21.002   4.856  49.911  1.00  0.00     0.065 A 
HETATM   18 CL2  UNL     1      20.006   6.236  49.494  1.00  0.00    -0.082 Cl
HETATM   19  C10 UNL     1      21.836   4.967  50.932  1.00  0.00     0.075 A 
BRANCH  19  20
HETATM   20  O1  UNL     1      21.883   6.187  51.634  1.00  0.00    -0.362 OA
HETATM   21  H15 UNL     1      21.277   6.957  51.427  1.00  0.00     0.217 HD
ENDBRANCH  19  20
ENDBRANCH  10  11
ENDBRANCH   1  10
BRANCH   4  22
HETATM   22  C12 UNL     1      27.172   1.628  52.742  1.00  0.00     0.036 A 
HETATM   23  C13 UNL     1      26.888   0.313  52.540  1.00  0.00     0.029 A 
HETATM   24  C14 UNL     1      27.716  -0.694  52.930  1.00  0.00     0.002 A 
HETATM   25  C15 UNL     1      28.896  -0.435  53.556  1.00  0.00     0.000 A 
HETATM   26  C16 UNL     1      29.230   0.883  53.784  1.00  0.00     0.002 A 
HETATM   27  C17 UNL     1      28.370   1.856  53.376  1.00  0.00     0.029 A 
ENDBRANCH   4  22
TORSDOF 7
ENDMDL
MODEL 9
REMARK VINA RESULT:      -6.4      2.113      3.031
REMARK  7 active torsions:
REMARK  status: ('A' for Active; 'I' for Inactive)
REMARK    1  A    between atoms: C2_2  and  C3_3 
REMARK    2  A    between atoms: C3_3  and  C4_4 
REMARK    3  A    between atoms: C4_4  and  N1_5 
REMARK    4  A    between atoms: N1_5  and  C5_6 
REMARK       I    between atoms: N1_5  and  C11_16 
REMARK    5  A    between atoms: C5_6  and  C6_7 
REMARK    6  A    between atoms: C10_14  and  O1_15 
REMARK       I    between atoms: C11_16  and  N2_18 
REMARK    7  A    between atoms: N2_18  and  C12_19 
ROOT
HETATM    1  N1  UNL     1      23.933   2.724  51.907  1.00  0.00    -0.333 N 
HETATM    2  C11 UNL     1      24.821   1.744  52.408  1.00  0.00     0.322 C 
HETATM    3  O2  UNL     1      24.281   0.692  52.796  1.00  0.00    -0.247 OA
HETATM    4  N2  UNL     1      26.230   1.870  52.495  1.00  0.00    -0.309 N 
HETATM    5  H16 UNL     1      26.537   2.798  52.137  1.00  0.00     0.170 HD
ENDROOT
BRANCH   1   6
HETATM    6  C4  UNL     1      22.548   2.315  51.943  1.00  0.00     0.127 C 
BRANCH   6   7
HETATM    7  C3  UNL     1      22.057   1.934  50.545  1.00  0.00     0.020 C 
BRANCH   7   8
HETATM    8  C2  UNL     1      21.227   0.668  50.656  1.00  0.00    -0.003 C 
HETATM    9  C1  UNL     1      19.821   0.883  50.181  1.00  0.00     0.005 C 
ENDBRANCH   7   8
ENDBRANCH   6   7
ENDBRANCH   1   6
BRANCH   1  10
HETATM   10  C5  UNL     1      24.342   4.009  51.398  1.00  0.00     0.143 C 
BRANCH  10  11
HETATM   11  C6  UNL     1      24.685   4.021  49.943  1.00  0.00     0.093 A 
HETATM   12  P1  UNL     1      26.514   3.902  49.642  1.00  0.00    -0.070 P 
HETATM   13  C7  UNL     1      26.967   5.400  48.693  1.00  0.00     0.037 A 
HETATM   14  H13 UNL     1      26.822   2.681  48.945  1.00  0.00     0.064 HD
HETATM   15 CL1  UNL     1      28.683   5.374  48.361  1.00  0.00    -0.084 Cl
HETATM   16  C8  UNL     1      26.181   6.374  48.295  1.00  0.00     0.050 A 
HETATM   17  C9  UNL     1      24.768   6.277  48.635  1.00  0.00     0.065 A 
HETATM   18 CL2  UNL     1      23.737   7.587  48.095  1.00  0.00    -0.082 Cl
HETATM   19  C10 UNL     1      24.219   5.284  49.315  1.00  0.00     0.075 A 
BRANCH  19  20
HETATM   20  O1  UNL     1      22.834   5.326  49.571  1.00  0.00    -0.362 OA
HETATM   21  H15 UNL     1      22.425   5.935  50.252  1.00  0.00     0.217 HD
ENDBRANCH  19  20
ENDBRANCH  10  11
ENDBRANCH   1  10
BRANCH   4  22
HETATM   22  C12 UNL     1      27.198   0.956  52.976  1.00  0.00     0.036 A 
HETATM   23  C13 UNL     1      28.093   1.370  53.912  1.00  0.00     0.029 A 
HETATM   24  C14 UNL     1      29.057   0.559  54.428  1.00  0.00     0.002 A 
HETATM   25  C15 UNL     1      29.178  -0.736  54.028  1.00  0.00     0.000 A 
HETATM   26  C16 UNL     1      28.292  -1.203  53.080  1.00  0.00     0.002 A 
HETATM   27  C17 UNL     1      27.346  -0.355  52.593  1.00  0.00     0.029 A 
ENDBRANCH   4  22
TORSDOF 7
ENDMDL
