MODEL 1
REMARK VINA RESULT:     -10.0      0.000      0.000
REMARK  2 active torsions:
REMARK  status: ('A' for Active; 'I' for Inactive)
REMARK    1  A    between atoms: O1_2  and  C2_3 
REMARK    2  A    between atoms: C6_9  and  C7_10 
ROOT
HETATM    1  C2  UNL     1      26.098  -0.261  53.127  1.00  0.00     0.160 C 
HETATM    2  C3  UNL     1      24.952   0.340  52.890  1.00  0.00    -0.014 C 
HETATM    3  C4  UNL     1      23.946   0.889  52.672  1.00  0.00     0.043 C 
HETATM    4  N1  UNL     1      22.854   1.507  52.424  1.00  0.00    -0.191 NA
HETATM    5  C5  UNL     1      22.901   2.807  52.013  1.00  0.00     0.244 C 
HETATM    6  N2  UNL     1      24.049   3.485  52.047  1.00  0.00    -0.245 NA
HETATM    7  C6  UNL     1      25.152   3.033  51.474  1.00  0.00     0.051 C 
HETATM    8  C17 UNL     1      26.259   2.282  51.641  1.00  0.00     0.068 C 
HETATM    9  C18 UNL     1      27.217   1.817  52.501  1.00  0.00     0.107 C 
HETATM   10  C19 UNL     1      27.144   0.629  53.195  1.00  0.00     0.144 C 
HETATM   11  O2  UNL     1      28.183   0.269  54.037  1.00  0.00    -0.343 OA
HETATM   12  C20 UNL     1      29.436   0.911  53.886  1.00  0.00     0.202 C 
HETATM   13  C21 UNL     1      29.164   2.407  53.867  1.00  0.00     0.202 C 
HETATM   14  O3  UNL     1      28.352   2.591  52.694  1.00  0.00    -0.346 OA
ENDROOT
BRANCH   7  15
HETATM   15  C7  UNL     1      24.959   3.672  50.148  1.00  0.00     0.023 A 
HETATM   16  C8  UNL     1      23.881   2.963  49.367  1.00  0.00     0.027 C 
HETATM   17  C9  UNL     1      24.445   5.087  50.385  1.00  0.00     0.019 A 
HETATM   18  C10 UNL     1      24.466   6.453  50.331  1.00  0.00     0.092 A 
HETATM   19  C11 UNL     1      25.703   6.632  49.648  1.00  0.00    -0.088 A 
HETATM   20  C12 UNL     1      26.768   6.765  49.058  1.00  0.00    -0.069 A 
HETATM   21  C13 UNL     1      27.975   6.890  48.388  1.00  0.00     0.036 A 
HETATM   22  C14 UNL     1      27.839   5.586  48.499  1.00  0.00     0.046 A 
HETATM   23  C15 UNL     1      27.278   4.301  48.843  1.00  0.00    -0.020 A 
HETATM   24  C16 UNL     1      26.244   3.717  49.433  1.00  0.00    -0.014 A 
ENDBRANCH   7  15
BRANCH   1  25
HETATM   25  O1  UNL     1      26.206  -1.621  53.284  1.00  0.00    -0.345 OA
HETATM   26  C1  UNL     1      27.037  -2.423  52.453  1.00  0.00     0.211 C 
ENDBRANCH   1  25
TORSDOF 2
ENDMDL
MODEL 2
REMARK VINA RESULT:      -9.6      2.804      5.874
REMARK  2 active torsions:
REMARK  status: ('A' for Active; 'I' for Inactive)
REMARK    1  A    between atoms: O1_2  and  C2_3 
REMARK    2  A    between atoms: C6_9  and  C7_10 
ROOT
HETATM    1  C2  UNL     1      21.366   0.581  51.949  1.00  0.00     0.160 C 
HETATM    2  C3  UNL     1      22.055   1.669  51.675  1.00  0.00    -0.014 C 
HETATM    3  C4  UNL     1      22.681   2.624  51.440  1.00  0.00     0.043 C 
HETATM    4  N1  UNL     1      23.385   3.663  51.193  1.00  0.00    -0.191 NA
HETATM    5  C5  UNL     1      24.632   3.770  51.738  1.00  0.00     0.244 C 
HETATM    6  N2  UNL     1      25.042   2.900  52.662  1.00  0.00    -0.245 NA
HETATM    7  C6  UNL     1      24.997   1.593  52.471  1.00  0.00     0.051 C 
HETATM    8  C17 UNL     1      24.244   0.482  52.589  1.00  0.00     0.068 C 
HETATM    9  C18 UNL     1      23.266  -0.179  53.282  1.00  0.00     0.107 C 
HETATM   10  C19 UNL     1      21.921  -0.134  52.984  1.00  0.00     0.144 C 
HETATM   11  O2  UNL     1      21.028  -0.850  53.763  1.00  0.00    -0.343 OA
HETATM   12  C20 UNL     1      21.524  -1.890  54.588  1.00  0.00     0.202 C 
HETATM   13  C21 UNL     1      22.685  -1.307  55.378  1.00  0.00     0.202 C 
HETATM   14  O3  UNL     1      23.645  -0.957  54.366  1.00  0.00    -0.346 OA
ENDROOT
BRANCH   7  15
HETATM   15  C7  UNL     1      26.358   1.433  51.898  1.00  0.00     0.023 A 
HETATM   16  C8  UNL     1      26.419   2.002  50.502  1.00  0.00     0.027 C 
HETATM   17  C9  UNL     1      27.315   2.272  52.735  1.00  0.00     0.019 A 
HETATM   18  C10 UNL     1      28.381   2.509  53.559  1.00  0.00     0.092 A 
HETATM   19  C11 UNL     1      28.858   1.175  53.700  1.00  0.00    -0.088 A 
HETATM   20  C12 UNL     1      29.253   0.021  53.807  1.00  0.00    -0.069 A 
HETATM   21  C13 UNL     1      29.684  -1.293  53.911  1.00  0.00     0.036 A 
HETATM   22  C14 UNL     1      28.638  -1.393  53.119  1.00  0.00     0.046 A 
HETATM   23  C15 UNL     1      27.489  -1.018  52.328  1.00  0.00    -0.020 A 
HETATM   24  C16 UNL     1      26.750   0.016  51.953  1.00  0.00    -0.014 A 
ENDBRANCH   7  15
BRANCH   1  25
HETATM   25  O1  UNL     1      20.229   0.229  51.264  1.00  0.00    -0.345 OA
HETATM   26  C1  UNL     1      19.009   0.950  51.384  1.00  0.00     0.211 C 
ENDBRANCH   1  25
TORSDOF 2
ENDMDL
MODEL 3
REMARK VINA RESULT:      -9.1      1.619      2.320
REMARK  2 active torsions:
REMARK  status: ('A' for Active; 'I' for Inactive)
REMARK    1  A    between atoms: O1_2  and  C2_3 
REMARK    2  A    between atoms: C6_9  and  C7_10 
ROOT
HETATM    1  C2  UNL     1      23.081  -0.046  53.359  1.00  0.00     0.160 C 
HETATM    2  C3  UNL     1      22.359   0.962  52.918  1.00  0.00    -0.014 C 
HETATM    3  C4  UNL     1      21.736   1.864  52.520  1.00  0.00     0.043 C 
HETATM    4  N1  UNL     1      21.071   2.862  52.075  1.00  0.00    -0.191 NA
HETATM    5  C5  UNL     1      21.738   3.923  51.536  1.00  0.00     0.244 C 
HETATM    6  N2  UNL     1      23.066   4.008  51.638  1.00  0.00    -0.245 NA
HETATM    7  C6  UNL     1      23.867   3.027  51.258  1.00  0.00     0.051 C 
HETATM    8  C17 UNL     1      24.489   1.894  51.640  1.00  0.00     0.068 C 
HETATM    9  C18 UNL     1      25.069   1.185  52.656  1.00  0.00     0.107 C 
HETATM   10  C19 UNL     1      24.414   0.277  53.459  1.00  0.00     0.144 C 
HETATM   11  O2  UNL     1      25.116  -0.379  54.457  1.00  0.00    -0.343 OA
HETATM   12  C20 UNL     1      26.530  -0.400  54.393  1.00  0.00     0.202 C 
HETATM   13  C21 UNL     1      26.982   1.036  54.180  1.00  0.00     0.202 C 
HETATM   14  O3  UNL     1      26.420   1.385  52.903  1.00  0.00    -0.346 OA
ENDROOT
BRANCH   7  15
HETATM   15  C7  UNL     1      24.072   3.475  49.857  1.00  0.00     0.023 A 
HETATM   16  C8  UNL     1      23.109   2.778  48.928  1.00  0.00     0.027 C 
HETATM   17  C9  UNL     1      23.724   4.957  49.788  1.00  0.00     0.019 A 
HETATM   18  C10 UNL     1      23.951   6.289  49.576  1.00  0.00     0.092 A 
HETATM   19  C11 UNL     1      25.323   6.226  49.198  1.00  0.00    -0.088 A 
HETATM   20  C12 UNL     1      26.501   6.150  48.874  1.00  0.00    -0.069 A 
HETATM   21  C13 UNL     1      27.834   6.040  48.508  1.00  0.00     0.036 A 
HETATM   22  C14 UNL     1      27.492   4.790  48.740  1.00  0.00     0.046 A 
HETATM   23  C15 UNL     1      26.691   3.642  49.091  1.00  0.00    -0.020 A 
HETATM   24  C16 UNL     1      25.478   3.270  49.477  1.00  0.00    -0.014 A 
ENDBRANCH   7  15
BRANCH   1  25
HETATM   25  O1  UNL     1      22.538  -1.268  53.673  1.00  0.00    -0.345 OA
HETATM   26  C1  UNL     1      21.419  -1.408  54.539  1.00  0.00     0.211 C 
ENDBRANCH   1  25
TORSDOF 2
ENDMDL
MODEL 4
REMARK VINA RESULT:      -8.5      2.397      5.846
REMARK  2 active torsions:
REMARK  status: ('A' for Active; 'I' for Inactive)
REMARK    1  A    between atoms: O1_2  and  C2_3 
REMARK    2  A    between atoms: C6_9  and  C7_10 
ROOT
HETATM    1  C2  UNL     1      27.186   2.059  52.034  1.00  0.00     0.160 C 
HETATM    2  C3  UNL     1      26.355   2.672  51.219  1.00  0.00    -0.014 C 
HETATM    3  C4  UNL     1      25.603   3.203  50.502  1.00  0.00     0.043 C 
HETATM    4  N1  UNL     1      24.764   3.772  49.723  1.00  0.00    -0.191 NA
HETATM    5  C5  UNL     1      23.519   3.231  49.572  1.00  0.00     0.244 C 
HETATM    6  N2  UNL     1      23.240   2.029  50.078  1.00  0.00    -0.245 NA
HETATM    7  C6  UNL     1      23.458   1.729  51.348  1.00  0.00     0.051 C 
HETATM    8  C17 UNL     1      24.355   1.256  52.235  1.00  0.00     0.068 C 
HETATM    9  C18 UNL     1      25.421   0.430  52.468  1.00  0.00     0.107 C 
HETATM   10  C19 UNL     1      26.744   0.803  52.375  1.00  0.00     0.144 C 
HETATM   11  O2  UNL     1      27.733  -0.130  52.637  1.00  0.00    -0.343 OA
HETATM   12  C20 UNL     1      27.390  -1.306  53.347  1.00  0.00     0.202 C 
HETATM   13  C21 UNL     1      26.170  -1.896  52.657  1.00  0.00     0.202 C 
HETATM   14  O3  UNL     1      25.161  -0.886  52.826  1.00  0.00    -0.346 OA
ENDROOT
BRANCH   7  15
HETATM   15  C7  UNL     1      22.125   2.121  51.871  1.00  0.00     0.023 A 
HETATM   16  C8  UNL     1      22.081   3.600  52.165  1.00  0.00     0.027 C 
HETATM   17  C9  UNL     1      21.103   1.881  50.767  1.00  0.00     0.019 A 
HETATM   18  C10 UNL     1      20.003   1.322  50.178  1.00  0.00     0.092 A 
HETATM   19  C11 UNL     1      19.585   0.473  51.242  1.00  0.00    -0.088 A 
HETATM   20  C12 UNL     1      19.242  -0.249  52.170  1.00  0.00    -0.069 A 
HETATM   21  C13 UNL     1      18.871  -1.057  53.234  1.00  0.00     0.036 A 
HETATM   22  C14 UNL     1      19.945  -0.450  53.692  1.00  0.00     0.046 A 
HETATM   23  C15 UNL     1      21.098   0.417  53.746  1.00  0.00    -0.020 A 
HETATM   24  C16 UNL     1      21.799   1.298  53.047  1.00  0.00    -0.014 A 
ENDBRANCH   7  15
BRANCH   1  25
HETATM   25  O1  UNL     1      28.353   2.634  52.477  1.00  0.00    -0.345 OA
HETATM   26  C1  UNL     1      28.810   2.502  53.818  1.00  0.00     0.211 C 
ENDBRANCH   1  25
TORSDOF 2
ENDMDL
MODEL 5
REMARK VINA RESULT:      -8.3      1.462      2.612
REMARK  2 active torsions:
REMARK  status: ('A' for Active; 'I' for Inactive)
REMARK    1  A    between atoms: O1_2  and  C2_3 
REMARK    2  A    between atoms: C6_9  and  C7_10 
ROOT
HETATM    1  C2  UNL     1      25.322   0.400  53.611  1.00  0.00     0.160 C 
HETATM    2  C3  UNL     1      24.378   1.213  53.186  1.00  0.00    -0.014 C 
HETATM    3  C4  UNL     1      23.556   1.944  52.800  1.00  0.00     0.043 C 
HETATM    4  N1  UNL     1      22.668   2.757  52.366  1.00  0.00    -0.191 NA
HETATM    5  C5  UNL     1      23.062   3.884  51.703  1.00  0.00     0.244 C 
HETATM    6  N2  UNL     1      24.349   4.232  51.669  1.00  0.00    -0.245 NA
HETATM    7  C6  UNL     1      25.295   3.399  51.269  1.00  0.00     0.051 C 
HETATM    8  C17 UNL     1      26.161   2.441  51.653  1.00  0.00     0.068 C 
HETATM    9  C18 UNL     1      26.956   1.937  52.646  1.00  0.00     0.107 C 
HETATM   10  C19 UNL     1      26.567   0.983  53.561  1.00  0.00     0.144 C 
HETATM   11  O2  UNL     1      27.468   0.553  54.521  1.00  0.00    -0.343 OA
HETATM   12  C20 UNL     1      28.847   0.802  54.320  1.00  0.00     0.202 C 
HETATM   13  C21 UNL     1      28.983   2.278  53.981  1.00  0.00     0.202 C 
HETATM   14  O3  UNL     1      28.256   2.413  52.748  1.00  0.00    -0.346 OA
ENDROOT
BRANCH   7  15
HETATM   15  C7  UNL     1      25.286   3.771  49.832  1.00  0.00     0.023 A 
HETATM   16  C8  UNL     1      26.572   3.350  49.164  1.00  0.00     0.027 C 
HETATM   17  C9  UNL     1      24.180   2.974  49.152  1.00  0.00     0.019 A 
HETATM   18  C10 UNL     1      23.018   2.785  48.457  1.00  0.00     0.092 A 
HETATM   19  C11 UNL     1      22.645   4.147  48.268  1.00  0.00    -0.088 A 
HETATM   20  C12 UNL     1      22.343   5.323  48.114  1.00  0.00    -0.069 A 
HETATM   21  C13 UNL     1      22.023   6.663  47.951  1.00  0.00     0.036 A 
HETATM   22  C14 UNL     1      23.154   6.715  48.621  1.00  0.00     0.046 A 
HETATM   23  C15 UNL     1      24.344   6.285  49.317  1.00  0.00    -0.020 A 
HETATM   24  C16 UNL     1      25.022   5.213  49.699  1.00  0.00    -0.014 A 
ENDBRANCH   7  15
BRANCH   1  25
HETATM   25  O1  UNL     1      25.064  -0.876  54.047  1.00  0.00    -0.345 OA
HETATM   26  C1  UNL     1      24.243  -1.147  55.177  1.00  0.00     0.211 C 
ENDBRANCH   1  25
TORSDOF 2
ENDMDL
MODEL 6
REMARK VINA RESULT:      -8.2      2.281      6.158
REMARK  2 active torsions:
REMARK  status: ('A' for Active; 'I' for Inactive)
REMARK    1  A    between atoms: O1_2  and  C2_3 
REMARK    2  A    between atoms: C6_9  and  C7_10 
ROOT
HETATM    1  C2  UNL     1      24.080   5.544  49.779  1.00  0.00     0.160 C 
HETATM    2  C3  UNL     1      23.444   4.464  50.182  1.00  0.00    -0.014 C 
HETATM    3  C4  UNL     1      22.899   3.499  50.546  1.00  0.00     0.043 C 
HETATM    4  N1  UNL     1      22.320   2.433  50.950  1.00  0.00    -0.191 NA
HETATM    5  C5  UNL     1      23.078   1.358  51.313  1.00  0.00     0.244 C 
HETATM    6  N2  UNL     1      24.391   1.346  51.077  1.00  0.00    -0.245 NA
HETATM    7  C6  UNL     1      25.188   2.323  51.475  1.00  0.00     0.051 C 
HETATM    8  C17 UNL     1      25.725   3.516  51.151  1.00  0.00     0.068 C 
HETATM    9  C18 UNL     1      26.174   4.347  50.161  1.00  0.00     0.107 C 
HETATM   10  C19 UNL     1      25.407   5.295  49.519  1.00  0.00     0.144 C 
HETATM   11  O2  UNL     1      25.980   6.077  48.530  1.00  0.00    -0.343 OA
HETATM   12  C20 UNL     1      27.392   6.159  48.459  1.00  0.00     0.202 C 
HETATM   13  C21 UNL     1      27.917   4.733  48.482  1.00  0.00     0.202 C 
HETATM   14  O3  UNL     1      27.499   4.236  49.766  1.00  0.00    -0.346 OA
ENDROOT
BRANCH   7  15
HETATM   15  C7  UNL     1      25.549   1.752  52.797  1.00  0.00     0.023 A 
HETATM   16  C8  UNL     1      24.524   2.130  53.838  1.00  0.00     0.027 C 
HETATM   17  C9  UNL     1      25.489   0.234  52.680  1.00  0.00     0.019 A 
HETATM   18  C10 UNL     1      25.973  -1.045  52.708  1.00  0.00     0.092 A 
HETATM   19  C11 UNL     1      27.327  -0.765  53.049  1.00  0.00    -0.088 A 
HETATM   20  C12 UNL     1      28.486  -0.505  53.346  1.00  0.00    -0.069 A 
HETATM   21  C13 UNL     1      29.793  -0.186  53.684  1.00  0.00     0.036 A 
HETATM   22  C14 UNL     1      29.211   0.993  53.629  1.00  0.00     0.046 A 
HETATM   23  C15 UNL     1      28.190   2.000  53.457  1.00  0.00    -0.020 A 
HETATM   24  C16 UNL     1      26.910   2.176  53.160  1.00  0.00    -0.014 A 
ENDBRANCH   7  15
BRANCH   1  25
HETATM   25  O1  UNL     1      23.463   6.763  49.642  1.00  0.00    -0.345 OA
HETATM   26  C1  UNL     1      23.513   7.763  50.653  1.00  0.00     0.211 C 
ENDBRANCH   1  25
TORSDOF 2
ENDMDL
MODEL 7
REMARK VINA RESULT:      -8.1      2.408      4.847
REMARK  2 active torsions:
REMARK  status: ('A' for Active; 'I' for Inactive)
REMARK    1  A    between atoms: O1_2  and  C2_3 
REMARK    2  A    between atoms: C6_9  and  C7_10 
ROOT
HETATM    1  C2  UNL     1      26.074   1.168  53.679  1.00  0.00     0.160 C 
HETATM    2  C3  UNL     1      26.427   1.845  52.607  1.00  0.00    -0.014 C 
HETATM    3  C4  UNL     1      26.721   2.447  51.652  1.00  0.00     0.043 C 
HETATM    4  N1  UNL     1      27.022   3.109  50.600  1.00  0.00    -0.191 NA
HETATM    5  C5  UNL     1      26.043   3.411  49.698  1.00  0.00     0.244 C 
HETATM    6  N2  UNL     1      24.829   2.868  49.811  1.00  0.00    -0.245 NA
HETATM    7  C6  UNL     1      24.127   2.937  50.930  1.00  0.00     0.051 C 
HETATM    8  C17 UNL     1      23.869   2.346  52.113  1.00  0.00     0.068 C 
HETATM    9  C18 UNL     1      23.787   1.181  52.826  1.00  0.00     0.107 C 
HETATM   10  C19 UNL     1      24.815   0.629  53.559  1.00  0.00     0.144 C 
HETATM   11  O2  UNL     1      24.604  -0.559  54.238  1.00  0.00    -0.343 OA
HETATM   12  C20 UNL     1      23.273  -0.977  54.482  1.00  0.00     0.202 C 
HETATM   13  C21 UNL     1      22.539  -0.903  53.153  1.00  0.00     0.202 C 
HETATM   14  O3  UNL     1      22.580   0.495  52.819  1.00  0.00    -0.346 OA
ENDROOT
BRANCH   7  15
HETATM   15  C7  UNL     1      23.399   4.194  50.625  1.00  0.00     0.023 A 
HETATM   16  C8  UNL     1      24.273   5.394  50.889  1.00  0.00     0.027 C 
HETATM   17  C9  UNL     1      23.104   4.210  49.131  1.00  0.00     0.019 A 
HETATM   18  C10 UNL     1      22.324   4.234  48.007  1.00  0.00     0.092 A 
HETATM   19  C11 UNL     1      21.041   4.261  48.625  1.00  0.00    -0.088 A 
HETATM   20  C12 UNL     1      19.948   4.287  49.175  1.00  0.00    -0.069 A 
HETATM   21  C13 UNL     1      18.720   4.317  49.820  1.00  0.00     0.036 A 
HETATM   22  C14 UNL     1      19.574   4.295  50.821  1.00  0.00     0.046 A 
HETATM   23  C15 UNL     1      20.824   4.264  51.543  1.00  0.00    -0.020 A 
HETATM   24  C16 UNL     1      22.140   4.229  51.387  1.00  0.00    -0.014 A 
ENDBRANCH   7  15
BRANCH   1  25
HETATM   25  O1  UNL     1      26.890   1.033  54.776  1.00  0.00    -0.345 OA
HETATM   26  C1  UNL     1      28.075   0.245  54.755  1.00  0.00     0.211 C 
ENDBRANCH   1  25
TORSDOF 2
ENDMDL
MODEL 8
REMARK VINA RESULT:      -8.0      1.981      3.696
REMARK  2 active torsions:
REMARK  status: ('A' for Active; 'I' for Inactive)
REMARK    1  A    between atoms: O1_2  and  C2_3 
REMARK    2  A    between atoms: C6_9  and  C7_10 
ROOT
HETATM    1  C2  UNL     1      26.197   1.296  53.521  1.00  0.00     0.160 C 
HETATM    2  C3  UNL     1      26.423   2.010  52.439  1.00  0.00    -0.014 C 
HETATM    3  C4  UNL     1      26.603   2.643  51.476  1.00  0.00     0.043 C 
HETATM    4  N1  UNL     1      26.779   3.339  50.417  1.00  0.00    -0.191 NA
HETATM    5  C5  UNL     1      25.708   3.627  49.621  1.00  0.00     0.244 C 
HETATM    6  N2  UNL     1      24.530   3.040  49.836  1.00  0.00    -0.245 NA
HETATM    7  C6  UNL     1      23.937   3.058  51.018  1.00  0.00     0.051 C 
HETATM    8  C17 UNL     1      23.814   2.432  52.205  1.00  0.00     0.068 C 
HETATM    9  C18 UNL     1      23.839   1.249  52.892  1.00  0.00     0.107 C 
HETATM   10  C19 UNL     1      24.951   0.717  53.508  1.00  0.00     0.144 C 
HETATM   11  O2  UNL     1      24.845  -0.493  54.174  1.00  0.00    -0.343 OA
HETATM   12  C20 UNL     1      23.558  -0.963  54.533  1.00  0.00     0.202 C 
HETATM   13  C21 UNL     1      22.697  -0.884  53.283  1.00  0.00     0.202 C 
HETATM   14  O3  UNL     1      22.660   0.522  52.982  1.00  0.00    -0.346 OA
ENDROOT
BRANCH   7  15
HETATM   15  C7  UNL     1      23.142   4.296  50.817  1.00  0.00     0.023 A 
HETATM   16  C8  UNL     1      21.987   4.350  51.786  1.00  0.00     0.027 C 
HETATM   17  C9  UNL     1      24.034   5.482  51.160  1.00  0.00     0.019 A 
HETATM   18  C10 UNL     1      24.718   6.644  50.930  1.00  0.00     0.092 A 
HETATM   19  C11 UNL     1      24.380   6.835  49.560  1.00  0.00    -0.088 A 
HETATM   20  C12 UNL     1      24.076   6.983  48.383  1.00  0.00    -0.069 A 
HETATM   21  C13 UNL     1      23.717   7.130  47.051  1.00  0.00     0.036 A 
HETATM   22  C14 UNL     1      23.102   6.020  47.396  1.00  0.00     0.046 A 
HETATM   23  C15 UNL     1      22.644   4.911  48.200  1.00  0.00    -0.020 A 
HETATM   24  C16 UNL     1      22.711   4.380  49.413  1.00  0.00    -0.014 A 
ENDBRANCH   7  15
BRANCH   1  25
HETATM   25  O1  UNL     1      27.119   1.165  54.531  1.00  0.00    -0.345 OA
HETATM   26  C1  UNL     1      28.280   0.352  54.406  1.00  0.00     0.211 C 
ENDBRANCH   1  25
TORSDOF 2
ENDMDL
MODEL 9
REMARK VINA RESULT:      -7.9      3.073      6.127
REMARK  2 active torsions:
REMARK  status: ('A' for Active; 'I' for Inactive)
REMARK    1  A    between atoms: O1_2  and  C2_3 
REMARK    2  A    between atoms: C6_9  and  C7_10 
ROOT
HETATM    1  C2  UNL     1      26.529   4.880  49.351  1.00  0.00     0.160 C 
HETATM    2  C3  UNL     1      26.574   3.767  50.051  1.00  0.00    -0.014 C 
HETATM    3  C4  UNL     1      26.596   2.784  50.679  1.00  0.00     0.043 C 
HETATM    4  N1  UNL     1      26.600   1.711  51.374  1.00  0.00    -0.191 NA
HETATM    5  C5  UNL     1      25.591   1.489  52.266  1.00  0.00     0.244 C 
HETATM    6  N2  UNL     1      24.714   2.454  52.548  1.00  0.00    -0.245 NA
HETATM    7  C6  UNL     1      24.040   3.092  51.606  1.00  0.00     0.051 C 
HETATM    8  C17 UNL     1      24.045   4.139  50.758  1.00  0.00     0.068 C 
HETATM    9  C18 UNL     1      24.451   5.422  50.513  1.00  0.00     0.107 C 
HETATM   10  C19 UNL     1      25.611   5.771  49.855  1.00  0.00     0.144 C 
HETATM   11  O2  UNL     1      25.911   7.110  49.670  1.00  0.00    -0.343 OA
HETATM   12  C20 UNL     1      24.875   8.066  49.808  1.00  0.00     0.202 C 
HETATM   13  C21 UNL     1      24.185   7.779  51.132  1.00  0.00     0.202 C 
HETATM   14  O3  UNL     1      23.641   6.459  50.954  1.00  0.00    -0.346 OA
ENDROOT
BRANCH   7  15
HETATM   15  C7  UNL     1      22.855   2.198  51.576  1.00  0.00     0.023 A 
HETATM   16  C8  UNL     1      23.028   1.052  52.542  1.00  0.00     0.027 C 
HETATM   17  C9  UNL     1      21.659   2.995  52.080  1.00  0.00     0.019 A 
HETATM   18  C10 UNL     1      20.425   3.581  52.012  1.00  0.00     0.092 A 
HETATM   19  C11 UNL     1      20.075   3.215  50.681  1.00  0.00    -0.088 A 
HETATM   20  C12 UNL     1      19.793   2.888  49.535  1.00  0.00    -0.069 A 
HETATM   21  C13 UNL     1      19.494   2.505  48.236  1.00  0.00     0.036 A 
HETATM   22  C14 UNL     1      20.688   1.984  48.425  1.00  0.00     0.046 A 
HETATM   23  C15 UNL     1      21.929   1.626  49.069  1.00  0.00    -0.020 A 
HETATM   24  C16 UNL     1      22.615   1.748  50.196  1.00  0.00    -0.014 A 
ENDBRANCH   7  15
BRANCH   1  25
HETATM   25  O1  UNL     1      27.319   5.099  48.249  1.00  0.00    -0.345 OA
HETATM   26  C1  UNL     1      28.690   5.464  48.352  1.00  0.00     0.211 C 
ENDBRANCH   1  25
TORSDOF 2
ENDMDL
