MODEL 1
REMARK VINA RESULT:      -8.4      0.000      0.000
REMARK  5 active torsions:
REMARK  status: ('A' for Active; 'I' for Inactive)
REMARK    1  A    between atoms: C1_2  and  O1_3 
REMARK    2  A    between atoms: O1_3  and  C2_4 
REMARK    3  A    between atoms: C5_7  and  C6_8 
REMARK    4  A    between atoms: C9_13  and  N4_14 
REMARK    5  A    between atoms: C10_15  and  N5_16 
ROOT
HETATM    1  C6  UNL     1      23.689   2.015  52.539  1.00  0.00     0.085 A 
HETATM    2  C7  UNL     1      22.997   1.244  51.490  1.00  0.00     0.125 A 
HETATM    3  N2  UNL     1      22.631   1.640  50.318  1.00  0.00    -0.183 NA
HETATM    4  N3  UNL     1      22.904   2.961  49.945  1.00  0.00    -0.246 N 
HETATM    5  C8  UNL     1      22.673   3.741  48.793  1.00  0.00     0.145 A 
HETATM    6  C9  UNL     1      23.141   4.989  48.941  1.00  0.00     0.049 A 
HETATM    7  C10 UNL     1      23.752   5.133  50.282  1.00  0.00     0.182 A 
HETATM    8  C16 UNL     1      23.571   3.807  50.876  1.00  0.00     0.061 A 
HETATM    9  C17 UNL     1      23.945   3.400  52.077  1.00  0.00     0.018 A 
ENDROOT
BRANCH   1  10
HETATM   10  C5  UNL     1      24.899   1.308  52.999  1.00  0.00    -0.043 A 
HETATM   11  C4  UNL     1      24.948  -0.041  53.279  1.00  0.00     0.011 A 
HETATM   12  C3  UNL     1      26.157  -0.588  53.706  1.00  0.00     0.039 A 
HETATM   13  C2  UNL     1      27.303   0.196  53.852  1.00  0.00     0.098 A 
HETATM   14  C19 UNL     1      27.204   1.540  53.560  1.00  0.00     0.068 A 
HETATM   15  C18 UNL     1      26.027   2.088  53.141  1.00  0.00     0.035 A 
HETATM   16 CL1  UNL     1      28.741   2.371  53.799  1.00  0.00    -0.081 Cl
BRANCH  13  17
HETATM   17  O1  UNL     1      28.346  -0.599  54.286  1.00  0.00    -0.303 OA
BRANCH  17  18
HETATM   18  C1  UNL     1      29.010  -1.463  53.448  1.00  0.00     0.249 C 
HETATM   19  N1  UNL     1      30.132  -0.857  53.750  1.00  0.00    -0.289 NA
HETATM   20  H1  UNL     1      30.981  -1.243  53.275  1.00  0.00     0.188 HD
ENDBRANCH  17  18
ENDBRANCH  13  17
ENDBRANCH   1  10
BRANCH   7  21
HETATM   21  N5  UNL     1      25.084   5.621  50.295  1.00  0.00    -0.398 N 
HETATM   22  C11 UNL     1      26.094   4.853  49.697  1.00  0.00     0.118 C 
HETATM   23  C12 UNL     1      26.906   5.475  48.618  1.00  0.00     0.019 C 
HETATM   24  C13 UNL     1      26.585   6.922  48.346  1.00  0.00     0.003 C 
HETATM   25  C14 UNL     1      26.420   7.605  49.676  1.00  0.00     0.019 C 
HETATM   26  C15 UNL     1      25.257   7.020  50.405  1.00  0.00     0.118 C 
ENDBRANCH   7  21
BRANCH   6  27
HETATM   27  N4  UNL     1      23.002   5.935  47.881  1.00  0.00    -0.399 N 
HETATM   28  H8  UNL     1      22.171   6.551  47.980  1.00  0.00     0.156 HD
HETATM   29  H9  UNL     1      23.742   5.887  47.152  1.00  0.00     0.156 HD
ENDBRANCH   6  27
TORSDOF 5
ENDMDL
MODEL 2
REMARK VINA RESULT:      -8.1      3.091      6.633
REMARK  5 active torsions:
REMARK  status: ('A' for Active; 'I' for Inactive)
REMARK    1  A    between atoms: C1_2  and  O1_3 
REMARK    2  A    between atoms: O1_3  and  C2_4 
REMARK    3  A    between atoms: C5_7  and  C6_8 
REMARK    4  A    between atoms: C9_13  and  N4_14 
REMARK    5  A    between atoms: C10_15  and  N5_16 
ROOT
HETATM    1  C6  UNL     1      22.230   1.955  50.884  1.00  0.00     0.085 A 
HETATM    2  C7  UNL     1      21.075   2.221  51.761  1.00  0.00     0.125 A 
HETATM    3  N2  UNL     1      20.798   1.685  52.902  1.00  0.00    -0.183 NA
HETATM    4  N3  UNL     1      21.675   0.724  53.417  1.00  0.00    -0.246 N 
HETATM    5  C8  UNL     1      21.720  -0.060  54.588  1.00  0.00     0.145 A 
HETATM    6  C9  UNL     1      22.802  -0.851  54.611  1.00  0.00     0.049 A 
HETATM    7  C10 UNL     1      23.599  -0.634  53.382  1.00  0.00     0.182 A 
HETATM    8  C16 UNL     1      22.831   0.381  52.660  1.00  0.00     0.061 A 
HETATM    9  C17 UNL     1      23.113   0.930  51.491  1.00  0.00     0.018 A 
ENDROOT
BRANCH   1  10
HETATM   10  C5  UNL     1      22.924   3.209  50.535  1.00  0.00    -0.043 A 
HETATM   11  C4  UNL     1      22.339   4.455  50.579  1.00  0.00     0.011 A 
HETATM   12  C3  UNL     1      23.106   5.563  50.224  1.00  0.00     0.039 A 
HETATM   13  C2  UNL     1      24.439   5.433  49.831  1.00  0.00     0.098 A 
HETATM   14  C19 UNL     1      24.980   4.165  49.802  1.00  0.00     0.068 A 
HETATM   15  C18 UNL     1      24.240   3.072  50.147  1.00  0.00     0.035 A 
HETATM   16 CL1  UNL     1      26.667   4.190  49.285  1.00  0.00    -0.081 Cl
BRANCH  13  17
HETATM   17  O1  UNL     1      24.952   6.682  49.538  1.00  0.00    -0.303 OA
BRANCH  17  18
HETATM   18  C1  UNL     1      24.891   7.729  50.426  1.00  0.00     0.249 C 
HETATM   19  N1  UNL     1      26.154   7.528  50.714  1.00  0.00    -0.289 NA
HETATM   20  H1  UNL     1      26.550   8.182  51.430  1.00  0.00     0.188 HD
ENDBRANCH  17  18
ENDBRANCH  13  17
ENDBRANCH   1  10
BRANCH   7  21
HETATM   21  N5  UNL     1      24.966  -0.318  53.591  1.00  0.00    -0.398 N 
HETATM   22  C11 UNL     1      25.947  -1.094  52.955  1.00  0.00     0.118 C 
HETATM   23  C12 UNL     1      26.926  -0.406  52.073  1.00  0.00     0.019 C 
HETATM   24  C13 UNL     1      26.788   1.094  52.032  1.00  0.00     0.003 C 
HETATM   25  C14 UNL     1      26.559   1.565  53.442  1.00  0.00     0.019 C 
HETATM   26  C15 UNL     1      25.273   1.013  53.958  1.00  0.00     0.118 C 
ENDBRANCH   7  21
BRANCH   6  27
HETATM   27  N4  UNL     1      23.027  -1.725  55.718  1.00  0.00    -0.399 N 
HETATM   28  H8  UNL     1      23.081  -1.233  56.631  1.00  0.00     0.156 HD
HETATM   29  H9  UNL     1      23.106  -2.732  55.471  1.00  0.00     0.156 HD
ENDBRANCH   6  27
TORSDOF 5
ENDMDL
MODEL 3
REMARK VINA RESULT:      -7.8      3.050      6.844
REMARK  5 active torsions:
REMARK  status: ('A' for Active; 'I' for Inactive)
REMARK    1  A    between atoms: C1_2  and  O1_3 
REMARK    2  A    between atoms: O1_3  and  C2_4 
REMARK    3  A    between atoms: C5_7  and  C6_8 
REMARK    4  A    between atoms: C9_13  and  N4_14 
REMARK    5  A    between atoms: C10_15  and  N5_16 
ROOT
HETATM    1  C6  UNL     1      23.755   4.056  49.638  1.00  0.00     0.085 A 
HETATM    2  C7  UNL     1      22.516   4.359  50.379  1.00  0.00     0.125 A 
HETATM    3  N2  UNL     1      21.990   3.703  51.357  1.00  0.00    -0.183 NA
HETATM    4  N3  UNL     1      22.639   2.549  51.812  1.00  0.00    -0.246 N 
HETATM    5  C8  UNL     1      22.389   1.595  52.820  1.00  0.00     0.145 A 
HETATM    6  C9  UNL     1      23.341   0.652  52.853  1.00  0.00     0.049 A 
HETATM    7  C10 UNL     1      24.350   0.930  51.805  1.00  0.00     0.182 A 
HETATM    8  C16 UNL     1      23.848   2.152  51.175  1.00  0.00     0.061 A 
HETATM    9  C17 UNL     1      24.386   2.825  50.171  1.00  0.00     0.018 A 
ENDROOT
BRANCH   1  10
HETATM   10  C5  UNL     1      24.654   5.225  49.617  1.00  0.00    -0.043 A 
HETATM   11  C4  UNL     1      24.341   6.451  50.162  1.00  0.00     0.011 A 
HETATM   12  C3  UNL     1      25.281   7.477  50.075  1.00  0.00     0.039 A 
HETATM   13  C2  UNL     1      26.516   7.285  49.454  1.00  0.00     0.098 A 
HETATM   14  C19 UNL     1      26.782   6.040  48.923  1.00  0.00     0.068 A 
HETATM   15  C18 UNL     1      25.872   5.028  49.001  1.00  0.00     0.035 A 
HETATM   16 CL1  UNL     1      28.382   5.979  48.182  1.00  0.00    -0.081 Cl
BRANCH  13  17
HETATM   17  O1  UNL     1      27.242   8.459  49.512  1.00  0.00    -0.303 OA
BRANCH  17  18
HETATM   18  C1  UNL     1      26.749   9.600  50.099  1.00  0.00     0.249 C 
HETATM   19  N1  UNL     1      27.682   9.505  51.014  1.00  0.00    -0.289 NA
HETATM   20  H1  UNL     1      27.663  10.261  51.739  1.00  0.00     0.188 HD
ENDBRANCH  17  18
ENDBRANCH  13  17
ENDBRANCH   1  10
BRANCH   7  21
HETATM   21  N5  UNL     1      25.693   0.993  52.255  1.00  0.00    -0.398 N 
HETATM   22  C11 UNL     1      26.023   1.885  53.286  1.00  0.00     0.118 C 
HETATM   23  C12 UNL     1      26.657   1.338  54.515  1.00  0.00     0.019 C 
HETATM   24  C13 UNL     1      26.948  -0.140  54.465  1.00  0.00     0.003 C 
HETATM   25  C14 UNL     1      27.515  -0.443  53.105  1.00  0.00     0.019 C 
HETATM   26  C15 UNL     1      26.496  -0.155  52.055  1.00  0.00     0.118 C 
ENDBRANCH   7  21
BRANCH   6  27
HETATM   27  N4  UNL     1      23.267  -0.407  53.808  1.00  0.00    -0.399 N 
HETATM   28  H8  UNL     1      23.615  -0.141  54.750  1.00  0.00     0.156 HD
HETATM   29  H9  UNL     1      22.877  -1.299  53.443  1.00  0.00     0.156 HD
ENDBRANCH   6  27
TORSDOF 5
ENDMDL
MODEL 4
REMARK VINA RESULT:      -7.7      2.948      4.352
REMARK  5 active torsions:
REMARK  status: ('A' for Active; 'I' for Inactive)
REMARK    1  A    between atoms: C1_2  and  O1_3 
REMARK    2  A    between atoms: O1_3  and  C2_4 
REMARK    3  A    between atoms: C5_7  and  C6_8 
REMARK    4  A    between atoms: C9_13  and  N4_14 
REMARK    5  A    between atoms: C10_15  and  N5_16 
ROOT
HETATM    1  C6  UNL     1      21.779   0.978  53.200  1.00  0.00     0.085 A 
HETATM    2  C7  UNL     1      20.933  -0.218  53.368  1.00  0.00     0.125 A 
HETATM    3  N2  UNL     1      19.872  -0.544  52.710  1.00  0.00    -0.183 NA
HETATM    4  N3  UNL     1      19.427   0.311  51.696  1.00  0.00    -0.246 N 
HETATM    5  C8  UNL     1      18.350   0.304  50.785  1.00  0.00     0.145 A 
HETATM    6  C9  UNL     1      18.366   1.387  49.995  1.00  0.00     0.049 A 
HETATM    7  C10 UNL     1      19.524   2.240  50.346  1.00  0.00     0.182 A 
HETATM    8  C16 UNL     1      20.163   1.502  51.437  1.00  0.00     0.061 A 
HETATM    9  C17 UNL     1      21.249   1.837  52.113  1.00  0.00     0.018 A 
ENDROOT
BRANCH   1  10
HETATM   10  C5  UNL     1      23.194   0.600  53.024  1.00  0.00    -0.043 A 
HETATM   11  C4  UNL     1      23.767  -0.528  53.570  1.00  0.00     0.011 A 
HETATM   12  C3  UNL     1      25.118  -0.771  53.327  1.00  0.00     0.039 A 
HETATM   13  C2  UNL     1      25.889   0.096  52.551  1.00  0.00     0.098 A 
HETATM   14  C19 UNL     1      25.270   1.212  52.027  1.00  0.00     0.068 A 
HETATM   15  C18 UNL     1      23.950   1.462  52.257  1.00  0.00     0.035 A 
HETATM   16 CL1  UNL     1      26.391   2.189  51.077  1.00  0.00    -0.081 Cl
BRANCH  13  17
HETATM   17  O1  UNL     1      27.181  -0.386  52.478  1.00  0.00    -0.303 OA
BRANCH  17  18
HETATM   18  C1  UNL     1      28.125  -0.110  53.438  1.00  0.00     0.249 C 
HETATM   19  N1  UNL     1      28.492  -1.368  53.407  1.00  0.00    -0.289 NA
HETATM   20  H1  UNL     1      29.271  -1.614  54.062  1.00  0.00     0.188 HD
ENDBRANCH  17  18
ENDBRANCH  13  17
ENDBRANCH   1  10
BRANCH   7  21
HETATM   21  N5  UNL     1      20.379   2.579  49.268  1.00  0.00    -0.398 N 
HETATM   22  C11 UNL     1      20.894   3.882  49.193  1.00  0.00     0.118 C 
HETATM   23  C12 UNL     1      22.370   4.055  49.148  1.00  0.00     0.019 C 
HETATM   24  C13 UNL     1      23.151   2.766  49.106  1.00  0.00     0.003 C 
HETATM   25  C14 UNL     1      22.453   1.846  48.142  1.00  0.00     0.019 C 
HETATM   26  C15 UNL     1      21.088   1.523  48.648  1.00  0.00     0.118 C 
ENDBRANCH   7  21
BRANCH   6  27
HETATM   27  N4  UNL     1      17.353   1.563  49.004  1.00  0.00    -0.399 N 
HETATM   28  H8  UNL     1      16.410   1.255  49.313  1.00  0.00     0.156 HD
HETATM   29  H9  UNL     1      17.685   1.973  48.107  1.00  0.00     0.156 HD
ENDBRANCH   6  27
TORSDOF 5
ENDMDL
MODEL 5
REMARK VINA RESULT:      -7.6      2.594      4.615
REMARK  5 active torsions:
REMARK  status: ('A' for Active; 'I' for Inactive)
REMARK    1  A    between atoms: C1_2  and  O1_3 
REMARK    2  A    between atoms: O1_3  and  C2_4 
REMARK    3  A    between atoms: C5_7  and  C6_8 
REMARK    4  A    between atoms: C9_13  and  N4_14 
REMARK    5  A    between atoms: C10_15  and  N5_16 
ROOT
HETATM    1  C6  UNL     1      24.441   2.633  50.532  1.00  0.00     0.085 A 
HETATM    2  C7  UNL     1      24.946   3.967  50.906  1.00  0.00     0.125 A 
HETATM    3  N2  UNL     1      24.317   5.093  50.889  1.00  0.00    -0.183 NA
HETATM    4  N3  UNL     1      22.982   5.105  50.471  1.00  0.00    -0.246 N 
HETATM    5  C8  UNL     1      21.991   6.097  50.319  1.00  0.00     0.145 A 
HETATM    6  C9  UNL     1      20.838   5.579  49.873  1.00  0.00     0.049 A 
HETATM    7  C10 UNL     1      20.992   4.118  49.686  1.00  0.00     0.182 A 
HETATM    8  C16 UNL     1      22.379   3.875  50.083  1.00  0.00     0.061 A 
HETATM    9  C17 UNL     1      23.025   2.721  50.100  1.00  0.00     0.018 A 
ENDROOT
BRANCH   1  10
HETATM   10  C5  UNL     1      24.674   1.660  51.615  1.00  0.00    -0.043 A 
HETATM   11  C4  UNL     1      23.683   1.161  52.433  1.00  0.00     0.011 A 
HETATM   12  C3  UNL     1      24.036   0.244  53.421  1.00  0.00     0.039 A 
HETATM   13  C2  UNL     1      25.357  -0.171  53.595  1.00  0.00     0.098 A 
HETATM   14  C19 UNL     1      26.313   0.357  52.753  1.00  0.00     0.068 A 
HETATM   15  C18 UNL     1      25.982   1.255  51.781  1.00  0.00     0.035 A 
HETATM   16 CL1  UNL     1      27.919  -0.278  53.114  1.00  0.00    -0.081 Cl
BRANCH  13  17
HETATM   17  O1  UNL     1      25.417  -1.075  54.638  1.00  0.00    -0.303 OA
BRANCH  17  18
HETATM   18  C1  UNL     1      24.370  -1.264  55.509  1.00  0.00     0.249 C 
HETATM   19  N1  UNL     1      25.231  -1.329  56.495  1.00  0.00    -0.289 NA
HETATM   20  H1  UNL     1      24.806  -1.484  57.439  1.00  0.00     0.188 HD
ENDBRANCH  17  18
ENDBRANCH  13  17
ENDBRANCH   1  10
BRANCH   7  21
HETATM   21  N5  UNL     1      20.027   3.316  50.346  1.00  0.00    -0.398 N 
HETATM   22  C11 UNL     1      19.369   2.311  49.621  1.00  0.00     0.118 C 
HETATM   23  C12 UNL     1      19.453   0.912  50.119  1.00  0.00     0.019 C 
HETATM   24  C13 UNL     1      20.191   0.755  51.424  1.00  0.00     0.003 C 
HETATM   25  C14 UNL     1      19.747   1.870  52.331  1.00  0.00     0.019 C 
HETATM   26  C15 UNL     1      20.146   3.185  51.749  1.00  0.00     0.118 C 
ENDBRANCH   7  21
BRANCH   6  27
HETATM   27  N4  UNL     1      19.710   6.427  49.655  1.00  0.00    -0.399 N 
HETATM   28  H8  UNL     1      19.904   7.218  49.009  1.00  0.00     0.156 HD
HETATM   29  H9  UNL     1      18.848   6.148  50.165  1.00  0.00     0.156 HD
ENDBRANCH   6  27
TORSDOF 5
ENDMDL
MODEL 6
REMARK VINA RESULT:      -7.5      5.789      8.659
REMARK  5 active torsions:
REMARK  status: ('A' for Active; 'I' for Inactive)
REMARK    1  A    between atoms: C1_2  and  O1_3 
REMARK    2  A    between atoms: O1_3  and  C2_4 
REMARK    3  A    between atoms: C5_7  and  C6_8 
REMARK    4  A    between atoms: C9_13  and  N4_14 
REMARK    5  A    between atoms: C10_15  and  N5_16 
ROOT
HETATM    1  C6  UNL     1      29.094   7.614  47.902  1.00  0.00     0.085 A 
HETATM    2  C7  UNL     1      28.818   8.007  46.508  1.00  0.00     0.125 A 
HETATM    3  N2  UNL     1      29.621   7.983  45.498  1.00  0.00    -0.183 NA
HETATM    4  N3  UNL     1      30.932   7.535  45.698  1.00  0.00    -0.246 N 
HETATM    5  C8  UNL     1      32.065   7.366  44.876  1.00  0.00     0.145 A 
HETATM    6  C9  UNL     1      33.110   6.891  45.569  1.00  0.00     0.049 A 
HETATM    7  C10 UNL     1      32.719   6.699  46.984  1.00  0.00     0.182 A 
HETATM    8  C16 UNL     1      31.319   7.126  47.005  1.00  0.00     0.061 A 
HETATM    9  C17 UNL     1      30.496   7.152  48.040  1.00  0.00     0.018 A 
ENDROOT
BRANCH   1  10
HETATM   10  C5  UNL     1      28.096   6.639  48.380  1.00  0.00    -0.043 A 
HETATM   11  C4  UNL     1      28.295   5.276  48.402  1.00  0.00     0.011 A 
HETATM   12  C3  UNL     1      27.269   4.462  48.880  1.00  0.00     0.039 A 
HETATM   13  C2  UNL     1      26.061   4.997  49.330  1.00  0.00     0.098 A 
HETATM   14  C19 UNL     1      25.909   6.367  49.288  1.00  0.00     0.068 A 
HETATM   15  C18 UNL     1      26.905   7.175  48.823  1.00  0.00     0.035 A 
HETATM   16 CL1  UNL     1      24.329   6.864  49.894  1.00  0.00    -0.081 Cl
BRANCH  13  17
HETATM   17  O1  UNL     1      25.234   3.970  49.742  1.00  0.00    -0.303 OA
BRANCH  17  18
HETATM   18  C1  UNL     1      25.609   3.065  50.706  1.00  0.00     0.249 C 
HETATM   19  N1  UNL     1      24.973   3.784  51.598  1.00  0.00    -0.289 NA
HETATM   20  H1  UNL     1      25.013   3.408  52.574  1.00  0.00     0.188 HD
ENDBRANCH  17  18
ENDBRANCH  13  17
ENDBRANCH   1  10
BRANCH   7  21
HETATM   21  N5  UNL     1      32.961   5.405  47.512  1.00  0.00    -0.398 N 
HETATM   22  C11 UNL     1      32.281   4.308  46.962  1.00  0.00     0.118 C 
HETATM   23  C12 UNL     1      33.084   3.180  46.423  1.00  0.00     0.019 C 
HETATM   24  C13 UNL     1      34.573   3.322  46.612  1.00  0.00     0.003 C 
HETATM   25  C14 UNL     1      34.803   3.834  48.008  1.00  0.00     0.019 C 
HETATM   26  C15 UNL     1      34.203   5.192  48.155  1.00  0.00     0.118 C 
ENDBRANCH   7  21
BRANCH   6  27
HETATM   27  N4  UNL     1      34.355   6.652  44.912  1.00  0.00    -0.399 N 
HETATM   28  H8  UNL     1      34.893   5.860  45.315  1.00  0.00     0.156 HD
HETATM   29  H9  UNL     1      34.563   7.296  44.121  1.00  0.00     0.156 HD
ENDBRANCH   6  27
TORSDOF 5
ENDMDL
MODEL 7
REMARK VINA RESULT:      -7.4      2.220      3.096
REMARK  5 active torsions:
REMARK  status: ('A' for Active; 'I' for Inactive)
REMARK    1  A    between atoms: C1_2  and  O1_3 
REMARK    2  A    between atoms: O1_3  and  C2_4 
REMARK    3  A    between atoms: C5_7  and  C6_8 
REMARK    4  A    between atoms: C9_13  and  N4_14 
REMARK    5  A    between atoms: C10_15  and  N5_16 
ROOT
HETATM    1  C6  UNL     1      21.930   1.097  52.936  1.00  0.00     0.085 A 
HETATM    2  C7  UNL     1      21.055   0.116  52.268  1.00  0.00     0.125 A 
HETATM    3  N2  UNL     1      20.202   0.322  51.321  1.00  0.00    -0.183 NA
HETATM    4  N3  UNL     1      20.051   1.623  50.831  1.00  0.00    -0.246 N 
HETATM    5  C8  UNL     1      19.253   2.230  49.839  1.00  0.00     0.145 A 
HETATM    6  C9  UNL     1      19.490   3.546  49.752  1.00  0.00     0.049 A 
HETATM    7  C10 UNL     1      20.525   3.929  50.740  1.00  0.00     0.182 A 
HETATM    8  C16 UNL     1      20.844   2.661  51.398  1.00  0.00     0.061 A 
HETATM    9  C17 UNL     1      21.717   2.450  52.369  1.00  0.00     0.018 A 
ENDROOT
BRANCH   1  10
HETATM   10  C5  UNL     1      23.336   0.653  52.906  1.00  0.00    -0.043 A 
HETATM   11  C4  UNL     1      23.817  -0.443  53.589  1.00  0.00     0.011 A 
HETATM   12  C3  UNL     1      25.170  -0.757  53.476  1.00  0.00     0.039 A 
HETATM   13  C2  UNL     1      26.035   0.010  52.692  1.00  0.00     0.098 A 
HETATM   14  C19 UNL     1      25.507   1.098  52.029  1.00  0.00     0.068 A 
HETATM   15  C18 UNL     1      24.184   1.415  52.130  1.00  0.00     0.035 A 
HETATM   16 CL1  UNL     1      26.737   1.946  51.091  1.00  0.00    -0.081 Cl
BRANCH  13  17
HETATM   17  O1  UNL     1      27.307  -0.524  52.763  1.00  0.00    -0.303 OA
BRANCH  17  18
HETATM   18  C1  UNL     1      28.183  -0.206  53.773  1.00  0.00     0.249 C 
HETATM   19  N1  UNL     1      28.774  -1.362  53.593  1.00  0.00    -0.289 NA
HETATM   20  H1  UNL     1      29.585  -1.543  54.230  1.00  0.00     0.188 HD
ENDBRANCH  17  18
ENDBRANCH  13  17
ENDBRANCH   1  10
BRANCH   7  21
HETATM   21  N5  UNL     1      21.639   4.631  50.214  1.00  0.00    -0.398 N 
HETATM   22  C11 UNL     1      22.075   5.796  50.862  1.00  0.00     0.118 C 
HETATM   23  C12 UNL     1      23.486   5.858  51.328  1.00  0.00     0.019 C 
HETATM   24  C13 UNL     1      24.319   4.655  50.964  1.00  0.00     0.003 C 
HETATM   25  C14 UNL     1      23.993   4.293  49.541  1.00  0.00     0.019 C 
HETATM   26  C15 UNL     1      22.560   3.890  49.436  1.00  0.00     0.118 C 
ENDBRANCH   7  21
BRANCH   6  27
HETATM   27  N4  UNL     1      18.778   4.341  48.803  1.00  0.00    -0.399 N 
HETATM   28  H8  UNL     1      17.747   4.222  48.852  1.00  0.00     0.156 HD
HETATM   29  H9  UNL     1      19.376   4.931  48.190  1.00  0.00     0.156 HD
ENDBRANCH   6  27
TORSDOF 5
ENDMDL
MODEL 8
REMARK VINA RESULT:      -7.0      3.775      7.246
REMARK  5 active torsions:
REMARK  status: ('A' for Active; 'I' for Inactive)
REMARK    1  A    between atoms: C1_2  and  O1_3 
REMARK    2  A    between atoms: O1_3  and  C2_4 
REMARK    3  A    between atoms: C5_7  and  C6_8 
REMARK    4  A    between atoms: C9_13  and  N4_14 
REMARK    5  A    between atoms: C10_15  and  N5_16 
ROOT
HETATM    1  C6  UNL     1      21.615   1.649  51.030  1.00  0.00     0.085 A 
HETATM    2  C7  UNL     1      20.497   1.766  51.984  1.00  0.00     0.125 A 
HETATM    3  N2  UNL     1      20.384   1.228  53.152  1.00  0.00    -0.183 NA
HETATM    4  N3  UNL     1      21.430   0.424  53.620  1.00  0.00    -0.246 N 
HETATM    5  C8  UNL     1      21.673  -0.310  54.799  1.00  0.00     0.145 A 
HETATM    6  C9  UNL     1      22.861  -0.930  54.757  1.00  0.00     0.049 A 
HETATM    7  C10 UNL     1      23.530  -0.632  53.469  1.00  0.00     0.182 A 
HETATM    8  C16 UNL     1      22.569   0.236  52.787  1.00  0.00     0.061 A 
HETATM    9  C17 UNL     1      22.683   0.786  51.590  1.00  0.00     0.018 A 
ENDROOT
BRANCH   1  10
HETATM   10  C5  UNL     1      22.087   2.982  50.609  1.00  0.00    -0.043 A 
HETATM   11  C4  UNL     1      23.363   3.455  50.826  1.00  0.00     0.011 A 
HETATM   12  C3  UNL     1      23.683   4.735  50.376  1.00  0.00     0.039 A 
HETATM   13  C2  UNL     1      22.746   5.534  49.719  1.00  0.00     0.098 A 
HETATM   14  C19 UNL     1      21.482   5.017  49.527  1.00  0.00     0.068 A 
HETATM   15  C18 UNL     1      21.156   3.766  49.961  1.00  0.00     0.035 A 
HETATM   16 CL1  UNL     1      20.435   6.158  48.683  1.00  0.00    -0.081 Cl
BRANCH  13  17
HETATM   17  O1  UNL     1      23.329   6.742  49.389  1.00  0.00    -0.303 OA
BRANCH  17  18
HETATM   18  C1  UNL     1      23.623   7.699  50.331  1.00  0.00     0.249 C 
HETATM   19  N1  UNL     1      22.766   8.502  49.750  1.00  0.00    -0.289 NA
HETATM   20  H1  UNL     1      22.673   9.443  50.200  1.00  0.00     0.188 HD
ENDBRANCH  17  18
ENDBRANCH  13  17
ENDBRANCH   1  10
BRANCH   7  21
HETATM   21  N5  UNL     1      24.844  -0.111  53.572  1.00  0.00    -0.398 N 
HETATM   22  C11 UNL     1      25.910  -0.841  53.026  1.00  0.00     0.118 C 
HETATM   23  C12 UNL     1      26.769  -0.180  52.009  1.00  0.00     0.019 C 
HETATM   24  C13 UNL     1      26.427   1.263  51.741  1.00  0.00     0.003 C 
HETATM   25  C14 UNL     1      26.163   1.918  53.070  1.00  0.00     0.019 C 
HETATM   26  C15 UNL     1      24.974   1.291  53.716  1.00  0.00     0.118 C 
ENDBRANCH   7  21
BRANCH   6  27
HETATM   27  N4  UNL     1      23.292  -1.727  55.861  1.00  0.00    -0.399 N 
HETATM   28  H8  UNL     1      22.586  -1.803  56.619  1.00  0.00     0.156 HD
HETATM   29  H9  UNL     1      24.248  -2.127  55.766  1.00  0.00     0.156 HD
ENDBRANCH   6  27
TORSDOF 5
ENDMDL
MODEL 9
REMARK VINA RESULT:      -7.0      5.115      8.221
REMARK  5 active torsions:
REMARK  status: ('A' for Active; 'I' for Inactive)
REMARK    1  A    between atoms: C1_2  and  O1_3 
REMARK    2  A    between atoms: O1_3  and  C2_4 
REMARK    3  A    between atoms: C5_7  and  C6_8 
REMARK    4  A    between atoms: C9_13  and  N4_14 
REMARK    5  A    between atoms: C10_15  and  N5_16 
ROOT
HETATM    1  C6  UNL     1      28.979   6.562  47.616  1.00  0.00     0.085 A 
HETATM    2  C7  UNL     1      30.221   6.345  48.380  1.00  0.00     0.125 A 
HETATM    3  N2  UNL     1      31.167   7.188  48.624  1.00  0.00    -0.183 NA
HETATM    4  N3  UNL     1      31.045   8.490  48.124  1.00  0.00    -0.246 N 
HETATM    5  C8  UNL     1      31.835   9.657  48.175  1.00  0.00     0.145 A 
HETATM    6  C9  UNL     1      31.257  10.672  47.517  1.00  0.00     0.049 A 
HETATM    7  C10 UNL     1      29.966  10.222  46.948  1.00  0.00     0.182 A 
HETATM    8  C16 UNL     1      29.885   8.823  47.368  1.00  0.00     0.061 A 
HETATM    9  C17 UNL     1      28.918   7.957  47.118  1.00  0.00     0.018 A 
ENDROOT
BRANCH   1  10
HETATM   10  C5  UNL     1      27.800   6.159  48.406  1.00  0.00    -0.043 A 
HETATM   11  C4  UNL     1      27.456   4.852  48.671  1.00  0.00     0.011 A 
HETATM   12  C3  UNL     1      26.315   4.605  49.431  1.00  0.00     0.039 A 
HETATM   13  C2  UNL     1      25.525   5.646  49.922  1.00  0.00     0.098 A 
HETATM   14  C19 UNL     1      25.909   6.938  49.629  1.00  0.00     0.068 A 
HETATM   15  C18 UNL     1      27.024   7.193  48.887  1.00  0.00     0.035 A 
HETATM   16 CL1  UNL     1      24.801   8.119  50.328  1.00  0.00    -0.081 Cl
BRANCH  13  17
HETATM   17  O1  UNL     1      24.466   5.117  50.635  1.00  0.00    -0.303 OA
BRANCH  17  18
HETATM   18  C1  UNL     1      24.503   3.856  51.180  1.00  0.00     0.249 C 
HETATM   19  N1  UNL     1      24.112   4.363  52.323  1.00  0.00    -0.289 NA
HETATM   20  H1  UNL     1      24.003   3.667  53.098  1.00  0.00     0.188 HD
ENDBRANCH  17  18
ENDBRANCH  13  17
ENDBRANCH   1  10
BRANCH   7  21
HETATM   21  N5  UNL     1      28.842  11.018  47.286  1.00  0.00    -0.398 N 
HETATM   22  C11 UNL     1      28.641  11.373  48.628  1.00  0.00     0.118 C 
HETATM   23  C12 UNL     1      28.547  12.817  48.969  1.00  0.00     0.019 C 
HETATM   24  C13 UNL     1      28.602  13.746  47.783  1.00  0.00     0.003 C 
HETATM   25  C14 UNL     1      27.740  13.151  46.703  1.00  0.00     0.019 C 
HETATM   26  C15 UNL     1      28.303  11.840  46.269  1.00  0.00     0.118 C 
ENDBRANCH   7  21
BRANCH   6  27
HETATM   27  N4  UNL     1      31.905  11.943  47.453  1.00  0.00    -0.399 N 
HETATM   28  H8  UNL     1      31.552  12.551  46.688  1.00  0.00     0.156 HD
HETATM   29  H9  UNL     1      32.639  12.097  48.174  1.00  0.00     0.156 HD
ENDBRANCH   6  27
TORSDOF 5
ENDMDL
