MODEL 1
REMARK VINA RESULT:      -7.4      0.000      0.000
REMARK  5 active torsions:
REMARK  status: ('A' for Active; 'I' for Inactive)
REMARK    1  A    between atoms: C2_2  and  O1_3 
REMARK    2  A    between atoms: O1_3  and  C3_4 
REMARK    3  A    between atoms: C3_4  and  C4_5 
REMARK    4  A    between atoms: C4_5  and  C5_6 
REMARK    5  A    between atoms: C6_7  and  C7_8 
ROOT
HETATM    1  C7  UNL     1      24.654  -0.014  54.023  1.00  0.00     0.186 C 
HETATM    2  C8  UNL     1      24.752   1.269  53.349  1.00  0.00     0.028 C 
HETATM    3  C9  UNL     1      24.981   2.376  52.682  1.00  0.00     0.087 C 
HETATM    4  N1  UNL     1      26.089   2.759  51.858  1.00  0.00    -0.366 N 
HETATM    5  C10 UNL     1      27.149   2.029  52.530  1.00  0.00     0.035 A 
HETATM    6  C11 UNL     1      28.120   2.469  53.404  1.00  0.00     0.056 A 
HETATM    7  C12 UNL     1      28.992   1.583  54.003  1.00  0.00     0.077 A 
HETATM    8 CL1  UNL     1      30.142   2.300  55.068  1.00  0.00    -0.081 Cl
HETATM    9  C13 UNL     1      28.900   0.240  53.730  1.00  0.00     0.166 A 
HETATM   10  F1  UNL     1      29.755  -0.622  54.318  1.00  0.00    -0.202 F 
HETATM   11  C14 UNL     1      27.934  -0.195  52.857  1.00  0.00     0.100 A 
HETATM   12  C15 UNL     1      27.052   0.659  52.243  1.00  0.00     0.064 A 
HETATM   13  N2  UNL     1      27.710  -1.592  52.554  1.00  0.00    -0.241 NA
HETATM   14  C16 UNL     1      26.476  -1.949  52.877  1.00  0.00     0.204 C 
HETATM   15  N3  UNL     1      25.562  -0.979  53.452  1.00  0.00    -0.366 N 
HETATM   16  H13 UNL     1      26.805   3.085  51.220  1.00  0.00     0.165 HD
HETATM   17  H17 UNL     1      24.969  -1.101  52.568  1.00  0.00     0.161 HD
ENDROOT
BRANCH   1  18
HETATM   18  C6  UNL     1      23.278  -0.576  54.073  1.00  0.00    -0.077 C 
HETATM   19  C5  UNL     1      22.158  -1.010  54.112  1.00  0.00    -0.102 C 
BRANCH  19  20
HETATM   20  C4  UNL     1      20.775  -1.534  54.142  1.00  0.00     0.120 C 
BRANCH  20  21
HETATM   21  C3  UNL     1      19.934  -0.509  53.465  1.00  0.00     0.179 C 
BRANCH  21  22
HETATM   22  O1  UNL     1      18.639  -0.918  53.214  1.00  0.00    -0.391 OA
BRANCH  22  23
HETATM   23  C2  UNL     1      18.162  -0.496  52.002  1.00  0.00     0.163 C 
HETATM   24  C1  UNL     1      19.252   0.353  51.362  1.00  0.00     0.033 C 
ENDBRANCH  22  23
ENDBRANCH  21  22
ENDBRANCH  20  21
ENDBRANCH  19  20
ENDBRANCH   1  18
TORSDOF 5
ENDMDL
MODEL 2
REMARK VINA RESULT:      -7.3      4.906      7.423
REMARK  5 active torsions:
REMARK  status: ('A' for Active; 'I' for Inactive)
REMARK    1  A    between atoms: C2_2  and  O1_3 
REMARK    2  A    between atoms: O1_3  and  C3_4 
REMARK    3  A    between atoms: C3_4  and  C4_5 
REMARK    4  A    between atoms: C4_5  and  C5_6 
REMARK    5  A    between atoms: C6_7  and  C7_8 
ROOT
HETATM    1  C7  UNL     1      26.017   3.106  50.453  1.00  0.00     0.186 C 
HETATM    2  C8  UNL     1      24.726   3.684  50.784  1.00  0.00     0.028 C 
HETATM    3  C9  UNL     1      23.578   4.139  51.227  1.00  0.00     0.087 C 
HETATM    4  N1  UNL     1      22.933   3.971  52.496  1.00  0.00    -0.366 N 
HETATM    5  C10 UNL     1      23.426   2.651  52.841  1.00  0.00     0.035 A 
HETATM    6  C11 UNL     1      22.805   1.422  52.777  1.00  0.00     0.056 A 
HETATM    7  C12 UNL     1      23.490   0.262  53.078  1.00  0.00     0.077 A 
HETATM    8 CL1  UNL     1      22.565  -1.186  52.946  1.00  0.00    -0.081 Cl
HETATM    9  C13 UNL     1      24.811   0.323  53.449  1.00  0.00     0.166 A 
HETATM   10  F1  UNL     1      25.477  -0.814  53.741  1.00  0.00    -0.202 F 
HETATM   11  C14 UNL     1      25.427   1.548  53.514  1.00  0.00     0.100 A 
HETATM   12  C15 UNL     1      24.774   2.720  53.224  1.00  0.00     0.064 A 
HETATM   13  N2  UNL     1      26.829   1.716  53.828  1.00  0.00    -0.241 NA
HETATM   14  C16 UNL     1      27.463   2.320  52.834  1.00  0.00     0.204 C 
HETATM   15  N3  UNL     1      26.738   2.714  51.639  1.00  0.00    -0.366 N 
HETATM   16  H13 UNL     1      22.437   3.948  53.379  1.00  0.00     0.165 HD
HETATM   17  H17 UNL     1      26.964   3.727  51.907  1.00  0.00     0.161 HD
ENDROOT
BRANCH   1  18
HETATM   18  C6  UNL     1      26.874   3.971  49.597  1.00  0.00    -0.077 C 
HETATM   19  C5  UNL     1      27.555   4.686  48.912  1.00  0.00    -0.102 C 
BRANCH  19  20
HETATM   20  C4  UNL     1      28.397   5.578  48.086  1.00  0.00     0.120 C 
BRANCH  20  21
HETATM   21  C3  UNL     1      27.699   6.893  48.062  1.00  0.00     0.179 C 
BRANCH  21  22
HETATM   22  O1  UNL     1      28.210   7.820  48.949  1.00  0.00    -0.391 OA
BRANCH  22  23
HETATM   23  C2  UNL     1      27.273   8.707  49.408  1.00  0.00     0.163 C 
HETATM   24  C1  UNL     1      26.192   7.895  50.107  1.00  0.00     0.033 C 
ENDBRANCH  22  23
ENDBRANCH  21  22
ENDBRANCH  20  21
ENDBRANCH  19  20
ENDBRANCH   1  18
TORSDOF 5
ENDMDL
MODEL 3
REMARK VINA RESULT:      -7.2      4.976      7.948
REMARK  5 active torsions:
REMARK  status: ('A' for Active; 'I' for Inactive)
REMARK    1  A    between atoms: C2_2  and  O1_3 
REMARK    2  A    between atoms: O1_3  and  C3_4 
REMARK    3  A    between atoms: C3_4  and  C4_5 
REMARK    4  A    between atoms: C4_5  and  C5_6 
REMARK    5  A    between atoms: C6_7  and  C7_8 
ROOT
HETATM    1  C7  UNL     1      25.986   3.223  50.439  1.00  0.00     0.186 C 
HETATM    2  C8  UNL     1      24.696   3.772  50.817  1.00  0.00     0.028 C 
HETATM    3  C9  UNL     1      23.552   4.197  51.300  1.00  0.00     0.087 C 
HETATM    4  N1  UNL     1      22.941   3.985  52.578  1.00  0.00    -0.366 N 
HETATM    5  C10 UNL     1      23.459   2.662  52.874  1.00  0.00     0.035 A 
HETATM    6  C11 UNL     1      22.854   1.426  52.789  1.00  0.00     0.056 A 
HETATM    7  C12 UNL     1      23.562   0.269  53.040  1.00  0.00     0.077 A 
HETATM    8 CL1  UNL     1      22.654  -1.188  52.888  1.00  0.00    -0.081 Cl
HETATM    9  C13 UNL     1      24.891   0.337  53.381  1.00  0.00     0.166 A 
HETATM   10  F1  UNL     1      25.579  -0.797  53.625  1.00  0.00    -0.202 F 
HETATM   11  C14 UNL     1      25.491   1.570  53.467  1.00  0.00     0.100 A 
HETATM   12  C15 UNL     1      24.816   2.740  53.226  1.00  0.00     0.064 A 
HETATM   13  N2  UNL     1      26.898   1.748  53.753  1.00  0.00    -0.241 NA
HETATM   14  C16 UNL     1      27.499   2.390  52.761  1.00  0.00     0.204 C 
HETATM   15  N3  UNL     1      26.740   2.808  51.596  1.00  0.00    -0.366 N 
HETATM   16  H13 UNL     1      22.466   3.929  53.471  1.00  0.00     0.165 HD
HETATM   17  H17 UNL     1      26.959   3.815  51.888  1.00  0.00     0.161 HD
ENDROOT
BRANCH   1  18
HETATM   18  C6  UNL     1      26.810   4.124  49.589  1.00  0.00    -0.077 C 
HETATM   19  C5  UNL     1      27.491   4.849  48.915  1.00  0.00    -0.102 C 
BRANCH  19  20
HETATM   20  C4  UNL     1      28.345   5.726  48.084  1.00  0.00     0.120 C 
BRANCH  20  21
HETATM   21  C3  UNL     1      29.692   5.092  48.070  1.00  0.00     0.179 C 
BRANCH  21  22
HETATM   22  O1  UNL     1      30.566   5.604  49.009  1.00  0.00    -0.391 OA
BRANCH  22  23
HETATM   23  C2  UNL     1      31.878   5.537  48.623  1.00  0.00     0.163 C 
HETATM   24  C1  UNL     1      31.986   4.419  47.595  1.00  0.00     0.033 C 
ENDBRANCH  22  23
ENDBRANCH  21  22
ENDBRANCH  20  21
ENDBRANCH  19  20
ENDBRANCH   1  18
TORSDOF 5
ENDMDL
MODEL 4
REMARK VINA RESULT:      -7.0      3.698      5.500
REMARK  5 active torsions:
REMARK  status: ('A' for Active; 'I' for Inactive)
REMARK    1  A    between atoms: C2_2  and  O1_3 
REMARK    2  A    between atoms: O1_3  and  C3_4 
REMARK    3  A    between atoms: C3_4  and  C4_5 
REMARK    4  A    between atoms: C4_5  and  C5_6 
REMARK    5  A    between atoms: C6_7  and  C7_8 
ROOT
HETATM    1  C7  UNL     1      26.655   2.318  51.102  1.00  0.00     0.186 C 
HETATM    2  C8  UNL     1      25.480   1.582  51.535  1.00  0.00     0.028 C 
HETATM    3  C9  UNL     1      24.502   0.880  52.058  1.00  0.00     0.087 C 
HETATM    4  N1  UNL     1      24.430   0.152  53.290  1.00  0.00    -0.366 N 
HETATM    5  C10 UNL     1      25.819  -0.249  53.412  1.00  0.00     0.035 A 
HETATM    6  C11 UNL     1      26.424  -1.461  53.157  1.00  0.00     0.056 A 
HETATM    7  C12 UNL     1      27.793  -1.608  53.259  1.00  0.00     0.077 A 
HETATM    8 CL1  UNL     1      28.384  -3.188  52.905  1.00  0.00    -0.081 Cl
HETATM    9  C13 UNL     1      28.573  -0.537  53.621  1.00  0.00     0.166 A 
HETATM   10  F1  UNL     1      29.910  -0.687  53.719  1.00  0.00    -0.202 F 
HETATM   11  C14 UNL     1      27.968   0.668  53.877  1.00  0.00     0.100 A 
HETATM   12  C15 UNL     1      26.610   0.849  53.787  1.00  0.00     0.064 A 
HETATM   13  N2  UNL     1      28.703   1.872  54.199  1.00  0.00    -0.241 NA
HETATM   14  C16 UNL     1      28.458   2.822  53.308  1.00  0.00     0.204 C 
HETATM   15  N3  UNL     1      27.553   2.569  52.201  1.00  0.00    -0.366 N 
HETATM   16  H13 UNL     1      24.278  -0.339  54.163  1.00  0.00     0.165 HD
HETATM   17  H17 UNL     1      26.917   3.319  52.627  1.00  0.00     0.161 HD
ENDROOT
BRANCH   1  18
HETATM   18  C6  UNL     1      26.353   3.588  50.388  1.00  0.00    -0.077 C 
HETATM   19  C5  UNL     1      26.119   4.624  49.826  1.00  0.00    -0.102 C 
BRANCH  19  20
HETATM   20  C4  UNL     1      25.853   5.904  49.134  1.00  0.00     0.120 C 
BRANCH  20  21
HETATM   21  C3  UNL     1      24.563   6.406  49.684  1.00  0.00     0.179 C 
BRANCH  21  22
HETATM   22  O1  UNL     1      24.410   6.200  51.041  1.00  0.00    -0.391 OA
BRANCH  22  23
HETATM   23  C2  UNL     1      23.169   5.735  51.382  1.00  0.00     0.163 C 
HETATM   24  C1  UNL     1      23.351   4.795  52.565  1.00  0.00     0.033 C 
ENDBRANCH  22  23
ENDBRANCH  21  22
ENDBRANCH  20  21
ENDBRANCH  19  20
ENDBRANCH   1  18
TORSDOF 5
ENDMDL
MODEL 5
REMARK VINA RESULT:      -6.9      4.231      6.546
REMARK  5 active torsions:
REMARK  status: ('A' for Active; 'I' for Inactive)
REMARK    1  A    between atoms: C2_2  and  O1_3 
REMARK    2  A    between atoms: O1_3  and  C3_4 
REMARK    3  A    between atoms: C3_4  and  C4_5 
REMARK    4  A    between atoms: C4_5  and  C5_6 
REMARK    5  A    between atoms: C6_7  and  C7_8 
ROOT
HETATM    1  C7  UNL     1      26.653   2.333  51.145  1.00  0.00     0.186 C 
HETATM    2  C8  UNL     1      25.490   1.583  51.586  1.00  0.00     0.028 C 
HETATM    3  C9  UNL     1      24.525   0.868  52.115  1.00  0.00     0.087 C 
HETATM    4  N1  UNL     1      24.474   0.130  53.343  1.00  0.00    -0.366 N 
HETATM    5  C10 UNL     1      25.868  -0.258  53.447  1.00  0.00     0.035 A 
HETATM    6  C11 UNL     1      26.482  -1.462  53.176  1.00  0.00     0.056 A 
HETATM    7  C12 UNL     1      27.853  -1.597  53.262  1.00  0.00     0.077 A 
HETATM    8 CL1  UNL     1      28.455  -3.168  52.891  1.00  0.00    -0.081 Cl
HETATM    9  C13 UNL     1      28.627  -0.521  53.623  1.00  0.00     0.166 A 
HETATM   10  F1  UNL     1      29.966  -0.658  53.704  1.00  0.00    -0.202 F 
HETATM   11  C14 UNL     1      28.013   0.677  53.893  1.00  0.00     0.100 A 
HETATM   12  C15 UNL     1      26.652   0.845  53.820  1.00  0.00     0.064 A 
HETATM   13  N2  UNL     1      28.739   1.886  54.216  1.00  0.00    -0.241 NA
HETATM   14  C16 UNL     1      28.475   2.840  53.335  1.00  0.00     0.204 C 
HETATM   15  N3  UNL     1      27.561   2.585  52.236  1.00  0.00    -0.366 N 
HETATM   16  H13 UNL     1      24.336  -0.368  54.214  1.00  0.00     0.165 HD
HETATM   17  H17 UNL     1      26.922   3.326  52.674  1.00  0.00     0.161 HD
ENDROOT
BRANCH   1  18
HETATM   18  C6  UNL     1      26.331   3.605  50.443  1.00  0.00    -0.077 C 
HETATM   19  C5  UNL     1      26.085   4.642  49.888  1.00  0.00    -0.102 C 
BRANCH  19  20
HETATM   20  C4  UNL     1      25.803   5.920  49.199  1.00  0.00     0.120 C 
BRANCH  20  21
HETATM   21  C3  UNL     1      25.323   6.856  50.253  1.00  0.00     0.179 C 
BRANCH  21  22
HETATM   22  O1  UNL     1      25.966   8.079  50.258  1.00  0.00    -0.391 OA
BRANCH  22  23
HETATM   23  C2  UNL     1      27.022   8.140  49.389  1.00  0.00     0.163 C 
HETATM   24  C1  UNL     1      27.914   9.286  49.845  1.00  0.00     0.033 C 
ENDBRANCH  22  23
ENDBRANCH  21  22
ENDBRANCH  20  21
ENDBRANCH  19  20
ENDBRANCH   1  18
TORSDOF 5
ENDMDL
MODEL 6
REMARK VINA RESULT:      -6.7      6.261      9.317
REMARK  5 active torsions:
REMARK  status: ('A' for Active; 'I' for Inactive)
REMARK    1  A    between atoms: C2_2  and  O1_3 
REMARK    2  A    between atoms: O1_3  and  C3_4 
REMARK    3  A    between atoms: C3_4  and  C4_5 
REMARK    4  A    between atoms: C4_5  and  C5_6 
REMARK    5  A    between atoms: C6_7  and  C7_8 
ROOT
HETATM    1  C7  UNL     1      26.420   5.207  49.077  1.00  0.00     0.186 C 
HETATM    2  C8  UNL     1      25.741   6.246  49.832  1.00  0.00     0.028 C 
HETATM    3  C9  UNL     1      25.070   7.067  50.605  1.00  0.00     0.087 C 
HETATM    4  N1  UNL     1      24.224   6.807  51.732  1.00  0.00    -0.366 N 
HETATM    5  C10 UNL     1      23.700   5.511  51.343  1.00  0.00     0.035 A 
HETATM    6  C11 UNL     1      22.476   5.166  50.810  1.00  0.00     0.056 A 
HETATM    7  C12 UNL     1      22.207   3.868  50.428  1.00  0.00     0.077 A 
HETATM    8 CL1  UNL     1      20.631   3.611  49.780  1.00  0.00    -0.081 Cl
HETATM    9  C13 UNL     1      23.166   2.896  50.577  1.00  0.00     0.166 A 
HETATM   10  F1  UNL     1      22.898   1.628  50.201  1.00  0.00    -0.202 F 
HETATM   11  C14 UNL     1      24.384   3.242  51.110  1.00  0.00     0.100 A 
HETATM   12  C15 UNL     1      24.683   4.522  51.503  1.00  0.00     0.064 A 
HETATM   13  N2  UNL     1      25.482   2.310  51.248  1.00  0.00    -0.241 NA
HETATM   14  C16 UNL     1      26.538   2.728  50.565  1.00  0.00     0.204 C 
HETATM   15  N3  UNL     1      26.479   3.972  49.819  1.00  0.00    -0.366 N 
HETATM   16  H13 UNL     1      23.657   6.715  52.567  1.00  0.00     0.165 HD
HETATM   17  H17 UNL     1      27.229   4.342  50.489  1.00  0.00     0.161 HD
ENDROOT
BRANCH   1  18
HETATM   18  C6  UNL     1      27.779   5.584  48.603  1.00  0.00    -0.077 C 
HETATM   19  C5  UNL     1      28.871   5.885  48.201  1.00  0.00    -0.102 C 
BRANCH  19  20
HETATM   20  C4  UNL     1      30.205   6.270  47.692  1.00  0.00     0.120 C 
BRANCH  20  21
HETATM   21  C3  UNL     1      31.188   5.739  48.677  1.00  0.00     0.179 C 
BRANCH  21  22
HETATM   22  O1  UNL     1      31.761   4.537  48.310  1.00  0.00    -0.391 OA
BRANCH  22  23
HETATM   23  C2  UNL     1      32.100   4.480  46.984  1.00  0.00     0.163 C 
HETATM   24  C1  UNL     1      32.057   3.015  46.573  1.00  0.00     0.033 C 
ENDBRANCH  22  23
ENDBRANCH  21  22
ENDBRANCH  20  21
ENDBRANCH  19  20
ENDBRANCH   1  18
TORSDOF 5
ENDMDL
MODEL 7
REMARK VINA RESULT:      -6.6      7.851      9.916
REMARK  5 active torsions:
REMARK  status: ('A' for Active; 'I' for Inactive)
REMARK    1  A    between atoms: C2_2  and  O1_3 
REMARK    2  A    between atoms: O1_3  and  C3_4 
REMARK    3  A    between atoms: C3_4  and  C4_5 
REMARK    4  A    between atoms: C4_5  and  C5_6 
REMARK    5  A    between atoms: C6_7  and  C7_8 
ROOT
HETATM    1  C7  UNL     1      27.667   6.451  48.424  1.00  0.00     0.186 C 
HETATM    2  C8  UNL     1      29.099   6.541  48.197  1.00  0.00     0.028 C 
HETATM    3  C9  UNL     1      30.383   6.770  48.052  1.00  0.00     0.087 C 
HETATM    4  N1  UNL     1      31.164   7.932  48.356  1.00  0.00    -0.366 N 
HETATM    5  C10 UNL     1      30.166   8.959  48.123  1.00  0.00     0.035 A 
HETATM    6  C11 UNL     1      29.991   9.808  47.050  1.00  0.00     0.056 A 
HETATM    7  C12 UNL     1      28.912  10.665  46.990  1.00  0.00     0.077 A 
HETATM    8 CL1  UNL     1      28.846  11.655  45.581  1.00  0.00    -0.081 Cl
HETATM    9  C13 UNL     1      27.991  10.682  48.009  1.00  0.00     0.166 A 
HETATM   10  F1  UNL     1      26.937  11.521  47.944  1.00  0.00    -0.202 F 
HETATM   11  C14 UNL     1      28.168   9.837  49.077  1.00  0.00     0.100 A 
HETATM   12  C15 UNL     1      29.231   8.974  49.170  1.00  0.00     0.064 A 
HETATM   13  N2  UNL     1      27.223   9.729  50.167  1.00  0.00    -0.241 NA
HETATM   14  C16 UNL     1      26.759   8.491  50.264  1.00  0.00     0.204 C 
HETATM   15  N3  UNL     1      27.215   7.468  49.341  1.00  0.00    -0.366 N 
HETATM   16  H13 UNL     1      31.795   8.689  48.591  1.00  0.00     0.165 HD
HETATM   17  H17 UNL     1      27.646   6.977  50.190  1.00  0.00     0.161 HD
ENDROOT
BRANCH   1  18
HETATM   18  C6  UNL     1      27.202   5.112  48.876  1.00  0.00    -0.077 C 
HETATM   19  C5  UNL     1      26.828   4.036  49.260  1.00  0.00    -0.102 C 
BRANCH  19  20
HETATM   20  C4  UNL     1      26.353   2.722  49.746  1.00  0.00     0.120 C 
BRANCH  20  21
HETATM   21  C3  UNL     1      26.346   2.813  51.232  1.00  0.00     0.179 C 
BRANCH  21  22
HETATM   22  O1  UNL     1      27.549   2.477  51.824  1.00  0.00    -0.391 OA
BRANCH  22  23
HETATM   23  C2  UNL     1      27.423   2.108  53.136  1.00  0.00     0.163 C 
HETATM   24  C1  UNL     1      25.937   2.114  53.464  1.00  0.00     0.033 C 
ENDBRANCH  22  23
ENDBRANCH  21  22
ENDBRANCH  20  21
ENDBRANCH  19  20
ENDBRANCH   1  18
TORSDOF 5
ENDMDL
MODEL 8
REMARK VINA RESULT:      -6.6      5.347      7.641
REMARK  5 active torsions:
REMARK  status: ('A' for Active; 'I' for Inactive)
REMARK    1  A    between atoms: C2_2  and  O1_3 
REMARK    2  A    between atoms: O1_3  and  C3_4 
REMARK    3  A    between atoms: C3_4  and  C4_5 
REMARK    4  A    between atoms: C4_5  and  C5_6 
REMARK    5  A    between atoms: C6_7  and  C7_8 
ROOT
HETATM    1  C7  UNL     1      24.486   2.540  51.002  1.00  0.00     0.186 C 
HETATM    2  C8  UNL     1      25.556   3.324  50.410  1.00  0.00     0.028 C 
HETATM    3  C9  UNL     1      26.426   4.159  49.893  1.00  0.00     0.087 C 
HETATM    4  N1  UNL     1      26.346   5.572  49.668  1.00  0.00    -0.366 N 
HETATM    5  C10 UNL     1      24.921   5.694  49.425  1.00  0.00     0.035 A 
HETATM    6  C11 UNL     1      24.226   5.838  48.243  1.00  0.00     0.056 A 
HETATM    7  C12 UNL     1      22.846   5.852  48.226  1.00  0.00     0.077 A 
HETATM    8 CL1  UNL     1      22.139   6.039  46.666  1.00  0.00    -0.081 Cl
HETATM    9  C13 UNL     1      22.144   5.722  49.399  1.00  0.00     0.166 A 
HETATM   10  F1  UNL     1      20.795   5.736  49.377  1.00  0.00    -0.202 F 
HETATM   11  C14 UNL     1      22.839   5.581  50.576  1.00  0.00     0.100 A 
HETATM   12  C15 UNL     1      24.210   5.565  50.629  1.00  0.00     0.064 A 
HETATM   13  N2  UNL     1      22.197   5.371  51.855  1.00  0.00    -0.241 NA
HETATM   14  C16 UNL     1      22.589   4.225  52.393  1.00  0.00     0.204 C 
HETATM   15  N3  UNL     1      23.540   3.380  51.695  1.00  0.00    -0.366 N 
HETATM   16  H13 UNL     1      26.392   6.574  49.526  1.00  0.00     0.165 HD
HETATM   17  H17 UNL     1      24.212   3.564  52.510  1.00  0.00     0.161 HD
ENDROOT
BRANCH   1  18
HETATM   18  C6  UNL     1      24.952   1.447  51.898  1.00  0.00    -0.077 C 
HETATM   19  C5  UNL     1      25.309   0.558  52.623  1.00  0.00    -0.102 C 
BRANCH  19  20
HETATM   20  C4  UNL     1      25.740  -0.552  53.501  1.00  0.00     0.120 C 
BRANCH  20  21
HETATM   21  C3  UNL     1      26.417   0.085  54.664  1.00  0.00     0.179 C 
BRANCH  21  22
HETATM   22  O1  UNL     1      27.636  -0.479  54.986  1.00  0.00    -0.391 OA
BRANCH  22  23
HETATM   23  C2  UNL     1      28.705   0.307  54.646  1.00  0.00     0.163 C 
HETATM   24  C1  UNL     1      29.590  -0.515  53.721  1.00  0.00     0.033 C 
ENDBRANCH  22  23
ENDBRANCH  21  22
ENDBRANCH  20  21
ENDBRANCH  19  20
ENDBRANCH   1  18
TORSDOF 5
ENDMDL
MODEL 9
REMARK VINA RESULT:      -6.6      6.009      8.425
REMARK  5 active torsions:
REMARK  status: ('A' for Active; 'I' for Inactive)
REMARK    1  A    between atoms: C2_2  and  O1_3 
REMARK    2  A    between atoms: O1_3  and  C3_4 
REMARK    3  A    between atoms: C3_4  and  C4_5 
REMARK    4  A    between atoms: C4_5  and  C5_6 
REMARK    5  A    between atoms: C6_7  and  C7_8 
ROOT
HETATM    1  C7  UNL     1      25.804   3.939  49.854  1.00  0.00     0.186 C 
HETATM    2  C8  UNL     1      26.969   4.571  49.260  1.00  0.00     0.028 C 
HETATM    3  C9  UNL     1      27.951   5.281  48.757  1.00  0.00     0.087 C 
HETATM    4  N1  UNL     1      28.118   6.701  48.650  1.00  0.00    -0.366 N 
HETATM    5  C10 UNL     1      26.729   7.094  48.507  1.00  0.00     0.035 A 
HETATM    6  C11 UNL     1      26.016   7.463  47.385  1.00  0.00     0.056 A 
HETATM    7  C12 UNL     1      24.662   7.722  47.456  1.00  0.00     0.077 A 
HETATM    8 CL1  UNL     1      23.927   8.169  45.963  1.00  0.00    -0.081 Cl
HETATM    9  C13 UNL     1      24.005   7.614  48.657  1.00  0.00     0.166 A 
HETATM   10  F1  UNL     1      22.682   7.868  48.721  1.00  0.00    -0.202 F 
HETATM   11  C14 UNL     1      24.717   7.249  49.773  1.00  0.00     0.100 A 
HETATM   12  C15 UNL     1      26.064   6.986  49.738  1.00  0.00     0.064 A 
HETATM   13  N2  UNL     1      24.109   7.043  51.069  1.00  0.00    -0.241 NA
HETATM   14  C16 UNL     1      24.312   5.802  51.489  1.00  0.00     0.204 C 
HETATM   15  N3  UNL     1      25.060   4.868  50.669  1.00  0.00    -0.366 N 
HETATM   16  H13 UNL     1      28.338   7.687  48.585  1.00  0.00     0.165 HD
HETATM   17  H17 UNL     1      25.792   4.858  51.452  1.00  0.00     0.161 HD
ENDROOT
BRANCH   1  18
HETATM   18  C6  UNL     1      26.106   2.706  50.630  1.00  0.00    -0.077 C 
HETATM   19  C5  UNL     1      26.363   1.704  51.243  1.00  0.00    -0.102 C 
BRANCH  19  20
HETATM   20  C4  UNL     1      26.701   0.477  51.996  1.00  0.00     0.120 C 
BRANCH  20  21
HETATM   21  C3  UNL     1      27.026   0.922  53.379  1.00  0.00     0.179 C 
BRANCH  21  22
HETATM   22  O1  UNL     1      27.793   0.024  54.095  1.00  0.00    -0.391 OA
BRANCH  22  23
HETATM   23  C2  UNL     1      29.121   0.354  54.133  1.00  0.00     0.163 C 
HETATM   24  C1  UNL     1      29.895  -0.831  53.573  1.00  0.00     0.033 C 
ENDBRANCH  22  23
ENDBRANCH  21  22
ENDBRANCH  20  21
ENDBRANCH  19  20
ENDBRANCH   1  18
TORSDOF 5
ENDMDL
