MODEL 1
REMARK VINA RESULT:      -9.9      0.000      0.000
REMARK  3 active torsions:
REMARK  status: ('A' for Active; 'I' for Inactive)
REMARK    1  A    between atoms: C7_9  and  O2_10 
REMARK    2  A    between atoms: O2_10  and  C8_11 
REMARK    3  A    between atoms: C8_11  and  C9_12 
ROOT
HETATM    1  O1  UNL     1      23.598   3.910  47.893  1.00  0.00    -0.273 OA
HETATM    2  C1  UNL     1      23.068   4.645  48.699  1.00  0.00     0.220 C 
HETATM    3  C2  UNL     1      23.913   5.746  49.074  1.00  0.00     0.110 C 
HETATM    4  C3  UNL     1      25.384   5.359  49.092  1.00  0.00     0.079 C 
HETATM    5  C4  UNL     1      25.668   4.173  49.870  1.00  0.00     0.094 C 
HETATM    6  F1  UNL     1      24.980   4.332  51.024  1.00  0.00    -0.211 F 
HETATM    7  C5  UNL     1      26.012   3.066  50.452  1.00  0.00     0.040 C 
HETATM    8  C6  UNL     1      26.211   1.935  51.316  1.00  0.00     0.035 C 
HETATM    9  C7  UNL     1      25.681   1.663  52.492  1.00  0.00     0.050 C 
HETATM   10  C13 UNL     1      24.743   2.156  53.549  1.00  0.00     0.105 C 
HETATM   11  C14 UNL     1      23.467   1.360  53.421  1.00  0.00    -0.021 A 
HETATM   12  C15 UNL     1      22.639   1.925  52.435  1.00  0.00     0.101 A 
HETATM   13  N1  UNL     1      21.494   1.183  52.223  1.00  0.00    -0.335 N 
HETATM   14  C16 UNL     1      21.609   0.175  53.077  1.00  0.00     0.143 A 
HETATM   15  N2  UNL     1      20.760  -0.830  53.273  1.00  0.00    -0.223 NA
HETATM   16  C17 UNL     1      21.136  -1.740  54.227  1.00  0.00     0.234 A 
HETATM   17  N3  UNL     1      22.293  -1.671  54.958  1.00  0.00    -0.253 NA
HETATM   18  C18 UNL     1      23.173  -0.643  54.764  1.00  0.00     0.134 A 
HETATM   19  C19 UNL     1      22.772   0.240  53.814  1.00  0.00     0.036 A 
HETATM   20  C20 UNL     1      20.571   1.648  51.160  1.00  0.00     0.102 A 
HETATM   21  C21 UNL     1      20.582   1.355  49.777  1.00  0.00     0.018 A 
HETATM   22  C22 UNL     1      21.538   1.249  48.672  1.00  0.00     0.027 C 
HETATM   23  C23 UNL     1      21.620   2.472  47.774  1.00  0.00     0.126 C 
HETATM   24  N4  UNL     1      22.002   3.690  48.544  1.00  0.00    -0.352 N 
HETATM   25  C24 UNL     1      20.845   3.647  49.472  1.00  0.00     0.132 C 
HETATM   26  C25 UNL     1      21.225   2.638  50.435  1.00  0.00     0.033 A 
ENDROOT
BRANCH   9  27
HETATM   27  O2  UNL     1      26.164   0.452  52.959  1.00  0.00    -0.353 OA
BRANCH  27  28
HETATM   28  C8  UNL     1      26.476   0.079  54.250  1.00  0.00     0.207 C 
BRANCH  28  29
HETATM   29  C9  UNL     1      27.895  -0.434  54.404  1.00  0.00     0.145 C 
HETATM   30  C10 UNL     1      28.887   0.641  53.936  1.00  0.00     0.036 C 
HETATM   31  C11 UNL     1      30.094  -0.144  53.457  1.00  0.00     0.029 C 
HETATM   32  C12 UNL     1      29.546  -1.547  53.398  1.00  0.00     0.168 C 
HETATM   33  O3  UNL     1      28.167  -1.474  53.520  1.00  0.00    -0.384 OA
ENDBRANCH  28  29
ENDBRANCH  27  28
ENDBRANCH   9  27
TORSDOF 3
ENDMDL
MODEL 2
REMARK VINA RESULT:      -9.1      1.569      1.917
REMARK  3 active torsions:
REMARK  status: ('A' for Active; 'I' for Inactive)
REMARK    1  A    between atoms: C7_9  and  O2_10 
REMARK    2  A    between atoms: O2_10  and  C8_11 
REMARK    3  A    between atoms: C8_11  and  C9_12 
ROOT
HETATM    1  O1  UNL     1      22.883   6.185  48.049  1.00  0.00    -0.273 OA
HETATM    2  C1  UNL     1      22.615   6.767  49.079  1.00  0.00     0.220 C 
HETATM    3  C2  UNL     1      23.698   7.593  49.539  1.00  0.00     0.110 C 
HETATM    4  C3  UNL     1      25.056   6.988  49.216  1.00  0.00     0.079 C 
HETATM    5  C4  UNL     1      25.204   5.616  49.647  1.00  0.00     0.094 C 
HETATM    6  F1  UNL     1      24.716   5.585  50.908  1.00  0.00    -0.211 F 
HETATM    7  C5  UNL     1      25.401   4.358  49.897  1.00  0.00     0.040 C 
HETATM    8  C6  UNL     1      25.488   3.030  50.439  1.00  0.00     0.035 C 
HETATM    9  C7  UNL     1      25.073   2.557  51.597  1.00  0.00     0.050 C 
HETATM   10  C13 UNL     1      24.394   2.910  52.884  1.00  0.00     0.105 C 
HETATM   11  C14 UNL     1      22.982   2.380  52.803  1.00  0.00    -0.021 A 
HETATM   12  C15 UNL     1      22.158   3.297  52.127  1.00  0.00     0.101 A 
HETATM   13  N1  UNL     1      20.874   2.821  51.955  1.00  0.00    -0.335 N 
HETATM   14  C16 UNL     1      20.902   1.625  52.529  1.00  0.00     0.143 A 
HETATM   15  N2  UNL     1      19.907   0.749  52.639  1.00  0.00    -0.223 NA
HETATM   16  C17 UNL     1      20.222  -0.419  53.284  1.00  0.00     0.234 A 
HETATM   17  N3  UNL     1      21.454  -0.718  53.801  1.00  0.00    -0.253 NA
HETATM   18  C18 UNL     1      22.484   0.176  53.693  1.00  0.00     0.134 A 
HETATM   19  C19 UNL     1      22.141   1.321  53.049  1.00  0.00     0.036 A 
HETATM   20  C20 UNL     1      19.927   3.676  51.199  1.00  0.00     0.102 A 
HETATM   21  C21 UNL     1      19.702   3.742  49.806  1.00  0.00     0.018 A 
HETATM   22  C22 UNL     1      20.467   3.769  48.557  1.00  0.00     0.027 C 
HETATM   23  C23 UNL     1      20.666   5.150  47.955  1.00  0.00     0.126 C 
HETATM   24  N4  UNL     1      21.374   6.060  48.900  1.00  0.00    -0.352 N 
HETATM   25  C24 UNL     1      20.361   5.967  49.981  1.00  0.00     0.132 C 
HETATM   26  C25 UNL     1      20.660   4.702  50.613  1.00  0.00     0.033 A 
ENDROOT
BRANCH   9  27
HETATM   27  O2  UNL     1      25.369   1.208  51.691  1.00  0.00    -0.353 OA
BRANCH  27  28
HETATM   28  C8  UNL     1      26.595   0.593  51.839  1.00  0.00     0.207 C 
BRANCH  28  29
HETATM   29  C9  UNL     1      27.179   0.738  53.230  1.00  0.00     0.145 C 
HETATM   30  C10 UNL     1      28.226   1.861  53.239  1.00  0.00     0.036 C 
HETATM   31  C11 UNL     1      29.191   1.469  54.341  1.00  0.00     0.029 C 
HETATM   32  C12 UNL     1      28.788   0.041  54.610  1.00  0.00     0.168 C 
HETATM   33  O3  UNL     1      27.948  -0.367  53.586  1.00  0.00    -0.384 OA
ENDBRANCH  28  29
ENDBRANCH  27  28
ENDBRANCH   9  27
TORSDOF 3
ENDMDL
MODEL 3
REMARK VINA RESULT:      -9.0      2.487      7.415
REMARK  3 active torsions:
REMARK  status: ('A' for Active; 'I' for Inactive)
REMARK    1  A    between atoms: C7_9  and  O2_10 
REMARK    2  A    between atoms: O2_10  and  C8_11 
REMARK    3  A    between atoms: C8_11  and  C9_12 
ROOT
HETATM    1  O1  UNL     1      24.815  -1.627  53.773  1.00  0.00    -0.273 OA
HETATM    2  C1  UNL     1      24.847  -0.813  54.672  1.00  0.00     0.220 C 
HETATM    3  C2  UNL     1      23.898  -1.107  55.711  1.00  0.00     0.110 C 
HETATM    4  C3  UNL     1      22.628  -1.741  55.163  1.00  0.00     0.079 C 
HETATM    5  C4  UNL     1      22.026  -1.001  54.076  1.00  0.00     0.094 C 
HETATM    6  F1  UNL     1      22.037   0.291  54.477  1.00  0.00    -0.211 F 
HETATM    7  C5  UNL     1      21.468  -0.472  53.032  1.00  0.00     0.040 C 
HETATM    8  C6  UNL     1      20.894   0.373  52.021  1.00  0.00     0.035 C 
HETATM    9  C7  UNL     1      20.769   1.685  51.983  1.00  0.00     0.050 C 
HETATM   10  C13 UNL     1      21.036   2.956  52.728  1.00  0.00     0.105 C 
HETATM   11  C14 UNL     1      22.225   3.616  52.074  1.00  0.00    -0.021 A 
HETATM   12  C15 UNL     1      23.420   3.078  52.584  1.00  0.00     0.101 A 
HETATM   13  N1  UNL     1      24.537   3.592  51.957  1.00  0.00    -0.335 N 
HETATM   14  C16 UNL     1      24.037   4.447  51.074  1.00  0.00     0.143 A 
HETATM   15  N2  UNL     1      24.702   5.213  50.213  1.00  0.00    -0.223 NA
HETATM   16  C17 UNL     1      23.923   6.007  49.412  1.00  0.00     0.234 A 
HETATM   17  N3  UNL     1      22.555   6.052  49.450  1.00  0.00    -0.253 NA
HETATM   18  C18 UNL     1      21.862   5.269  50.332  1.00  0.00     0.134 A 
HETATM   19  C19 UNL     1      22.661   4.494  51.110  1.00  0.00     0.036 A 
HETATM   20  C20 UNL     1      25.856   3.052  52.367  1.00  0.00     0.102 A 
HETATM   21  C21 UNL     1      26.548   1.921  51.880  1.00  0.00     0.018 A 
HETATM   22  C22 UNL     1      26.280   0.530  51.507  1.00  0.00     0.027 C 
HETATM   23  C23 UNL     1      26.626  -0.499  52.571  1.00  0.00     0.126 C 
HETATM   24  N4  UNL     1      25.874  -0.251  53.835  1.00  0.00    -0.352 N 
HETATM   25  C24 UNL     1      26.409   1.115  54.059  1.00  0.00     0.132 C 
HETATM   26  C25 UNL     1      25.626   1.934  53.162  1.00  0.00     0.033 A 
ENDROOT
BRANCH   9  27
HETATM   27  O2  UNL     1      20.152   2.067  50.804  1.00  0.00    -0.353 OA
BRANCH  27  28
HETATM   28  C8  UNL     1      19.827   1.303  49.703  1.00  0.00     0.207 C 
BRANCH  28  29
HETATM   29  C9  UNL     1      20.623   1.661  48.463  1.00  0.00     0.145 C 
HETATM   30  C10 UNL     1      22.121   1.681  48.797  1.00  0.00     0.036 C 
HETATM   31  C11 UNL     1      22.712   2.678  47.818  1.00  0.00     0.029 C 
HETATM   32  C12 UNL     1      21.475   3.344  47.272  1.00  0.00     0.168 C 
HETATM   33  O3  UNL     1      20.403   2.980  48.072  1.00  0.00    -0.384 OA
ENDBRANCH  28  29
ENDBRANCH  27  28
ENDBRANCH   9  27
TORSDOF 3
ENDMDL
MODEL 4
REMARK VINA RESULT:      -9.0      2.773      5.497
REMARK  3 active torsions:
REMARK  status: ('A' for Active; 'I' for Inactive)
REMARK    1  A    between atoms: C7_9  and  O2_10 
REMARK    2  A    between atoms: O2_10  and  C8_11 
REMARK    3  A    between atoms: C8_11  and  C9_12 
ROOT
HETATM    1  O1  UNL     1      18.370   2.229  51.656  1.00  0.00    -0.273 OA
HETATM    2  C1  UNL     1      18.611   1.600  50.647  1.00  0.00     0.220 C 
HETATM    3  C2  UNL     1      18.725   0.189  50.894  1.00  0.00     0.110 C 
HETATM    4  C3  UNL     1      19.327  -0.106  52.261  1.00  0.00     0.079 C 
HETATM    5  C4  UNL     1      20.569   0.589  52.516  1.00  0.00     0.094 C 
HETATM    6  F1  UNL     1      21.302   0.432  51.389  1.00  0.00    -0.211 F 
HETATM    7  C5  UNL     1      21.628   1.243  52.883  1.00  0.00     0.040 C 
HETATM    8  C6  UNL     1      22.898   1.903  53.012  1.00  0.00     0.035 C 
HETATM    9  C7  UNL     1      23.873   2.045  52.136  1.00  0.00     0.050 C 
HETATM   10  C13 UNL     1      24.311   1.731  50.739  1.00  0.00     0.105 C 
HETATM   11  C14 UNL     1      24.159   2.995  49.928  1.00  0.00    -0.021 A 
HETATM   12  C15 UNL     1      22.835   3.124  49.475  1.00  0.00     0.101 A 
HETATM   13  N1  UNL     1      22.625   4.308  48.796  1.00  0.00    -0.335 N 
HETATM   14  C16 UNL     1      23.812   4.901  48.823  1.00  0.00     0.143 A 
HETATM   15  N2  UNL     1      24.150   6.077  48.300  1.00  0.00    -0.223 NA
HETATM   16  C17 UNL     1      25.458   6.446  48.480  1.00  0.00     0.234 A 
HETATM   17  N3  UNL     1      26.395   5.699  49.142  1.00  0.00    -0.253 NA
HETATM   18  C18 UNL     1      26.060   4.488  49.683  1.00  0.00     0.134 A 
HETATM   19  C19 UNL     1      24.758   4.152  49.488  1.00  0.00     0.036 A 
HETATM   20  C20 UNL     1      21.248   4.586  48.322  1.00  0.00     0.102 A 
HETATM   21  C21 UNL     1      20.178   5.208  49.004  1.00  0.00     0.018 A 
HETATM   22  C22 UNL     1      19.544   5.192  50.324  1.00  0.00     0.027 C 
HETATM   23  C23 UNL     1      18.287   4.343  50.424  1.00  0.00     0.126 C 
HETATM   24  N4  UNL     1      18.561   2.920  50.074  1.00  0.00    -0.352 N 
HETATM   25  C24 UNL     1      19.045   3.197  48.699  1.00  0.00     0.132 C 
HETATM   26  C25 UNL     1      20.403   3.648  48.906  1.00  0.00     0.033 A 
ENDROOT
BRANCH   9  27
HETATM   27  O2  UNL     1      24.915   2.760  52.700  1.00  0.00    -0.353 OA
BRANCH  27  28
HETATM   28  C8  UNL     1      25.643   2.487  53.840  1.00  0.00     0.207 C 
BRANCH  28  29
HETATM   29  C9  UNL     1      26.957   1.782  53.563  1.00  0.00     0.145 C 
HETATM   30  C10 UNL     1      27.012   0.463  54.346  1.00  0.00     0.036 C 
HETATM   31  C11 UNL     1      28.492   0.230  54.587  1.00  0.00     0.029 C 
HETATM   32  C12 UNL     1      29.079   1.568  54.215  1.00  0.00     0.168 C 
HETATM   33  O3  UNL     1      28.038   2.476  54.099  1.00  0.00    -0.384 OA
ENDBRANCH  28  29
ENDBRANCH  27  28
ENDBRANCH   9  27
TORSDOF 3
ENDMDL
MODEL 5
REMARK VINA RESULT:      -8.8      3.039      7.900
REMARK  3 active torsions:
REMARK  status: ('A' for Active; 'I' for Inactive)
REMARK    1  A    between atoms: C7_9  and  O2_10 
REMARK    2  A    between atoms: O2_10  and  C8_11 
REMARK    3  A    between atoms: C8_11  and  C9_12 
ROOT
HETATM    1  O1  UNL     1      25.649  -1.435  54.226  1.00  0.00    -0.273 OA
HETATM    2  C1  UNL     1      25.557  -0.456  54.935  1.00  0.00     0.220 C 
HETATM    3  C2  UNL     1      24.706  -0.680  56.071  1.00  0.00     0.110 C 
HETATM    4  C3  UNL     1      23.558  -1.626  55.750  1.00  0.00     0.079 C 
HETATM    5  C4  UNL     1      22.802  -1.251  54.576  1.00  0.00     0.094 C 
HETATM    6  F1  UNL     1      22.588   0.079  54.701  1.00  0.00    -0.211 F 
HETATM    7  C5  UNL     1      22.128  -1.063  53.483  1.00  0.00     0.040 C 
HETATM    8  C6  UNL     1      21.382  -0.565  52.360  1.00  0.00     0.035 C 
HETATM    9  C7  UNL     1      21.019   0.667  52.062  1.00  0.00     0.050 C 
HETATM   10  C13 UNL     1      21.069   2.094  52.511  1.00  0.00     0.105 C 
HETATM   11  C14 UNL     1      22.100   2.795  51.659  1.00  0.00    -0.021 A 
HETATM   12  C15 UNL     1      23.386   2.592  52.189  1.00  0.00     0.101 A 
HETATM   13  N1  UNL     1      24.373   3.145  51.398  1.00  0.00    -0.335 N 
HETATM   14  C16 UNL     1      23.701   3.692  50.393  1.00  0.00     0.143 A 
HETATM   15  N2  UNL     1      24.191   4.359  49.351  1.00  0.00    -0.223 NA
HETATM   16  C17 UNL     1      23.258   4.817  48.457  1.00  0.00     0.234 A 
HETATM   17  N3  UNL     1      21.907   4.632  48.574  1.00  0.00    -0.253 NA
HETATM   18  C18 UNL     1      21.392   3.948  49.641  1.00  0.00     0.134 A 
HETATM   19  C19 UNL     1      22.341   3.508  50.508  1.00  0.00     0.036 A 
HETATM   20  C20 UNL     1      25.779   2.942  51.823  1.00  0.00     0.102 A 
HETATM   21  C21 UNL     1      26.653   1.870  51.535  1.00  0.00     0.018 A 
HETATM   22  C22 UNL     1      26.633   0.406  51.474  1.00  0.00     0.027 C 
HETATM   23  C23 UNL     1      27.189  -0.295  52.702  1.00  0.00     0.126 C 
HETATM   24  N4  UNL     1      26.440   0.083  53.934  1.00  0.00    -0.352 N 
HETATM   25  C24 UNL     1      26.723   1.537  53.838  1.00  0.00     0.132 C 
HETATM   26  C25 UNL     1      25.779   1.997  52.844  1.00  0.00     0.033 A 
ENDROOT
BRANCH   9  27
HETATM   27  O2  UNL     1      20.310   0.676  50.873  1.00  0.00    -0.353 OA
BRANCH  27  28
HETATM   28  C8  UNL     1      18.970   0.926  50.659  1.00  0.00     0.207 C 
BRANCH  28  29
HETATM   29  C9  UNL     1      18.069  -0.227  51.057  1.00  0.00     0.145 C 
HETATM   30  C10 UNL     1      16.746  -0.142  50.283  1.00  0.00     0.036 C 
HETATM   31  C11 UNL     1      15.732  -0.805  51.196  1.00  0.00     0.029 C 
HETATM   32  C12 UNL     1      16.498  -0.896  52.492  1.00  0.00     0.168 C 
HETATM   33  O3  UNL     1      17.634  -0.111  52.374  1.00  0.00    -0.384 OA
ENDBRANCH  28  29
ENDBRANCH  27  28
ENDBRANCH   9  27
TORSDOF 3
ENDMDL
MODEL 6
REMARK VINA RESULT:      -8.7      2.361      6.490
REMARK  3 active torsions:
REMARK  status: ('A' for Active; 'I' for Inactive)
REMARK    1  A    between atoms: C7_9  and  O2_10 
REMARK    2  A    between atoms: O2_10  and  C8_11 
REMARK    3  A    between atoms: C8_11  and  C9_12 
ROOT
HETATM    1  O1  UNL     1      24.707  -0.362  54.584  1.00  0.00    -0.273 OA
HETATM    2  C1  UNL     1      24.619  -0.903  53.502  1.00  0.00     0.220 C 
HETATM    3  C2  UNL     1      25.841  -0.825  52.751  1.00  0.00     0.110 C 
HETATM    4  C3  UNL     1      26.592   0.473  53.010  1.00  0.00     0.079 C 
HETATM    5  C4  UNL     1      25.782   1.660  52.847  1.00  0.00     0.094 C 
HETATM    6  F1  UNL     1      25.104   1.472  51.691  1.00  0.00    -0.211 F 
HETATM    7  C5  UNL     1      25.120   2.775  52.830  1.00  0.00     0.040 C 
HETATM    8  C6  UNL     1      24.265   3.899  52.559  1.00  0.00     0.035 C 
HETATM    9  C7  UNL     1      23.401   4.091  51.582  1.00  0.00     0.050 C 
HETATM   10  C13 UNL     1      22.802   3.488  50.349  1.00  0.00     0.105 C 
HETATM   11  C14 UNL     1      21.420   3.003  50.716  1.00  0.00    -0.021 A 
HETATM   12  C15 UNL     1      21.493   1.724  51.295  1.00  0.00     0.101 A 
HETATM   13  N1  UNL     1      20.261   1.271  51.723  1.00  0.00    -0.335 N 
HETATM   14  C16 UNL     1      19.434   2.257  51.402  1.00  0.00     0.143 A 
HETATM   15  N2  UNL     1      18.120   2.316  51.599  1.00  0.00    -0.223 NA
HETATM   16  C17 UNL     1      17.513   3.466  51.165  1.00  0.00     0.234 A 
HETATM   17  N3  UNL     1      18.161   4.513  50.564  1.00  0.00    -0.253 NA
HETATM   18  C18 UNL     1      19.512   4.462  50.357  1.00  0.00     0.134 A 
HETATM   19  C19 UNL     1      20.083   3.311  50.798  1.00  0.00     0.036 A 
HETATM   20  C20 UNL     1      20.221  -0.043  52.409  1.00  0.00     0.102 A 
HETATM   21  C21 UNL     1      20.403  -0.342  53.778  1.00  0.00     0.018 A 
HETATM   22  C22 UNL     1      21.287   0.024  54.887  1.00  0.00     0.027 C 
HETATM   23  C23 UNL     1      22.406  -0.964  55.169  1.00  0.00     0.126 C 
HETATM   24  N4  UNL     1      23.283  -1.151  53.978  1.00  0.00    -0.352 N 
HETATM   25  C24 UNL     1      22.207  -1.635  53.078  1.00  0.00     0.132 C 
HETATM   26  C25 UNL     1      21.533  -0.420  52.678  1.00  0.00     0.033 A 
ENDROOT
BRANCH   9  27
HETATM   27  O2  UNL     1      22.796   5.328  51.723  1.00  0.00    -0.353 OA
BRANCH  27  28
HETATM   28  C8  UNL     1      22.785   6.397  50.851  1.00  0.00     0.207 C 
BRANCH  28  29
HETATM   29  C9  UNL     1      24.030   7.258  50.937  1.00  0.00     0.145 C 
HETATM   30  C10 UNL     1      23.880   8.480  50.019  1.00  0.00     0.036 C 
HETATM   31  C11 UNL     1      25.301   8.833  49.626  1.00  0.00     0.029 C 
HETATM   32  C12 UNL     1      26.060   7.612  50.081  1.00  0.00     0.168 C 
HETATM   33  O3  UNL     1      25.137   6.622  50.382  1.00  0.00    -0.384 OA
ENDBRANCH  28  29
ENDBRANCH  27  28
ENDBRANCH   9  27
TORSDOF 3
ENDMDL
MODEL 7
REMARK VINA RESULT:      -8.7      2.642      4.141
REMARK  3 active torsions:
REMARK  status: ('A' for Active; 'I' for Inactive)
REMARK    1  A    between atoms: C7_9  and  O2_10 
REMARK    2  A    between atoms: O2_10  and  C8_11 
REMARK    3  A    between atoms: C8_11  and  C9_12 
ROOT
HETATM    1  O1  UNL     1      25.173   7.357  47.029  1.00  0.00    -0.273 OA
HETATM    2  C1  UNL     1      25.043   8.078  47.996  1.00  0.00     0.220 C 
HETATM    3  C2  UNL     1      26.291   8.329  48.663  1.00  0.00     0.110 C 
HETATM    4  C3  UNL     1      27.228   7.132  48.597  1.00  0.00     0.079 C 
HETATM    5  C4  UNL     1      26.624   5.891  49.032  1.00  0.00     0.094 C 
HETATM    6  F1  UNL     1      25.971   6.196  50.177  1.00  0.00    -0.211 F 
HETATM    7  C5  UNL     1      26.148   4.715  49.299  1.00  0.00     0.040 C 
HETATM    8  C6  UNL     1      25.494   3.550  49.832  1.00  0.00     0.035 C 
HETATM    9  C7  UNL     1      24.711   3.424  50.884  1.00  0.00     0.050 C 
HETATM   10  C13 UNL     1      24.072   4.158  52.022  1.00  0.00     0.105 C 
HETATM   11  C14 UNL     1      22.618   4.353  51.669  1.00  0.00    -0.021 A 
HETATM   12  C15 UNL     1      22.464   5.492  50.860  1.00  0.00     0.101 A 
HETATM   13  N1  UNL     1      21.159   5.666  50.441  1.00  0.00    -0.335 N 
HETATM   14  C16 UNL     1      20.513   4.648  50.995  1.00  0.00     0.143 A 
HETATM   15  N2  UNL     1      19.218   4.358  50.903  1.00  0.00    -0.223 NA
HETATM   16  C17 UNL     1      18.819   3.236  51.582  1.00  0.00     0.234 A 
HETATM   17  N3  UNL     1      19.648   2.433  52.320  1.00  0.00    -0.253 NA
HETATM   18  C18 UNL     1      20.981   2.723  52.421  1.00  0.00     0.134 A 
HETATM   19  C19 UNL     1      21.344   3.839  51.737  1.00  0.00     0.036 A 
HETATM   20  C20 UNL     1      20.884   6.802  49.529  1.00  0.00     0.102 A 
HETATM   21  C21 UNL     1      20.962   6.855  48.119  1.00  0.00     0.018 A 
HETATM   22  C22 UNL     1      21.850   6.417  47.039  1.00  0.00     0.027 C 
HETATM   23  C23 UNL     1      22.785   7.487  46.503  1.00  0.00     0.126 C 
HETATM   24  N4  UNL     1      23.667   8.029  47.576  1.00  0.00    -0.352 N 
HETATM   25  C24 UNL     1      22.564   8.512  48.443  1.00  0.00     0.132 C 
HETATM   26  C25 UNL     1      22.108   7.311  49.105  1.00  0.00     0.033 A 
ENDROOT
BRANCH   9  27
HETATM   27  O2  UNL     1      24.304   2.108  51.016  1.00  0.00    -0.353 OA
BRANCH  27  28
HETATM   28  C8  UNL     1      24.485   1.241  52.074  1.00  0.00     0.207 C 
BRANCH  28  29
HETATM   29  C9  UNL     1      25.931   1.122  52.516  1.00  0.00     0.145 C 
HETATM   30  C10 UNL     1      26.492  -0.242  52.088  1.00  0.00     0.036 C 
HETATM   31  C11 UNL     1      27.564  -0.548  53.116  1.00  0.00     0.029 C 
HETATM   32  C12 UNL     1      27.279   0.487  54.176  1.00  0.00     0.168 C 
HETATM   33  O3  UNL     1      26.043   1.051  53.902  1.00  0.00    -0.384 OA
ENDBRANCH  28  29
ENDBRANCH  27  28
ENDBRANCH   9  27
TORSDOF 3
ENDMDL
MODEL 8
REMARK VINA RESULT:      -8.5      3.167      5.651
REMARK  3 active torsions:
REMARK  status: ('A' for Active; 'I' for Inactive)
REMARK    1  A    between atoms: C7_9  and  O2_10 
REMARK    2  A    between atoms: O2_10  and  C8_11 
REMARK    3  A    between atoms: C8_11  and  C9_12 
ROOT
HETATM    1  O1  UNL     1      16.600   1.638  51.797  1.00  0.00    -0.273 OA
HETATM    2  C1  UNL     1      16.844   1.177  50.703  1.00  0.00     0.220 C 
HETATM    3  C2  UNL     1      16.646  -0.246  50.651  1.00  0.00     0.110 C 
HETATM    4  C3  UNL     1      16.993  -0.920  51.971  1.00  0.00     0.079 C 
HETATM    5  C4  UNL     1      18.302  -0.576  52.478  1.00  0.00     0.094 C 
HETATM    6  F1  UNL     1      19.132  -0.671  51.414  1.00  0.00    -0.211 F 
HETATM    7  C5  UNL     1      19.410  -0.252  53.070  1.00  0.00     0.040 C 
HETATM    8  C6  UNL     1      20.757   0.076  53.450  1.00  0.00     0.035 C 
HETATM    9  C7  UNL     1      21.848   0.167  52.716  1.00  0.00     0.050 C 
HETATM   10  C13 UNL     1      22.396   0.037  51.329  1.00  0.00     0.105 C 
HETATM   11  C14 UNL     1      22.604   1.435  50.798  1.00  0.00    -0.021 A 
HETATM   12  C15 UNL     1      21.402   1.935  50.266  1.00  0.00     0.101 A 
HETATM   13  N1  UNL     1      21.520   3.243  49.841  1.00  0.00    -0.335 N 
HETATM   14  C16 UNL     1      22.786   3.545  50.100  1.00  0.00     0.143 A 
HETATM   15  N2  UNL     1      23.413   4.696  49.874  1.00  0.00    -0.223 NA
HETATM   16  C17 UNL     1      24.732   4.729  50.244  1.00  0.00     0.234 A 
HETATM   17  N3  UNL     1      25.410   3.683  50.812  1.00  0.00    -0.253 NA
HETATM   18  C18 UNL     1      24.775   2.495  51.049  1.00  0.00     0.134 A 
HETATM   19  C19 UNL     1      23.471   2.495  50.671  1.00  0.00     0.036 A 
HETATM   20  C20 UNL     1      20.299   3.901  49.317  1.00  0.00     0.102 A 
HETATM   21  C21 UNL     1      19.290   4.599  50.018  1.00  0.00     0.018 A 
HETATM   22  C22 UNL     1      18.497   4.471  51.242  1.00  0.00     0.027 C 
HETATM   23  C23 UNL     1      17.097   3.915  51.045  1.00  0.00     0.126 C 
HETATM   24  N4  UNL     1      17.130   2.560  50.424  1.00  0.00    -0.352 N 
HETATM   25  C24 UNL     1      17.837   2.981  49.189  1.00  0.00     0.132 C 
HETATM   26  C25 UNL     1      19.217   3.076  49.608  1.00  0.00     0.033 A 
ENDROOT
BRANCH   9  27
HETATM   27  O2  UNL     1      22.926   0.516  53.511  1.00  0.00    -0.353 OA
BRANCH  27  28
HETATM   28  C8  UNL     1      23.892  -0.293  54.072  1.00  0.00     0.207 C 
BRANCH  28  29
HETATM   29  C9  UNL     1      25.306   0.206  53.841  1.00  0.00     0.145 C 
HETATM   30  C10 UNL     1      26.017  -0.703  52.828  1.00  0.00     0.036 C 
HETATM   31  C11 UNL     1      27.485  -0.600  53.195  1.00  0.00     0.029 C 
HETATM   32  C12 UNL     1      27.419   0.074  54.543  1.00  0.00     0.168 C 
HETATM   33  O3  UNL     1      26.101   0.045  54.972  1.00  0.00    -0.384 OA
ENDBRANCH  28  29
ENDBRANCH  27  28
ENDBRANCH   9  27
TORSDOF 3
ENDMDL
MODEL 9
REMARK VINA RESULT:      -8.4      2.499      7.969
REMARK  3 active torsions:
REMARK  status: ('A' for Active; 'I' for Inactive)
REMARK    1  A    between atoms: C7_9  and  O2_10 
REMARK    2  A    between atoms: O2_10  and  C8_11 
REMARK    3  A    between atoms: C8_11  and  C9_12 
ROOT
HETATM    1  O1  UNL     1      23.861  -1.714  53.720  1.00  0.00    -0.273 OA
HETATM    2  C1  UNL     1      23.938  -0.826  54.543  1.00  0.00     0.220 C 
HETATM    3  C2  UNL     1      22.706  -0.636  55.259  1.00  0.00     0.110 C 
HETATM    4  C3  UNL     1      21.489  -0.903  54.386  1.00  0.00     0.079 C 
HETATM    5  C4  UNL     1      21.499  -0.184  53.131  1.00  0.00     0.094 C 
HETATM    6  F1  UNL     1      21.859   1.081  53.448  1.00  0.00    -0.211 F 
HETATM    7  C5  UNL     1      21.464   0.329  51.940  1.00  0.00     0.040 C 
HETATM    8  C6  UNL     1      21.516   1.149  50.761  1.00  0.00     0.035 C 
HETATM    9  C7  UNL     1      21.878   2.409  50.619  1.00  0.00     0.050 C 
HETATM   10  C13 UNL     1      22.367   3.625  51.343  1.00  0.00     0.105 C 
HETATM   11  C14 UNL     1      23.842   3.758  51.047  1.00  0.00    -0.021 A 
HETATM   12  C15 UNL     1      24.587   2.948  51.921  1.00  0.00     0.101 A 
HETATM   13  N1  UNL     1      25.938   2.972  51.636  1.00  0.00    -0.335 N 
HETATM   14  C16 UNL     1      26.026   3.797  50.601  1.00  0.00     0.143 A 
HETATM   15  N2  UNL     1      27.122   4.166  49.943  1.00  0.00    -0.223 NA
HETATM   16  C17 UNL     1      26.917   5.036  48.903  1.00  0.00     0.234 A 
HETATM   17  N3  UNL     1      25.696   5.525  48.523  1.00  0.00    -0.253 NA
HETATM   18  C18 UNL     1      24.563   5.152  49.193  1.00  0.00     0.134 A 
HETATM   19  C19 UNL     1      24.799   4.290  50.215  1.00  0.00     0.036 A 
HETATM   20  C20 UNL     1      26.821   2.106  52.454  1.00  0.00     0.102 A 
HETATM   21  C21 UNL     1      27.172   0.751  52.259  1.00  0.00     0.018 A 
HETATM   22  C22 UNL     1      26.539  -0.519  51.895  1.00  0.00     0.027 C 
HETATM   23  C23 UNL     1      26.203  -1.428  53.065  1.00  0.00     0.126 C 
HETATM   24  N4  UNL     1      25.280  -0.760  54.027  1.00  0.00    -0.352 N 
HETATM   25  C24 UNL     1      26.182   0.377  54.332  1.00  0.00     0.132 C 
HETATM   26  C25 UNL     1      26.009   1.257  53.199  1.00  0.00     0.033 A 
ENDROOT
BRANCH   9  27
HETATM   27  O2  UNL     1      21.773   2.784  49.291  1.00  0.00    -0.353 OA
BRANCH  27  28
HETATM   28  C8  UNL     1      21.202   3.916  48.747  1.00  0.00     0.207 C 
BRANCH  28  29
HETATM   29  C9  UNL     1      19.694   3.826  48.612  1.00  0.00     0.145 C 
HETATM   30  C10 UNL     1      19.028   4.297  49.913  1.00  0.00     0.036 C 
HETATM   31  C11 UNL     1      17.715   3.538  49.960  1.00  0.00     0.029 C 
HETATM   32  C12 UNL     1      17.919   2.502  48.884  1.00  0.00     0.168 C 
HETATM   33  O3  UNL     1      19.261   2.505  48.535  1.00  0.00    -0.384 OA
ENDBRANCH  28  29
ENDBRANCH  27  28
ENDBRANCH   9  27
TORSDOF 3
ENDMDL
