MODEL 1
REMARK VINA RESULT:      -7.4      0.000      0.000
REMARK  6 active torsions:
REMARK  status: ('A' for Active; 'I' for Inactive)
REMARK    1  A    between atoms: C2_2  and  C3_3 
REMARK    2  A    between atoms: C3_3  and  C4_4 
REMARK    3  A    between atoms: C4_4  and  O1_5 
REMARK    4  A    between atoms: O1_5  and  C5_6 
REMARK    5  A    between atoms: C8_9  and  N1_10 
REMARK    6  A    between atoms: N1_10  and  C9_11 
ROOT
HETATM    1  C5  UNL     1      26.285   1.607  51.249  1.00  0.00     0.159 C 
HETATM    2  C6  UNL     1      26.754   0.682  52.090  1.00  0.00     0.035 C 
HETATM    3  C7  UNL     1      26.222  -0.680  52.350  1.00  0.00     0.107 C 
HETATM    4  C8  UNL     1      25.947  -0.827  53.815  1.00  0.00     0.212 C 
HETATM    5  N2  UNL     1      27.131  -0.491  54.566  1.00  0.00    -0.259 NA
HETATM    6  C15 UNL     1      27.995   0.321  54.124  1.00  0.00     0.203 C 
HETATM    7  N3  UNL     1      27.928   1.000  52.864  1.00  0.00    -0.353 N 
HETATM    8  H19 UNL     1      28.658   1.676  52.512  1.00  0.00     0.166 HD
ENDROOT
BRANCH   4   9
HETATM    9  N1  UNL     1      24.890   0.050  54.276  1.00  0.00    -0.364 N 
HETATM   10  H14 UNL     1      25.103   0.932  54.809  1.00  0.00     0.162 HD
BRANCH   9  11
HETATM   11  C9  UNL     1      23.495  -0.219  54.039  1.00  0.00     0.068 A 
HETATM   12  C10 UNL     1      22.856   0.374  52.972  1.00  0.00     0.034 A 
HETATM   13  C11 UNL     1      21.524   0.171  52.673  1.00  0.00     0.021 A 
HETATM   14  C12 UNL     1      20.777  -0.670  53.479  1.00  0.00     0.014 A 
HETATM   15 BR1  UNL     1      18.933  -0.974  53.096  1.00  0.00    -0.051 Br
HETATM   16  C13 UNL     1      21.402  -1.269  54.548  1.00  0.00     0.063 A 
HETATM   17  C14 UNL     1      22.752  -1.058  54.843  1.00  0.00     0.144 A 
HETATM   18  F1  UNL     1      23.335  -1.659  55.896  1.00  0.00    -0.204 F 
ENDBRANCH   9  11
ENDBRANCH   4   9
BRANCH   1  19
HETATM   19  O1  UNL     1      26.904   2.845  51.121  1.00  0.00    -0.361 OA
BRANCH  19  20
HETATM   20  C4  UNL     1      26.325   3.875  50.320  1.00  0.00     0.174 C 
BRANCH  20  21
HETATM   21  C3  UNL     1      27.061   3.986  49.035  1.00  0.00     0.026 C 
BRANCH  21  22
HETATM   22  C2  UNL     1      27.429   5.372  48.618  1.00  0.00    -0.002 C 
HETATM   23  C1  UNL     1      28.853   5.580  48.276  1.00  0.00     0.005 C 
ENDBRANCH  21  22
ENDBRANCH  20  21
ENDBRANCH  19  20
ENDBRANCH   1  19
TORSDOF 6
ENDMDL
MODEL 2
REMARK VINA RESULT:      -7.2      0.966      1.692
REMARK  6 active torsions:
REMARK  status: ('A' for Active; 'I' for Inactive)
REMARK    1  A    between atoms: C2_2  and  C3_3 
REMARK    2  A    between atoms: C3_3  and  C4_4 
REMARK    3  A    between atoms: C4_4  and  O1_5 
REMARK    4  A    between atoms: O1_5  and  C5_6 
REMARK    5  A    between atoms: C8_9  and  N1_10 
REMARK    6  A    between atoms: N1_10  and  C9_11 
ROOT
HETATM    1  C5  UNL     1      26.381   1.490  51.242  1.00  0.00     0.159 C 
HETATM    2  C6  UNL     1      26.774   0.584  52.141  1.00  0.00     0.035 C 
HETATM    3  C7  UNL     1      26.189  -0.753  52.418  1.00  0.00     0.107 C 
HETATM    4  C8  UNL     1      25.825  -0.838  53.868  1.00  0.00     0.212 C 
HETATM    5  N2  UNL     1      26.973  -0.506  54.675  1.00  0.00    -0.259 NA
HETATM    6  C15 UNL     1      27.884   0.267  54.257  1.00  0.00     0.203 C 
HETATM    7  N3  UNL     1      27.909   0.899  52.972  1.00  0.00    -0.353 N 
HETATM    8  H19 UNL     1      28.677   1.543  52.640  1.00  0.00     0.166 HD
ENDROOT
BRANCH   4   9
HETATM    9  N1  UNL     1      24.768   0.084  54.234  1.00  0.00    -0.364 N 
HETATM   10  H14 UNL     1      24.981   1.010  54.687  1.00  0.00     0.162 HD
BRANCH   9  11
HETATM   11  C9  UNL     1      23.374  -0.199  54.007  1.00  0.00     0.068 A 
HETATM   12  C10 UNL     1      22.714   0.416  52.965  1.00  0.00     0.034 A 
HETATM   13  C11 UNL     1      21.381   0.202  52.677  1.00  0.00     0.021 A 
HETATM   14  C12 UNL     1      20.656  -0.673  53.467  1.00  0.00     0.014 A 
HETATM   15 BR1  UNL     1      18.811  -0.992  53.098  1.00  0.00    -0.051 Br
HETATM   16  C13 UNL     1      21.302  -1.293  54.510  1.00  0.00     0.063 A 
HETATM   17  C14 UNL     1      22.653  -1.071  54.794  1.00  0.00     0.144 A 
HETATM   18  F1  UNL     1      23.257  -1.694  55.823  1.00  0.00    -0.204 F 
ENDBRANCH   9  11
ENDBRANCH   4   9
BRANCH   1  19
HETATM   19  O1  UNL     1      27.042   2.705  51.107  1.00  0.00    -0.361 OA
BRANCH  19  20
HETATM   20  C4  UNL     1      26.666   3.635  50.091  1.00  0.00     0.174 C 
BRANCH  20  21
HETATM   21  C3  UNL     1      25.274   4.098  50.324  1.00  0.00     0.026 C 
BRANCH  21  22
HETATM   22  C2  UNL     1      24.279   3.705  49.283  1.00  0.00    -0.002 C 
HETATM   23  C1  UNL     1      23.252   2.732  49.714  1.00  0.00     0.005 C 
ENDBRANCH  21  22
ENDBRANCH  20  21
ENDBRANCH  19  20
ENDBRANCH   1  19
TORSDOF 6
ENDMDL
MODEL 3
REMARK VINA RESULT:      -7.0      3.888      6.772
REMARK  6 active torsions:
REMARK  status: ('A' for Active; 'I' for Inactive)
REMARK    1  A    between atoms: C2_2  and  C3_3 
REMARK    2  A    between atoms: C3_3  and  C4_4 
REMARK    3  A    between atoms: C4_4  and  O1_5 
REMARK    4  A    between atoms: O1_5  and  C5_6 
REMARK    5  A    between atoms: C8_9  and  N1_10 
REMARK    6  A    between atoms: N1_10  and  C9_11 
ROOT
HETATM    1  C5  UNL     1      21.791   1.012  51.147  1.00  0.00     0.159 C 
HETATM    2  C6  UNL     1      22.362   2.219  51.171  1.00  0.00     0.035 C 
HETATM    3  C7  UNL     1      23.738   2.596  50.757  1.00  0.00     0.107 C 
HETATM    4  C8  UNL     1      24.427   3.272  51.902  1.00  0.00     0.212 C 
HETATM    5  N2  UNL     1      23.620   4.370  52.372  1.00  0.00    -0.259 NA
HETATM    6  C15 UNL     1      22.360   4.374  52.251  1.00  0.00     0.203 C 
HETATM    7  N3  UNL     1      21.581   3.332  51.653  1.00  0.00    -0.353 N 
HETATM    8  H19 UNL     1      20.529   3.351  51.562  1.00  0.00     0.166 HD
ENDROOT
BRANCH   4   9
HETATM    9  N1  UNL     1      24.637   2.386  53.029  1.00  0.00    -0.364 N 
HETATM   10  H14 UNL     1      23.946   2.334  53.821  1.00  0.00     0.162 HD
BRANCH   9  11
HETATM   11  C9  UNL     1      25.787   1.528  53.143  1.00  0.00     0.068 A 
HETATM   12  C10 UNL     1      27.039   2.082  53.305  1.00  0.00     0.034 A 
HETATM   13  C11 UNL     1      28.194   1.335  53.421  1.00  0.00     0.021 A 
HETATM   14  C12 UNL     1      28.106  -0.046  53.374  1.00  0.00     0.014 A 
HETATM   15 BR1  UNL     1      29.681  -1.111  53.532  1.00  0.00    -0.051 Br
HETATM   16  C13 UNL     1      26.864  -0.612  53.213  1.00  0.00     0.063 A 
HETATM   17  C14 UNL     1      25.699   0.153  53.096  1.00  0.00     0.144 A 
HETATM   18  F1  UNL     1      24.497  -0.432  52.938  1.00  0.00    -0.204 F 
ENDBRANCH   9  11
ENDBRANCH   4   9
BRANCH   1  19
HETATM   19  O1  UNL     1      20.481   0.826  51.573  1.00  0.00    -0.361 OA
BRANCH  19  20
HETATM   20  C4  UNL     1      20.175  -0.093  52.622  1.00  0.00     0.174 C 
BRANCH  20  21
HETATM   21  C3  UNL     1      20.606   0.472  53.926  1.00  0.00     0.026 C 
BRANCH  21  22
HETATM   22  C2  UNL     1      21.640  -0.314  54.662  1.00  0.00    -0.002 C 
HETATM   23  C1  UNL     1      21.637  -1.771  54.408  1.00  0.00     0.005 C 
ENDBRANCH  21  22
ENDBRANCH  20  21
ENDBRANCH  19  20
ENDBRANCH   1  19
TORSDOF 6
ENDMDL
MODEL 4
REMARK VINA RESULT:      -6.9      3.431      4.939
REMARK  6 active torsions:
REMARK  status: ('A' for Active; 'I' for Inactive)
REMARK    1  A    between atoms: C2_2  and  C3_3 
REMARK    2  A    between atoms: C3_3  and  C4_4 
REMARK    3  A    between atoms: C4_4  and  O1_5 
REMARK    4  A    between atoms: O1_5  and  C5_6 
REMARK    5  A    between atoms: C8_9  and  N1_10 
REMARK    6  A    between atoms: N1_10  and  C9_11 
ROOT
HETATM    1  C5  UNL     1      26.684   0.960  53.393  1.00  0.00     0.159 C 
HETATM    2  C6  UNL     1      25.852  -0.028  53.733  1.00  0.00     0.035 C 
HETATM    3  C7  UNL     1      24.861  -0.732  52.879  1.00  0.00     0.107 C 
HETATM    4  C8  UNL     1      23.507  -0.629  53.511  1.00  0.00     0.212 C 
HETATM    5  N2  UNL     1      23.572  -1.101  54.872  1.00  0.00    -0.259 NA
HETATM    6  C15 UNL     1      24.637  -1.037  55.553  1.00  0.00     0.203 C 
HETATM    7  N3  UNL     1      25.885  -0.507  55.092  1.00  0.00    -0.353 N 
HETATM    8  H19 UNL     1      26.764  -0.460  55.675  1.00  0.00     0.166 HD
ENDROOT
BRANCH   4   9
HETATM    9  N1  UNL     1      23.016   0.734  53.558  1.00  0.00    -0.364 N 
HETATM   10  H14 UNL     1      22.641   1.151  54.449  1.00  0.00     0.162 HD
BRANCH   9  11
HETATM   11  C9  UNL     1      23.006   1.599  52.407  1.00  0.00     0.068 A 
HETATM   12  C10 UNL     1      22.363   1.196  51.256  1.00  0.00     0.034 A 
HETATM   13  C11 UNL     1      22.305   1.961  50.108  1.00  0.00     0.021 A 
HETATM   14  C12 UNL     1      22.921   3.200  50.097  1.00  0.00     0.014 A 
HETATM   15 BR1  UNL     1      22.862   4.285  48.528  1.00  0.00    -0.051 Br
HETATM   16  C13 UNL     1      23.567   3.614  51.238  1.00  0.00     0.063 A 
HETATM   17  C14 UNL     1      23.620   2.833  52.397  1.00  0.00     0.144 A 
HETATM   18  F1  UNL     1      24.261   3.267  53.498  1.00  0.00    -0.204 F 
ENDBRANCH   9  11
ENDBRANCH   4   9
BRANCH   1  19
HETATM   19  O1  UNL     1      27.558   1.516  54.319  1.00  0.00    -0.361 OA
BRANCH  19  20
HETATM   20  C4  UNL     1      28.971   1.372  54.172  1.00  0.00     0.174 C 
BRANCH  20  21
HETATM   21  C3  UNL     1      29.379  -0.002  54.563  1.00  0.00     0.026 C 
BRANCH  21  22
HETATM   22  C2  UNL     1      29.876  -0.869  53.454  1.00  0.00    -0.002 C 
HETATM   23  C1  UNL     1      29.057  -2.064  53.159  1.00  0.00     0.005 C 
ENDBRANCH  21  22
ENDBRANCH  20  21
ENDBRANCH  19  20
ENDBRANCH   1  19
TORSDOF 6
ENDMDL
MODEL 5
REMARK VINA RESULT:      -6.9      2.584      4.529
REMARK  6 active torsions:
REMARK  status: ('A' for Active; 'I' for Inactive)
REMARK    1  A    between atoms: C2_2  and  C3_3 
REMARK    2  A    between atoms: C3_3  and  C4_4 
REMARK    3  A    between atoms: C4_4  and  O1_5 
REMARK    4  A    between atoms: O1_5  and  C5_6 
REMARK    5  A    between atoms: C8_9  and  N1_10 
REMARK    6  A    between atoms: N1_10  and  C9_11 
ROOT
HETATM    1  C5  UNL     1      25.610   1.849  53.812  1.00  0.00     0.159 C 
HETATM    2  C6  UNL     1      25.138   2.604  52.816  1.00  0.00     0.035 C 
HETATM    3  C7  UNL     1      23.781   3.189  52.668  1.00  0.00     0.107 C 
HETATM    4  C8  UNL     1      23.195   2.743  51.364  1.00  0.00     0.212 C 
HETATM    5  N2  UNL     1      24.105   3.058  50.291  1.00  0.00    -0.259 NA
HETATM    6  C15 UNL     1      25.356   3.130  50.475  1.00  0.00     0.203 C 
HETATM    7  N3  UNL     1      26.024   2.919  51.723  1.00  0.00    -0.353 N 
HETATM    8  H19 UNL     1      27.069   2.982  51.858  1.00  0.00     0.166 HD
ENDROOT
BRANCH   4   9
HETATM    9  N1  UNL     1      22.961   1.314  51.316  1.00  0.00    -0.364 N 
HETATM   10  H14 UNL     1      23.677   0.655  50.915  1.00  0.00     0.162 HD
BRANCH   9  11
HETATM   11  C9  UNL     1      21.751   0.705  51.805  1.00  0.00     0.068 A 
HETATM   12  C10 UNL     1      20.616   0.717  51.024  1.00  0.00     0.034 A 
HETATM   13  C11 UNL     1      19.416   0.159  51.414  1.00  0.00     0.021 A 
HETATM   14  C12 UNL     1      19.332  -0.449  52.655  1.00  0.00     0.014 A 
HETATM   15 BR1  UNL     1      17.690  -1.232  53.228  1.00  0.00    -0.051 Br
HETATM   16  C13 UNL     1      20.457  -0.468  53.446  1.00  0.00     0.063 A 
HETATM   17  C14 UNL     1      21.669   0.100  53.041  1.00  0.00     0.144 A 
HETATM   18  F1  UNL     1      22.752   0.065  53.839  1.00  0.00    -0.204 F 
ENDBRANCH   9  11
ENDBRANCH   4   9
BRANCH   1  19
HETATM   19  O1  UNL     1      26.917   1.375  53.800  1.00  0.00    -0.361 OA
BRANCH  19  20
HETATM   20  C4  UNL     1      27.283   0.217  54.550  1.00  0.00     0.174 C 
BRANCH  20  21
HETATM   21  C3  UNL     1      28.748   0.222  54.798  1.00  0.00     0.026 C 
BRANCH  21  22
HETATM   22  C2  UNL     1      29.592  -0.323  53.694  1.00  0.00    -0.002 C 
HETATM   23  C1  UNL     1      29.355  -1.740  53.346  1.00  0.00     0.005 C 
ENDBRANCH  21  22
ENDBRANCH  20  21
ENDBRANCH  19  20
ENDBRANCH   1  19
TORSDOF 6
ENDMDL
MODEL 6
REMARK VINA RESULT:      -6.8      3.289      5.881
REMARK  6 active torsions:
REMARK  status: ('A' for Active; 'I' for Inactive)
REMARK    1  A    between atoms: C2_2  and  C3_3 
REMARK    2  A    between atoms: C3_3  and  C4_4 
REMARK    3  A    between atoms: C4_4  and  O1_5 
REMARK    4  A    between atoms: O1_5  and  C5_6 
REMARK    5  A    between atoms: C8_9  and  N1_10 
REMARK    6  A    between atoms: N1_10  and  C9_11 
ROOT
HETATM    1  C5  UNL     1      25.890  -0.109  55.363  1.00  0.00     0.159 C 
HETATM    2  C6  UNL     1      26.585   0.176  54.258  1.00  0.00     0.035 C 
HETATM    3  C7  UNL     1      27.403   1.381  53.970  1.00  0.00     0.107 C 
HETATM    4  C8  UNL     1      26.913   2.016  52.704  1.00  0.00     0.212 C 
HETATM    5  N2  UNL     1      26.895   1.035  51.647  1.00  0.00    -0.259 NA
HETATM    6  C15 UNL     1      26.741  -0.199  51.882  1.00  0.00     0.203 C 
HETATM    7  N3  UNL     1      26.569  -0.781  53.179  1.00  0.00    -0.353 N 
HETATM    8  H19 UNL     1      26.440  -1.814  53.357  1.00  0.00     0.166 HD
ENDROOT
BRANCH   4   9
HETATM    9  N1  UNL     1      25.565   2.534  52.825  1.00  0.00    -0.364 N 
HETATM   10  H14 UNL     1      25.239   3.012  53.704  1.00  0.00     0.162 HD
BRANCH   9  11
HETATM   11  C9  UNL     1      24.594   2.433  51.767  1.00  0.00     0.068 A 
HETATM   12  C10 UNL     1      23.539   1.555  51.891  1.00  0.00     0.034 A 
HETATM   13  C11 UNL     1      22.564   1.394  50.926  1.00  0.00     0.021 A 
HETATM   14  C12 UNL     1      22.638   2.147  49.768  1.00  0.00     0.014 A 
HETATM   15 BR1  UNL     1      21.309   1.951  48.413  1.00  0.00    -0.051 Br
HETATM   16  C13 UNL     1      23.686   3.027  49.631  1.00  0.00     0.063 A 
HETATM   17  C14 UNL     1      24.668   3.184  50.613  1.00  0.00     0.144 A 
HETATM   18  F1  UNL     1      25.682   4.053  50.449  1.00  0.00    -0.204 F 
ENDBRANCH   9  11
ENDBRANCH   4   9
BRANCH   1  19
HETATM   19  O1  UNL     1      25.169  -1.292  55.476  1.00  0.00    -0.361 OA
BRANCH  19  20
HETATM   20  C4  UNL     1      23.758  -1.272  55.690  1.00  0.00     0.174 C 
BRANCH  20  21
HETATM   21  C3  UNL     1      23.058  -1.038  54.401  1.00  0.00     0.026 C 
BRANCH  21  22
HETATM   22  C2  UNL     1      21.567  -1.094  54.456  1.00  0.00    -0.002 C 
HETATM   23  C1  UNL     1      20.879   0.214  54.515  1.00  0.00     0.005 C 
ENDBRANCH  21  22
ENDBRANCH  20  21
ENDBRANCH  19  20
ENDBRANCH   1  19
TORSDOF 6
ENDMDL
MODEL 7
REMARK VINA RESULT:      -6.7      1.855      2.269
REMARK  6 active torsions:
REMARK  status: ('A' for Active; 'I' for Inactive)
REMARK    1  A    between atoms: C2_2  and  C3_3 
REMARK    2  A    between atoms: C3_3  and  C4_4 
REMARK    3  A    between atoms: C4_4  and  O1_5 
REMARK    4  A    between atoms: O1_5  and  C5_6 
REMARK    5  A    between atoms: C8_9  and  N1_10 
REMARK    6  A    between atoms: N1_10  and  C9_11 
ROOT
HETATM    1  C5  UNL     1      25.659   3.091  50.565  1.00  0.00     0.159 C 
HETATM    2  C6  UNL     1      26.391   2.272  51.325  1.00  0.00     0.035 C 
HETATM    3  C7  UNL     1      26.175   0.828  51.597  1.00  0.00     0.107 C 
HETATM    4  C8  UNL     1      26.093   0.615  53.077  1.00  0.00     0.212 C 
HETATM    5  N2  UNL     1      27.258   1.178  53.712  1.00  0.00    -0.259 NA
HETATM    6  C15 UNL     1      27.889   2.153  53.209  1.00  0.00     0.203 C 
HETATM    7  N3  UNL     1      27.553   2.814  51.984  1.00  0.00    -0.353 N 
HETATM    8  H19 UNL     1      28.091   3.628  51.579  1.00  0.00     0.166 HD
ENDROOT
BRANCH   4   9
HETATM    9  N1  UNL     1      24.936   1.256  53.670  1.00  0.00    -0.364 N 
HETATM   10  H14 UNL     1      25.032   1.918  54.482  1.00  0.00     0.162 HD
BRANCH   9  11
HETATM   11  C9  UNL     1      23.594   1.033  53.197  1.00  0.00     0.068 A 
HETATM   12  C10 UNL     1      23.070  -0.241  53.204  1.00  0.00     0.034 A 
HETATM   13  C11 UNL     1      21.795  -0.543  52.769  1.00  0.00     0.021 A 
HETATM   14  C12 UNL     1      20.989   0.478  52.297  1.00  0.00     0.014 A 
HETATM   15 BR1  UNL     1      19.221   0.097  51.687  1.00  0.00    -0.051 Br
HETATM   16  C13 UNL     1      21.499   1.754  52.284  1.00  0.00     0.063 A 
HETATM   17  C14 UNL     1      22.792   2.051  52.727  1.00  0.00     0.144 A 
HETATM   18  F1  UNL     1      23.262   3.312  52.701  1.00  0.00    -0.204 F 
ENDBRANCH   9  11
ENDBRANCH   4   9
BRANCH   1  19
HETATM   19  O1  UNL     1      26.000   4.429  50.412  1.00  0.00    -0.361 OA
BRANCH  19  20
HETATM   20  C4  UNL     1      26.214   4.987  49.115  1.00  0.00     0.174 C 
BRANCH  20  21
HETATM   21  C3  UNL     1      27.606   4.714  48.675  1.00  0.00     0.026 C 
BRANCH  21  22
HETATM   22  C2  UNL     1      28.401   5.910  48.265  1.00  0.00    -0.002 C 
HETATM   23  C1  UNL     1      29.845   5.677  48.051  1.00  0.00     0.005 C 
ENDBRANCH  21  22
ENDBRANCH  20  21
ENDBRANCH  19  20
ENDBRANCH   1  19
TORSDOF 6
ENDMDL
MODEL 8
REMARK VINA RESULT:      -6.6      3.933      7.581
REMARK  6 active torsions:
REMARK  status: ('A' for Active; 'I' for Inactive)
REMARK    1  A    between atoms: C2_2  and  C3_3 
REMARK    2  A    between atoms: C3_3  and  C4_4 
REMARK    3  A    between atoms: C4_4  and  O1_5 
REMARK    4  A    between atoms: O1_5  and  C5_6 
REMARK    5  A    between atoms: C8_9  and  N1_10 
REMARK    6  A    between atoms: N1_10  and  C9_11 
ROOT
HETATM    1  C5  UNL     1      22.556   1.744  52.478  1.00  0.00     0.159 C 
HETATM    2  C6  UNL     1      23.854   1.579  52.750  1.00  0.00     0.035 C 
HETATM    3  C7  UNL     1      24.871   2.619  53.048  1.00  0.00     0.107 C 
HETATM    4  C8  UNL     1      26.011   2.479  52.085  1.00  0.00     0.212 C 
HETATM    5  N2  UNL     1      26.507   1.126  52.116  1.00  0.00    -0.259 NA
HETATM    6  C15 UNL     1      25.765   0.148  52.423  1.00  0.00     0.203 C 
HETATM    7  N3  UNL     1      24.379   0.236  52.771  1.00  0.00    -0.353 N 
HETATM    8  H19 UNL     1      23.773  -0.592  53.023  1.00  0.00     0.166 HD
ENDROOT
BRANCH   4   9
HETATM    9  N1  UNL     1      25.623   2.758  50.717  1.00  0.00    -0.364 N 
HETATM   10  H14 UNL     1      25.064   2.066  50.154  1.00  0.00     0.162 HD
BRANCH   9  11
HETATM   11  C9  UNL     1      25.970   3.981  50.042  1.00  0.00     0.068 A 
HETATM   12  C10 UNL     1      27.087   4.022  49.236  1.00  0.00     0.034 A 
HETATM   13  C11 UNL     1      27.492   5.152  48.553  1.00  0.00     0.021 A 
HETATM   14  C12 UNL     1      26.748   6.312  48.676  1.00  0.00     0.014 A 
HETATM   15 BR1  UNL     1      27.279   7.892  47.747  1.00  0.00    -0.051 Br
HETATM   16  C13 UNL     1      25.632   6.285  49.478  1.00  0.00     0.063 A 
HETATM   17  C14 UNL     1      25.228   5.137  50.165  1.00  0.00     0.144 A 
HETATM   18  F1  UNL     1      24.130   5.143  50.943  1.00  0.00    -0.204 F 
ENDBRANCH   9  11
ENDBRANCH   4   9
BRANCH   1  19
HETATM   19  O1  UNL     1      21.730   0.656  52.219  1.00  0.00    -0.361 OA
BRANCH  19  20
HETATM   20  C4  UNL     1      20.562   0.420  53.005  1.00  0.00     0.174 C 
BRANCH  20  21
HETATM   21  C3  UNL     1      20.954   0.063  54.392  1.00  0.00     0.026 C 
BRANCH  21  22
HETATM   22  C2  UNL     1      21.482  -1.321  54.579  1.00  0.00    -0.002 C 
HETATM   23  C1  UNL     1      22.731  -1.429  55.363  1.00  0.00     0.005 C 
ENDBRANCH  21  22
ENDBRANCH  20  21
ENDBRANCH  19  20
ENDBRANCH   1  19
TORSDOF 6
ENDMDL
MODEL 9
REMARK VINA RESULT:      -6.5      4.220      7.310
REMARK  6 active torsions:
REMARK  status: ('A' for Active; 'I' for Inactive)
REMARK    1  A    between atoms: C2_2  and  C3_3 
REMARK    2  A    between atoms: C3_3  and  C4_4 
REMARK    3  A    between atoms: C4_4  and  O1_5 
REMARK    4  A    between atoms: O1_5  and  C5_6 
REMARK    5  A    between atoms: C8_9  and  N1_10 
REMARK    6  A    between atoms: N1_10  and  C9_11 
ROOT
HETATM    1  C5  UNL     1      20.799   0.341  51.349  1.00  0.00     0.159 C 
HETATM    2  C6  UNL     1      21.025   1.376  50.535  1.00  0.00     0.035 C 
HETATM    3  C7  UNL     1      22.184   1.605  49.635  1.00  0.00     0.107 C 
HETATM    4  C8  UNL     1      22.808   2.925  49.965  1.00  0.00     0.212 C 
HETATM    5  N2  UNL     1      21.804   3.959  49.926  1.00  0.00    -0.259 NA
HETATM    6  C15 UNL     1      20.584   3.716  50.162  1.00  0.00     0.203 C 
HETATM    7  N3  UNL     1      20.043   2.432  50.490  1.00  0.00    -0.353 N 
HETATM    8  H19 UNL     1      19.022   2.247  50.685  1.00  0.00     0.166 HD
ENDROOT
BRANCH   4   9
HETATM    9  N1  UNL     1      23.391   2.951  51.292  1.00  0.00    -0.364 N 
HETATM   10  H14 UNL     1      23.045   3.616  52.030  1.00  0.00     0.162 HD
BRANCH   9  11
HETATM   11  C9  UNL     1      24.469   2.081  51.686  1.00  0.00     0.068 A 
HETATM   12  C10 UNL     1      24.214   1.010  52.514  1.00  0.00     0.034 A 
HETATM   13  C11 UNL     1      25.187   0.127  52.940  1.00  0.00     0.021 A 
HETATM   14  C12 UNL     1      26.493   0.317  52.522  1.00  0.00     0.014 A 
HETATM   15 BR1  UNL     1      27.863  -0.883  53.090  1.00  0.00    -0.051 Br
HETATM   16  C13 UNL     1      26.761   1.382  51.695  1.00  0.00     0.063 A 
HETATM   17  C14 UNL     1      25.770   2.270  51.268  1.00  0.00     0.144 A 
HETATM   18  F1  UNL     1      26.065   3.305  50.459  1.00  0.00    -0.204 F 
ENDBRANCH   9  11
ENDBRANCH   4   9
BRANCH   1  19
HETATM   19  O1  UNL     1      19.654   0.277  52.133  1.00  0.00    -0.361 OA
BRANCH  19  20
HETATM   20  C4  UNL     1      19.623  -0.512  53.322  1.00  0.00     0.174 C 
BRANCH  20  21
HETATM   21  C3  UNL     1      20.870  -0.297  54.100  1.00  0.00     0.026 C 
BRANCH  21  22
HETATM   22  C2  UNL     1      21.616  -1.533  54.482  1.00  0.00    -0.002 C 
HETATM   23  C1  UNL     1      22.815  -1.323  55.322  1.00  0.00     0.005 C 
ENDBRANCH  21  22
ENDBRANCH  20  21
ENDBRANCH  19  20
ENDBRANCH   1  19
TORSDOF 6
ENDMDL
