MODEL 1
REMARK VINA RESULT:      -8.7      0.000      0.000
REMARK  3 active torsions:
REMARK  status: ('A' for Active; 'I' for Inactive)
REMARK    1  A    between atoms: N1_1  and  C1_2 
REMARK    2  A    between atoms: C9_12  and  O1_13 
REMARK    3  A    between atoms: O1_13  and  C10_14 
ROOT
HETATM    1  C1  UNL     1      27.710  -1.000  53.058  1.00  0.00     0.137 A 
HETATM    2  N2  UNL     1      28.658  -1.912  53.233  1.00  0.00    -0.224 NA
HETATM    3  C2  UNL     1      29.881  -1.520  53.699  1.00  0.00     0.235 A 
HETATM    4  N3  UNL     1      30.065  -0.215  53.962  1.00  0.00    -0.244 NA
HETATM    5  C3  UNL     1      29.078   0.665  53.769  1.00  0.00     0.072 A 
HETATM    6  C4  UNL     1      27.831   0.340  53.302  1.00  0.00     0.065 A 
HETATM    7  C5  UNL     1      26.922   1.459  53.196  1.00  0.00     0.077 A 
HETATM    8  C6  UNL     1      25.546   1.572  52.811  1.00  0.00    -0.007 A 
HETATM    9  C7  UNL     1      24.607   0.792  52.230  1.00  0.00     0.016 A 
HETATM   10  C8  UNL     1      23.280   1.023  52.033  1.00  0.00     0.038 A 
HETATM   11  C9  UNL     1      22.761   2.216  52.470  1.00  0.00     0.076 A 
HETATM   12  C16 UNL     1      23.602   3.100  53.074  1.00  0.00     0.038 A 
HETATM   13  C17 UNL     1      24.922   2.744  53.212  1.00  0.00     0.016 A 
HETATM   14  N4  UNL     1      27.643   2.418  53.604  1.00  0.00    -0.282 NA
HETATM   15  C18 UNL     1      28.960   2.104  53.984  1.00  0.00     0.210 A 
ENDROOT
BRANCH   1  16
HETATM   16  N1  UNL     1      26.519  -1.598  52.628  1.00  0.00    -0.383 N 
HETATM   17  H1  UNL     1      26.179  -1.020  51.802  1.00  0.00     0.157 HD
HETATM   18  H2  UNL     1      26.294  -2.440  53.231  1.00  0.00     0.157 HD
ENDBRANCH   1  16
BRANCH  11  19
HETATM   19  O1  UNL     1      21.425   2.498  52.294  1.00  0.00    -0.311 OA
BRANCH  19  20
HETATM   20  C10 UNL     1      20.526   1.442  52.385  1.00  0.00     0.076 A 
HETATM   21  C11 UNL     1      19.685   1.296  51.301  1.00  0.00     0.037 A 
HETATM   22  C12 UNL     1      18.730   0.311  51.206  1.00  0.00     0.003 A 
HETATM   23  C13 UNL     1      18.630  -0.570  52.277  1.00  0.00     0.000 A 
HETATM   24  C14 UNL     1      19.466  -0.445  53.384  1.00  0.00     0.003 A 
HETATM   25  C15 UNL     1      20.420   0.574  53.429  1.00  0.00     0.037 A 
ENDBRANCH  19  20
ENDBRANCH  11  19
TORSDOF 3
ENDMDL
MODEL 2
REMARK VINA RESULT:      -8.6      1.733      2.706
REMARK  3 active torsions:
REMARK  status: ('A' for Active; 'I' for Inactive)
REMARK    1  A    between atoms: N1_1  and  C1_2 
REMARK    2  A    between atoms: C9_12  and  O1_13 
REMARK    3  A    between atoms: O1_13  and  C10_14 
ROOT
HETATM    1  C1  UNL     1      26.998   0.395  54.430  1.00  0.00     0.137 A 
HETATM    2  N2  UNL     1      28.248   0.456  54.872  1.00  0.00    -0.224 NA
HETATM    3  C2  UNL     1      29.152   1.236  54.208  1.00  0.00     0.235 A 
HETATM    4  N3  UNL     1      28.725   1.912  53.127  1.00  0.00    -0.244 NA
HETATM    5  C3  UNL     1      27.455   1.817  52.721  1.00  0.00     0.072 A 
HETATM    6  C4  UNL     1      26.500   1.052  53.339  1.00  0.00     0.065 A 
HETATM    7  C5  UNL     1      25.191   1.126  52.731  1.00  0.00     0.077 A 
HETATM    8  C6  UNL     1      23.922   0.547  53.062  1.00  0.00    -0.007 A 
HETATM    9  C7  UNL     1      23.449  -0.406  53.897  1.00  0.00     0.016 A 
HETATM   10  C8  UNL     1      22.165  -0.765  54.174  1.00  0.00     0.038 A 
HETATM   11  C9  UNL     1      21.155  -0.090  53.537  1.00  0.00     0.076 A 
HETATM   12  C16 UNL     1      21.493   0.898  52.663  1.00  0.00     0.038 A 
HETATM   13  C17 UNL     1      22.828   1.162  52.472  1.00  0.00     0.016 A 
HETATM   14  N4  UNL     1      25.394   1.931  51.774  1.00  0.00    -0.282 NA
HETATM   15  C18 UNL     1      26.700   2.433  51.635  1.00  0.00     0.210 A 
ENDROOT
BRANCH   1  16
HETATM   16  N1  UNL     1      26.215  -0.408  55.268  1.00  0.00    -0.383 N 
HETATM   17  H1  UNL     1      25.628   0.259  55.854  1.00  0.00     0.157 HD
HETATM   18  H2  UNL     1      26.420  -1.432  55.089  1.00  0.00     0.157 HD
ENDBRANCH   1  16
BRANCH  11  19
HETATM   19  O1  UNL     1      19.839  -0.415  53.783  1.00  0.00    -0.311 OA
BRANCH  19  20
HETATM   20  C10 UNL     1      18.948  -0.345  52.719  1.00  0.00     0.076 A 
HETATM   21  C11 UNL     1      17.745  -0.990  52.922  1.00  0.00     0.037 A 
HETATM   22  C12 UNL     1      16.737  -1.031  51.988  1.00  0.00     0.003 A 
HETATM   23  C13 UNL     1      16.973  -0.379  50.783  1.00  0.00     0.000 A 
HETATM   24  C14 UNL     1      18.179   0.279  50.551  1.00  0.00     0.003 A 
HETATM   25  C15 UNL     1      19.169   0.291  51.535  1.00  0.00     0.037 A 
ENDBRANCH  19  20
ENDBRANCH  11  19
TORSDOF 3
ENDMDL
MODEL 3
REMARK VINA RESULT:      -8.4      2.529      4.249
REMARK  3 active torsions:
REMARK  status: ('A' for Active; 'I' for Inactive)
REMARK    1  A    between atoms: N1_1  and  C1_2 
REMARK    2  A    between atoms: C9_12  and  O1_13 
REMARK    3  A    between atoms: O1_13  and  C10_14 
ROOT
HETATM    1  C1  UNL     1      28.224   1.209  53.628  1.00  0.00     0.137 A 
HETATM    2  N2  UNL     1      29.506   1.001  53.905  1.00  0.00    -0.224 NA
HETATM    3  C2  UNL     1      30.017  -0.260  53.785  1.00  0.00     0.235 A 
HETATM    4  N3  UNL     1      29.187  -1.240  53.388  1.00  0.00    -0.244 NA
HETATM    5  C3  UNL     1      27.903  -0.980  53.122  1.00  0.00     0.072 A 
HETATM    6  C4  UNL     1      27.327   0.260  53.224  1.00  0.00     0.065 A 
HETATM    7  C5  UNL     1      25.928   0.301  52.862  1.00  0.00     0.077 A 
HETATM    8  C6  UNL     1      24.968   1.360  52.777  1.00  0.00    -0.007 A 
HETATM    9  C7  UNL     1      24.877   2.656  53.154  1.00  0.00     0.016 A 
HETATM   10  C8  UNL     1      23.910   3.577  52.890  1.00  0.00     0.038 A 
HETATM   11  C9  UNL     1      22.838   3.186  52.129  1.00  0.00     0.076 A 
HETATM   12  C16 UNL     1      22.800   1.900  51.683  1.00  0.00     0.038 A 
HETATM   13  C17 UNL     1      23.842   1.069  52.020  1.00  0.00     0.016 A 
HETATM   14  N4  UNL     1      25.706  -0.908  52.550  1.00  0.00    -0.282 NA
HETATM   15  C18 UNL     1      26.789  -1.798  52.654  1.00  0.00     0.210 A 
ENDROOT
BRANCH   1  16
HETATM   16  N1  UNL     1      27.903   2.566  53.758  1.00  0.00    -0.383 N 
HETATM   17  H1  UNL     1      27.512   2.685  54.740  1.00  0.00     0.157 HD
HETATM   18  H2  UNL     1      28.133   3.083  52.862  1.00  0.00     0.157 HD
ENDBRANCH   1  16
BRANCH  11  19
HETATM   19  O1  UNL     1      21.833   4.080  51.834  1.00  0.00    -0.311 OA
BRANCH  19  20
HETATM   20  C10 UNL     1      22.097   5.055  50.879  1.00  0.00     0.076 A 
HETATM   21  C11 UNL     1      21.805   6.346  51.266  1.00  0.00     0.037 A 
HETATM   22  C12 UNL     1      21.999   7.444  50.461  1.00  0.00     0.003 A 
HETATM   23  C13 UNL     1      22.518   7.207  49.194  1.00  0.00     0.000 A 
HETATM   24  C14 UNL     1      22.821   5.914  48.777  1.00  0.00     0.003 A 
HETATM   25  C15 UNL     1      22.606   4.834  49.635  1.00  0.00     0.037 A 
ENDBRANCH  19  20
ENDBRANCH  11  19
TORSDOF 3
ENDMDL
MODEL 4
REMARK VINA RESULT:      -8.1      1.960      2.940
REMARK  3 active torsions:
REMARK  status: ('A' for Active; 'I' for Inactive)
REMARK    1  A    between atoms: N1_1  and  C1_2 
REMARK    2  A    between atoms: C9_12  and  O1_13 
REMARK    3  A    between atoms: O1_13  and  C10_14 
ROOT
HETATM    1  C1  UNL     1      27.236   2.034  52.795  1.00  0.00     0.137 A 
HETATM    2  N2  UNL     1      28.519   2.290  53.018  1.00  0.00    -0.224 NA
HETATM    3  C2  UNL     1      29.153   1.660  54.051  1.00  0.00     0.235 A 
HETATM    4  N3  UNL     1      28.438   0.801  54.799  1.00  0.00    -0.244 NA
HETATM    5  C3  UNL     1      27.147   0.579  54.533  1.00  0.00     0.072 A 
HETATM    6  C4  UNL     1      26.451   1.178  53.516  1.00  0.00     0.065 A 
HETATM    7  C5  UNL     1      25.071   0.763  53.410  1.00  0.00     0.077 A 
HETATM    8  C6  UNL     1      24.017   1.085  52.494  1.00  0.00    -0.007 A 
HETATM    9  C7  UNL     1      23.787   1.993  51.519  1.00  0.00     0.016 A 
HETATM   10  C8  UNL     1      22.747   2.093  50.646  1.00  0.00     0.038 A 
HETATM   11  C9  UNL     1      21.750   1.155  50.722  1.00  0.00     0.076 A 
HETATM   12  C16 UNL     1      21.854   0.179  51.666  1.00  0.00     0.038 A 
HETATM   13  C17 UNL     1      22.956   0.191  52.487  1.00  0.00     0.016 A 
HETATM   14  N4  UNL     1      24.978  -0.073  54.359  1.00  0.00    -0.282 NA
HETATM   15  C18 UNL     1      26.137  -0.293  55.124  1.00  0.00     0.210 A 
ENDROOT
BRANCH   1  16
HETATM   16  N1  UNL     1      26.781   2.731  51.668  1.00  0.00    -0.383 N 
HETATM   17  H1  UNL     1      26.871   3.764  51.903  1.00  0.00     0.157 HD
HETATM   18  H2  UNL     1      26.479   2.050  50.914  1.00  0.00     0.157 HD
ENDBRANCH   1  16
BRANCH  11  19
HETATM   19  O1  UNL     1      20.676   1.212  49.861  1.00  0.00    -0.311 OA
BRANCH  19  20
HETATM   20  C10 UNL     1      19.436   1.536  50.397  1.00  0.00     0.076 A 
HETATM   21  C11 UNL     1      18.473   0.556  50.277  1.00  0.00     0.037 A 
HETATM   22  C12 UNL     1      17.187   0.690  50.745  1.00  0.00     0.003 A 
HETATM   23  C13 UNL     1      16.871   1.891  51.370  1.00  0.00     0.000 A 
HETATM   24  C14 UNL     1      17.823   2.898  51.505  1.00  0.00     0.003 A 
HETATM   25  C15 UNL     1      19.115   2.709  51.011  1.00  0.00     0.037 A 
ENDBRANCH  19  20
ENDBRANCH  11  19
TORSDOF 3
ENDMDL
MODEL 5
REMARK VINA RESULT:      -8.1      4.488      7.455
REMARK  3 active torsions:
REMARK  status: ('A' for Active; 'I' for Inactive)
REMARK    1  A    between atoms: N1_1  and  C1_2 
REMARK    2  A    between atoms: C9_12  and  O1_13 
REMARK    3  A    between atoms: O1_13  and  C10_14 
ROOT
HETATM    1  C1  UNL     1      23.178  -0.204  53.631  1.00  0.00     0.137 A 
HETATM    2  N2  UNL     1      22.703  -1.108  54.480  1.00  0.00    -0.224 NA
HETATM    3  C2  UNL     1      21.352  -1.266  54.599  1.00  0.00     0.235 A 
HETATM    4  N3  UNL     1      20.559  -0.490  53.840  1.00  0.00    -0.244 NA
HETATM    5  C3  UNL     1      21.085   0.407  53.000  1.00  0.00     0.072 A 
HETATM    6  C4  UNL     1      22.430   0.617  52.835  1.00  0.00     0.065 A 
HETATM    7  C5  UNL     1      22.761   1.625  51.853  1.00  0.00     0.077 A 
HETATM    8  C6  UNL     1      24.002   2.122  51.338  1.00  0.00    -0.007 A 
HETATM    9  C7  UNL     1      25.316   2.034  51.646  1.00  0.00     0.016 A 
HETATM   10  C8  UNL     1      26.405   2.490  50.969  1.00  0.00     0.038 A 
HETATM   11  C9  UNL     1      26.197   3.150  49.784  1.00  0.00     0.076 A 
HETATM   12  C16 UNL     1      24.916   3.312  49.354  1.00  0.00     0.038 A 
HETATM   13  C17 UNL     1      23.904   2.803  50.133  1.00  0.00     0.016 A 
HETATM   14  N4  UNL     1      21.613   1.986  51.455  1.00  0.00    -0.282 NA
HETATM   15  C18 UNL     1      20.508   1.349  52.047  1.00  0.00     0.210 A 
ENDROOT
BRANCH   1  16
HETATM   16  N1  UNL     1      24.578  -0.228  53.613  1.00  0.00    -0.383 N 
HETATM   17  H1  UNL     1      24.861  -1.209  53.912  1.00  0.00     0.157 HD
HETATM   18  H2  UNL     1      24.956   0.716  53.315  1.00  0.00     0.157 HD
ENDBRANCH   1  16
BRANCH  11  19
HETATM   19  O1  UNL     1      27.266   3.631  49.060  1.00  0.00    -0.311 OA
BRANCH  19  20
HETATM   20  C10 UNL     1      27.303   4.994  48.795  1.00  0.00     0.076 A 
HETATM   21  C11 UNL     1      28.495   5.455  48.274  1.00  0.00     0.037 A 
HETATM   22  C12 UNL     1      28.724   6.771  47.947  1.00  0.00     0.003 A 
HETATM   23  C13 UNL     1      27.679   7.661  48.166  1.00  0.00     0.000 A 
HETATM   24  C14 UNL     1      26.465   7.223  48.691  1.00  0.00     0.003 A 
HETATM   25  C15 UNL     1      26.286   5.875  49.005  1.00  0.00     0.037 A 
ENDBRANCH  19  20
ENDBRANCH  11  19
TORSDOF 3
ENDMDL
MODEL 6
REMARK VINA RESULT:      -7.9      4.340      6.579
REMARK  3 active torsions:
REMARK  status: ('A' for Active; 'I' for Inactive)
REMARK    1  A    between atoms: N1_1  and  C1_2 
REMARK    2  A    between atoms: C9_12  and  O1_13 
REMARK    3  A    between atoms: O1_13  and  C10_14 
ROOT
HETATM    1  C1  UNL     1      23.439   0.225  53.551  1.00  0.00     0.137 A 
HETATM    2  N2  UNL     1      22.815  -0.495  54.476  1.00  0.00    -0.224 NA
HETATM    3  C2  UNL     1      23.547  -1.305  55.296  1.00  0.00     0.235 A 
HETATM    4  N3  UNL     1      24.880  -1.333  55.125  1.00  0.00    -0.244 NA
HETATM    5  C3  UNL     1      25.462  -0.590  54.178  1.00  0.00     0.072 A 
HETATM    6  C4  UNL     1      24.786   0.241  53.323  1.00  0.00     0.065 A 
HETATM    7  C5  UNL     1      25.632   0.962  52.398  1.00  0.00     0.077 A 
HETATM    8  C6  UNL     1      25.368   1.943  51.388  1.00  0.00    -0.007 A 
HETATM    9  C7  UNL     1      24.289   2.454  50.752  1.00  0.00     0.016 A 
HETATM   10  C8  UNL     1      24.202   3.489  49.873  1.00  0.00     0.038 A 
HETATM   11  C9  UNL     1      25.356   4.154  49.544  1.00  0.00     0.076 A 
HETATM   12  C16 UNL     1      26.521   3.740  50.113  1.00  0.00     0.038 A 
HETATM   13  C17 UNL     1      26.472   2.680  50.986  1.00  0.00     0.016 A 
HETATM   14  N4  UNL     1      26.785   0.549  52.726  1.00  0.00    -0.282 NA
HETATM   15  C18 UNL     1      26.849  -0.383  53.775  1.00  0.00     0.210 A 
ENDROOT
BRANCH   1  16
HETATM   16  N1  UNL     1      22.530   1.027  52.850  1.00  0.00    -0.383 N 
HETATM   17  H1  UNL     1      22.374   1.892  53.451  1.00  0.00     0.157 HD
HETATM   18  H2  UNL     1      22.256   0.560  51.940  1.00  0.00     0.157 HD
ENDBRANCH   1  16
BRANCH  11  19
HETATM   19  O1  UNL     1      25.321   5.209  48.659  1.00  0.00    -0.311 OA
BRANCH  19  20
HETATM   20  C10 UNL     1      26.038   6.352  48.990  1.00  0.00     0.076 A 
HETATM   21  C11 UNL     1      27.169   6.573  48.232  1.00  0.00     0.037 A 
HETATM   22  C12 UNL     1      28.006   7.649  48.409  1.00  0.00     0.003 A 
HETATM   23  C13 UNL     1      27.667   8.547  49.415  1.00  0.00     0.000 A 
HETATM   24  C14 UNL     1      26.531   8.348  50.196  1.00  0.00     0.003 A 
HETATM   25  C15 UNL     1      25.715   7.238  49.974  1.00  0.00     0.037 A 
ENDBRANCH  19  20
ENDBRANCH  11  19
TORSDOF 3
ENDMDL
MODEL 7
REMARK VINA RESULT:      -7.8      4.806      9.066
REMARK  3 active torsions:
REMARK  status: ('A' for Active; 'I' for Inactive)
REMARK    1  A    between atoms: N1_1  and  C1_2 
REMARK    2  A    between atoms: C9_12  and  O1_13 
REMARK    3  A    between atoms: O1_13  and  C10_14 
ROOT
HETATM    1  C1  UNL     1      17.138   0.220  49.921  1.00  0.00     0.137 A 
HETATM    2  N2  UNL     1      16.075   0.269  49.128  1.00  0.00    -0.224 NA
HETATM    3  C2  UNL     1      14.938  -0.393  49.496  1.00  0.00     0.235 A 
HETATM    4  N3  UNL     1      14.953  -1.070  50.658  1.00  0.00    -0.244 NA
HETATM    5  C3  UNL     1      16.050  -1.090  51.421  1.00  0.00     0.072 A 
HETATM    6  C4  UNL     1      17.221  -0.450  51.109  1.00  0.00     0.065 A 
HETATM    7  C5  UNL     1      18.264  -0.597  52.100  1.00  0.00     0.077 A 
HETATM    8  C6  UNL     1      19.594  -0.075  52.209  1.00  0.00    -0.007 A 
HETATM    9  C7  UNL     1      20.480   0.568  51.415  1.00  0.00     0.016 A 
HETATM   10  C8  UNL     1      21.694   1.105  51.717  1.00  0.00     0.038 A 
HETATM   11  C9  UNL     1      22.138   1.007  53.011  1.00  0.00     0.076 A 
HETATM   12  C16 UNL     1      21.342   0.378  53.919  1.00  0.00     0.038 A 
HETATM   13  C17 UNL     1      20.137  -0.121  53.484  1.00  0.00     0.016 A 
HETATM   14  N4  UNL     1      17.690  -1.312  52.976  1.00  0.00    -0.282 NA
HETATM   15  C18 UNL     1      16.362  -1.690  52.714  1.00  0.00     0.210 A 
ENDROOT
BRANCH   1  16
HETATM   16  N1  UNL     1      18.180   0.999  49.402  1.00  0.00    -0.383 N 
HETATM   17  H1  UNL     1      17.727   1.688  48.730  1.00  0.00     0.157 HD
HETATM   18  H2  UNL     1      19.106   0.692  49.814  1.00  0.00     0.157 HD
ENDBRANCH   1  16
BRANCH  11  19
HETATM   19  O1  UNL     1      23.359   1.535  53.368  1.00  0.00    -0.311 OA
BRANCH  19  20
HETATM   20  C10 UNL     1      24.498   0.822  53.013  1.00  0.00     0.076 A 
HETATM   21  C11 UNL     1      25.360   1.483  52.163  1.00  0.00     0.037 A 
HETATM   22  C12 UNL     1      26.537   0.943  51.701  1.00  0.00     0.003 A 
HETATM   23  C13 UNL     1      26.848  -0.342  52.133  1.00  0.00     0.000 A 
HETATM   24  C14 UNL     1      25.996  -1.032  52.991  1.00  0.00     0.003 A 
HETATM   25  C15 UNL     1      24.813  -0.436  53.430  1.00  0.00     0.037 A 
ENDBRANCH  19  20
ENDBRANCH  11  19
TORSDOF 3
ENDMDL
MODEL 8
REMARK VINA RESULT:      -7.6      3.304      4.469
REMARK  3 active torsions:
REMARK  status: ('A' for Active; 'I' for Inactive)
REMARK    1  A    between atoms: N1_1  and  C1_2 
REMARK    2  A    between atoms: C9_12  and  O1_13 
REMARK    3  A    between atoms: O1_13  and  C10_14 
ROOT
HETATM    1  C1  UNL     1      27.276   1.755  52.774  1.00  0.00     0.137 A 
HETATM    2  N2  UNL     1      28.557   1.587  53.081  1.00  0.00    -0.224 NA
HETATM    3  C2  UNL     1      28.919   0.533  53.871  1.00  0.00     0.235 A 
HETATM    4  N3  UNL     1      27.950  -0.292  54.303  1.00  0.00    -0.244 NA
HETATM    5  C3  UNL     1      26.674  -0.079  53.967  1.00  0.00     0.072 A 
HETATM    6  C4  UNL     1      26.243   0.958  53.182  1.00  0.00     0.065 A 
HETATM    7  C5  UNL     1      24.818   0.970  52.935  1.00  0.00     0.077 A 
HETATM    8  C6  UNL     1      23.965   1.816  52.155  1.00  0.00    -0.007 A 
HETATM    9  C7  UNL     1      24.055   3.002  51.511  1.00  0.00     0.016 A 
HETATM   10  C8  UNL     1      23.157   3.627  50.702  1.00  0.00     0.038 A 
HETATM   11  C9  UNL     1      21.958   3.005  50.469  1.00  0.00     0.076 A 
HETATM   12  C16 UNL     1      21.732   1.799  51.059  1.00  0.00     0.038 A 
HETATM   13  C17 UNL     1      22.723   1.275  51.855  1.00  0.00     0.016 A 
HETATM   14  N4  UNL     1      24.437  -0.058  53.572  1.00  0.00    -0.282 NA
HETATM   15  C18 UNL     1      25.430  -0.792  54.243  1.00  0.00     0.210 A 
ENDROOT
BRANCH   1  16
HETATM   16  N1  UNL     1      27.112   2.851  51.919  1.00  0.00    -0.383 N 
HETATM   17  H1  UNL     1      27.620   2.602  51.018  1.00  0.00     0.157 HD
HETATM   18  H2  UNL     1      26.542   3.606  52.396  1.00  0.00     0.157 HD
ENDBRANCH   1  16
BRANCH  11  19
HETATM   19  O1  UNL     1      21.015   3.596  49.657  1.00  0.00    -0.311 OA
BRANCH  19  20
HETATM   20  C10 UNL     1      21.375   3.866  48.342  1.00  0.00     0.076 A 
HETATM   21  C11 UNL     1      21.355   5.201  47.994  1.00  0.00     0.037 A 
HETATM   22  C12 UNL     1      21.680   5.666  46.741  1.00  0.00     0.003 A 
HETATM   23  C13 UNL     1      22.044   4.714  45.795  1.00  0.00     0.000 A 
HETATM   24  C14 UNL     1      22.072   3.360  46.119  1.00  0.00     0.003 A 
HETATM   25  C15 UNL     1      21.733   2.942  47.408  1.00  0.00     0.037 A 
ENDBRANCH  19  20
ENDBRANCH  11  19
TORSDOF 3
ENDMDL
MODEL 9
REMARK VINA RESULT:      -7.5      3.990      5.741
REMARK  3 active torsions:
REMARK  status: ('A' for Active; 'I' for Inactive)
REMARK    1  A    between atoms: N1_1  and  C1_2 
REMARK    2  A    between atoms: C9_12  and  O1_13 
REMARK    3  A    between atoms: O1_13  and  C10_14 
ROOT
HETATM    1  C1  UNL     1      23.412   0.136  53.571  1.00  0.00     0.137 A 
HETATM    2  N2  UNL     1      22.780  -0.595  54.481  1.00  0.00    -0.224 NA
HETATM    3  C2  UNL     1      23.510  -1.378  55.330  1.00  0.00     0.235 A 
HETATM    4  N3  UNL     1      24.847  -1.370  55.200  1.00  0.00    -0.244 NA
HETATM    5  C3  UNL     1      25.437  -0.617  54.265  1.00  0.00     0.072 A 
HETATM    6  C4  UNL     1      24.765   0.188  53.383  1.00  0.00     0.065 A 
HETATM    7  C5  UNL     1      25.618   0.926  52.479  1.00  0.00     0.077 A 
HETATM    8  C6  UNL     1      25.357   1.893  51.454  1.00  0.00    -0.007 A 
HETATM    9  C7  UNL     1      24.284   2.368  50.781  1.00  0.00     0.016 A 
HETATM   10  C8  UNL     1      24.195   3.394  49.891  1.00  0.00     0.038 A 
HETATM   11  C9  UNL     1      25.339   4.089  49.592  1.00  0.00     0.076 A 
HETATM   12  C16 UNL     1      26.498   3.712  50.199  1.00  0.00     0.038 A 
HETATM   13  C17 UNL     1      26.452   2.658  51.080  1.00  0.00     0.016 A 
HETATM   14  N4  UNL     1      26.771   0.549  52.845  1.00  0.00    -0.282 NA
HETATM   15  C18 UNL     1      26.829  -0.374  53.903  1.00  0.00     0.210 A 
ENDROOT
BRANCH   1  16
HETATM   16  N1  UNL     1      22.502   0.907  52.836  1.00  0.00    -0.383 N 
HETATM   17  H1  UNL     1      21.576   0.846  53.355  1.00  0.00     0.157 HD
HETATM   18  H2  UNL     1      22.979   1.325  51.987  1.00  0.00     0.157 HD
ENDBRANCH   1  16
BRANCH  11  19
HETATM   19  O1  UNL     1      25.302   5.136  48.698  1.00  0.00    -0.311 OA
BRANCH  19  20
HETATM   20  C10 UNL     1      24.429   6.183  48.968  1.00  0.00     0.076 A 
HETATM   21  C11 UNL     1      24.733   6.921  50.093  1.00  0.00     0.037 A 
HETATM   22  C12 UNL     1      23.990   7.995  50.522  1.00  0.00     0.003 A 
HETATM   23  C13 UNL     1      22.877   8.331  49.760  1.00  0.00     0.000 A 
HETATM   24  C14 UNL     1      22.547   7.603  48.619  1.00  0.00     0.003 A 
HETATM   25  C15 UNL     1      23.337   6.521  48.228  1.00  0.00     0.037 A 
ENDBRANCH  19  20
ENDBRANCH  11  19
TORSDOF 3
ENDMDL
