MODEL 1
REMARK VINA RESULT:      -8.2      0.000      0.000
REMARK  3 active torsions:
REMARK  status: ('A' for Active; 'I' for Inactive)
REMARK    1  A    between atoms: C2_2  and  O1_3 
REMARK    2  A    between atoms: O1_3  and  C3_4 
REMARK       I    between atoms: C3_4  and  N1_6 
REMARK       I    between atoms: N1_6  and  C4_7 
REMARK    3  A    between atoms: N1_6  and  C5_10 
REMARK       I    between atoms: C4_7  and  N2_8 
ROOT
HETATM    1  C5  UNL     1      25.961   0.047  52.142  1.00  0.00     0.138 A 
HETATM    2  C6  UNL     1      26.401  -1.398  52.090  1.00  0.00     0.070 A 
HETATM    3  C7  UNL     1      27.732  -1.374  52.724  1.00  0.00    -0.044 A 
HETATM    4  C8  UNL     1      28.647  -2.405  52.970  1.00  0.00     0.008 A 
HETATM    5  C9  UNL     1      29.866  -2.122  53.599  1.00  0.00     0.001 A 
HETATM    6  C10 UNL     1      30.186  -0.830  53.984  1.00  0.00     0.012 A 
HETATM    7  C11 UNL     1      29.295   0.198  53.749  1.00  0.00    -0.025 A 
HETATM    8  C12 UNL     1      29.480   1.524  54.078  1.00  0.00     0.012 A 
HETATM    9  C13 UNL     1      28.479   2.454  53.773  1.00  0.00     0.002 A 
HETATM   10  C14 UNL     1      27.299   2.058  53.143  1.00  0.00     0.010 A 
HETATM   11  C15 UNL     1      27.101   0.714  52.805  1.00  0.00    -0.023 A 
HETATM   12  C16 UNL     1      28.128  -0.142  53.135  1.00  0.00    -0.011 A 
ENDROOT
BRANCH   1  13
HETATM   13  N1  UNL     1      24.725   0.193  52.863  1.00  0.00    -0.236 N 
HETATM   14  C3  UNL     1      24.489  -0.500  54.083  1.00  0.00     0.371 C 
HETATM   15  O2  UNL     1      25.361  -1.264  54.569  1.00  0.00    -0.238 OA
HETATM   16  C4  UNL     1      23.717   1.049  52.341  1.00  0.00     0.325 C 
HETATM   17  N2  UNL     1      23.833   1.781  51.151  1.00  0.00    -0.351 N 
HETATM   18  O3  UNL     1      22.610   1.230  52.909  1.00  0.00    -0.247 OA
HETATM   19  H6  UNL     1      23.649   1.740  50.110  1.00  0.00     0.160 HD
HETATM   20  H7  UNL     1      24.210   2.745  50.976  1.00  0.00     0.160 HD
BRANCH  14  21
HETATM   21  O1  UNL     1      23.288  -0.344  54.761  1.00  0.00    -0.304 OA
BRANCH  21  22
HETATM   22  C2  UNL     1      22.513  -1.414  55.215  1.00  0.00     0.176 C 
HETATM   23  C1  UNL     1      21.340  -1.693  54.323  1.00  0.00     0.034 C 
ENDBRANCH  21  22
ENDBRANCH  14  21
ENDBRANCH   1  13
TORSDOF 3
ENDMDL
MODEL 2
REMARK VINA RESULT:      -8.0      2.104      6.161
REMARK  3 active torsions:
REMARK  status: ('A' for Active; 'I' for Inactive)
REMARK    1  A    between atoms: C2_2  and  O1_3 
REMARK    2  A    between atoms: O1_3  and  C3_4 
REMARK       I    between atoms: C3_4  and  N1_6 
REMARK       I    between atoms: N1_6  and  C4_7 
REMARK    3  A    between atoms: N1_6  and  C5_10 
REMARK       I    between atoms: C4_7  and  N2_8 
ROOT
HETATM    1  C5  UNL     1      24.683   0.278  52.494  1.00  0.00     0.138 A 
HETATM    2  C6  UNL     1      24.359   1.411  51.548  1.00  0.00     0.070 A 
HETATM    3  C7  UNL     1      22.956   1.733  51.869  1.00  0.00    -0.044 A 
HETATM    4  C8  UNL     1      22.092   2.695  51.330  1.00  0.00     0.008 A 
HETATM    5  C9  UNL     1      20.783   2.807  51.813  1.00  0.00     0.001 A 
HETATM    6  C10 UNL     1      20.323   1.977  52.824  1.00  0.00     0.012 A 
HETATM    7  C11 UNL     1      21.162   1.024  53.367  1.00  0.00    -0.025 A 
HETATM    8  C12 UNL     1      20.841   0.137  54.371  1.00  0.00     0.012 A 
HETATM    9  C13 UNL     1      21.805  -0.774  54.818  1.00  0.00     0.002 A 
HETATM   10  C14 UNL     1      23.084  -0.797  54.261  1.00  0.00     0.010 A 
HETATM   11  C15 UNL     1      23.420   0.100  53.240  1.00  0.00    -0.023 A 
HETATM   12  C16 UNL     1      22.422   0.967  52.853  1.00  0.00    -0.011 A 
ENDROOT
BRANCH   1  13
HETATM   13  N1  UNL     1      25.799   0.607  53.342  1.00  0.00    -0.236 N 
HETATM   14  C3  UNL     1      26.668  -0.397  53.851  1.00  0.00     0.371 C 
HETATM   15  O2  UNL     1      26.486  -1.610  53.571  1.00  0.00    -0.238 OA
HETATM   16  C4  UNL     1      26.033   1.968  53.678  1.00  0.00     0.325 C 
HETATM   17  N2  UNL     1      25.247   3.043  53.239  1.00  0.00    -0.351 N 
HETATM   18  O3  UNL     1      26.984   2.339  54.412  1.00  0.00    -0.247 OA
HETATM   19  H6  UNL     1      24.407   3.636  53.491  1.00  0.00     0.160 HD
HETATM   20  H7  UNL     1      25.322   3.637  52.377  1.00  0.00     0.160 HD
BRANCH  14  21
HETATM   21  O1  UNL     1      27.737  -0.056  54.667  1.00  0.00    -0.304 OA
BRANCH  21  22
HETATM   22  C2  UNL     1      29.046  -0.489  54.447  1.00  0.00     0.176 C 
HETATM   23  C1  UNL     1      29.748   0.316  53.394  1.00  0.00     0.034 C 
ENDBRANCH  21  22
ENDBRANCH  14  21
ENDBRANCH   1  13
TORSDOF 3
ENDMDL
MODEL 3
REMARK VINA RESULT:      -7.9      3.149      5.707
REMARK  3 active torsions:
REMARK  status: ('A' for Active; 'I' for Inactive)
REMARK    1  A    between atoms: C2_2  and  O1_3 
REMARK    2  A    between atoms: O1_3  and  C3_4 
REMARK       I    between atoms: C3_4  and  N1_6 
REMARK       I    between atoms: N1_6  and  C4_7 
REMARK    3  A    between atoms: N1_6  and  C5_10 
REMARK       I    between atoms: C4_7  and  N2_8 
ROOT
HETATM    1  C5  UNL     1      25.495   1.438  51.725  1.00  0.00     0.138 A 
HETATM    2  C6  UNL     1      26.493   1.705  50.622  1.00  0.00     0.070 A 
HETATM    3  C7  UNL     1      26.205   3.097  50.230  1.00  0.00    -0.044 A 
HETATM    4  C8  UNL     1      26.795   3.914  49.258  1.00  0.00     0.008 A 
HETATM    5  C9  UNL     1      26.336   5.224  49.074  1.00  0.00     0.001 A 
HETATM    6  C10 UNL     1      25.300   5.731  49.843  1.00  0.00     0.012 A 
HETATM    7  C11 UNL     1      24.708   4.939  50.806  1.00  0.00    -0.025 A 
HETATM    8  C12 UNL     1      23.674   5.309  51.640  1.00  0.00     0.012 A 
HETATM    9  C13 UNL     1      23.179   4.389  52.571  1.00  0.00     0.002 A 
HETATM   10  C14 UNL     1      23.715   3.105  52.667  1.00  0.00     0.010 A 
HETATM   11  C15 UNL     1      24.764   2.718  51.825  1.00  0.00    -0.023 A 
HETATM   12  C16 UNL     1      25.200   3.675  50.935  1.00  0.00    -0.011 A 
ENDROOT
BRANCH   1  13
HETATM   13  N1  UNL     1      26.155   1.068  52.950  1.00  0.00    -0.236 N 
HETATM   14  C3  UNL     1      27.402   1.639  53.325  1.00  0.00     0.371 C 
HETATM   15  O2  UNL     1      27.968   2.490  52.592  1.00  0.00    -0.238 OA
HETATM   16  C4  UNL     1      25.543   0.107  53.800  1.00  0.00     0.325 C 
HETATM   17  N2  UNL     1      24.320  -0.524  53.538  1.00  0.00    -0.351 N 
HETATM   18  O3  UNL     1      26.054  -0.270  54.886  1.00  0.00    -0.247 OA
HETATM   19  H6  UNL     1      23.886  -1.375  53.082  1.00  0.00     0.160 HD
HETATM   20  H7  UNL     1      23.338  -0.241  53.783  1.00  0.00     0.160 HD
BRANCH  14  21
HETATM   21  O1  UNL     1      28.020   1.266  54.509  1.00  0.00    -0.304 OA
BRANCH  21  22
HETATM   22  C2  UNL     1      29.321   0.761  54.578  1.00  0.00     0.176 C 
HETATM   23  C1  UNL     1      29.480  -0.521  53.816  1.00  0.00     0.034 C 
ENDBRANCH  21  22
ENDBRANCH  14  21
ENDBRANCH   1  13
TORSDOF 3
ENDMDL
MODEL 4
REMARK VINA RESULT:      -7.6      2.017      5.604
REMARK  3 active torsions:
REMARK  status: ('A' for Active; 'I' for Inactive)
REMARK    1  A    between atoms: C2_2  and  O1_3 
REMARK    2  A    between atoms: O1_3  and  C3_4 
REMARK       I    between atoms: C3_4  and  N1_6 
REMARK       I    between atoms: N1_6  and  C4_7 
REMARK    3  A    between atoms: N1_6  and  C5_10 
REMARK       I    between atoms: C4_7  and  N2_8 
ROOT
HETATM    1  C5  UNL     1      25.727   0.807  54.245  1.00  0.00     0.138 A 
HETATM    2  C6  UNL     1      25.219  -0.247  55.201  1.00  0.00     0.070 A 
HETATM    3  C7  UNL     1      23.901  -0.606  54.646  1.00  0.00    -0.044 A 
HETATM    4  C8  UNL     1      22.942  -1.527  55.086  1.00  0.00     0.008 A 
HETATM    5  C9  UNL     1      21.749  -1.688  54.372  1.00  0.00     0.001 A 
HETATM    6  C10 UNL     1      21.496  -0.947  53.228  1.00  0.00     0.012 A 
HETATM    7  C11 UNL     1      22.431  -0.035  52.780  1.00  0.00    -0.025 A 
HETATM    8  C12 UNL     1      22.314   0.766  51.664  1.00  0.00     0.012 A 
HETATM    9  C13 UNL     1      23.353   1.646  51.338  1.00  0.00     0.002 A 
HETATM   10  C14 UNL     1      24.503   1.723  52.125  1.00  0.00     0.010 A 
HETATM   11  C15 UNL     1      24.631   0.914  53.261  1.00  0.00    -0.023 A 
HETATM   12  C16 UNL     1      23.570   0.075  53.519  1.00  0.00    -0.011 A 
ENDROOT
BRANCH   1  13
HETATM   13  N1  UNL     1      26.980   0.420  53.655  1.00  0.00    -0.236 N 
HETATM   14  C3  UNL     1      27.225  -0.919  53.240  1.00  0.00     0.371 C 
HETATM   15  O2  UNL     1      26.345  -1.807  53.377  1.00  0.00    -0.238 OA
HETATM   16  C4  UNL     1      27.997   1.399  53.487  1.00  0.00     0.325 C 
HETATM   17  N2  UNL     1      27.874   2.745  53.857  1.00  0.00    -0.351 N 
HETATM   18  O3  UNL     1      29.119   1.141  52.981  1.00  0.00    -0.247 OA
HETATM   19  H6  UNL     1      28.037   3.422  54.653  1.00  0.00     0.160 HD
HETATM   20  H7  UNL     1      27.516   3.572  53.318  1.00  0.00     0.160 HD
BRANCH  14  21
HETATM   21  O1  UNL     1      28.442  -1.270  52.674  1.00  0.00    -0.304 OA
BRANCH  21  22
HETATM   22  C2  UNL     1      29.265  -2.280  53.177  1.00  0.00     0.176 C 
HETATM   23  C1  UNL     1      30.371  -1.744  54.038  1.00  0.00     0.034 C 
ENDBRANCH  21  22
ENDBRANCH  14  21
ENDBRANCH   1  13
TORSDOF 3
ENDMDL
MODEL 5
REMARK VINA RESULT:      -7.4      2.465      4.275
REMARK  3 active torsions:
REMARK  status: ('A' for Active; 'I' for Inactive)
REMARK    1  A    between atoms: C2_2  and  O1_3 
REMARK    2  A    between atoms: O1_3  and  C3_4 
REMARK       I    between atoms: C3_4  and  N1_6 
REMARK       I    between atoms: N1_6  and  C4_7 
REMARK    3  A    between atoms: N1_6  and  C5_10 
REMARK       I    between atoms: C4_7  and  N2_8 
ROOT
HETATM    1  C5  UNL     1      25.707   1.277  53.107  1.00  0.00     0.138 A 
HETATM    2  C6  UNL     1      26.804   2.143  53.682  1.00  0.00     0.070 A 
HETATM    3  C7  UNL     1      27.962   1.232  53.744  1.00  0.00    -0.044 A 
HETATM    4  C8  UNL     1      29.273   1.446  54.187  1.00  0.00     0.008 A 
HETATM    5  C9  UNL     1      30.204   0.402  54.143  1.00  0.00     0.001 A 
HETATM    6  C10 UNL     1      29.850  -0.850  53.666  1.00  0.00     0.012 A 
HETATM    7  C11 UNL     1      28.562  -1.078  53.225  1.00  0.00    -0.025 A 
HETATM    8  C12 UNL     1      28.073  -2.267  52.727  1.00  0.00     0.012 A 
HETATM    9  C13 UNL     1      26.737  -2.343  52.317  1.00  0.00     0.002 A 
HETATM   10  C14 UNL     1      25.894  -1.234  52.406  1.00  0.00     0.010 A 
HETATM   11  C15 UNL     1      26.381  -0.022  52.911  1.00  0.00    -0.023 A 
HETATM   12  C16 UNL     1      27.704  -0.023  53.293  1.00  0.00    -0.011 A 
ENDROOT
BRANCH   1  13
HETATM   13  N1  UNL     1      25.186   1.834  51.886  1.00  0.00    -0.236 N 
HETATM   14  C3  UNL     1      26.007   2.585  51.001  1.00  0.00     0.371 C 
HETATM   15  O2  UNL     1      27.221   2.786  51.262  1.00  0.00    -0.238 OA
HETATM   16  C4  UNL     1      23.818   1.626  51.561  1.00  0.00     0.325 C 
HETATM   17  N2  UNL     1      22.912   0.906  52.352  1.00  0.00    -0.351 N 
HETATM   18  O3  UNL     1      23.286   2.078  50.515  1.00  0.00    -0.247 OA
HETATM   19  H6  UNL     1      22.204   1.005  53.132  1.00  0.00     0.160 HD
HETATM   20  H7  UNL     1      22.673  -0.117  52.358  1.00  0.00     0.160 HD
BRANCH  14  21
HETATM   21  O1  UNL     1      25.483   3.113  49.830  1.00  0.00    -0.304 OA
BRANCH  21  22
HETATM   22  C2  UNL     1      25.732   4.415  49.389  1.00  0.00     0.176 C 
HETATM   23  C1  UNL     1      24.476   5.140  49.004  1.00  0.00     0.034 C 
ENDBRANCH  21  22
ENDBRANCH  14  21
ENDBRANCH   1  13
TORSDOF 3
ENDMDL
MODEL 6
REMARK VINA RESULT:      -7.4      2.134      6.377
REMARK  3 active torsions:
REMARK  status: ('A' for Active; 'I' for Inactive)
REMARK    1  A    between atoms: C2_2  and  O1_3 
REMARK    2  A    between atoms: O1_3  and  C3_4 
REMARK       I    between atoms: C3_4  and  N1_6 
REMARK       I    between atoms: N1_6  and  C4_7 
REMARK    3  A    between atoms: N1_6  and  C5_10 
REMARK       I    between atoms: C4_7  and  N2_8 
ROOT
HETATM    1  C5  UNL     1      24.675   0.153  52.362  1.00  0.00     0.138 A 
HETATM    2  C6  UNL     1      24.341   1.339  51.487  1.00  0.00     0.070 A 
HETATM    3  C7  UNL     1      22.983   1.713  51.922  1.00  0.00    -0.044 A 
HETATM    4  C8  UNL     1      22.131   2.735  51.486  1.00  0.00     0.008 A 
HETATM    5  C9  UNL     1      20.867   2.888  52.068  1.00  0.00     0.001 A 
HETATM    6  C10 UNL     1      20.439   2.038  53.075  1.00  0.00     0.012 A 
HETATM    7  C11 UNL     1      21.266   1.025  53.518  1.00  0.00    -0.025 A 
HETATM    8  C12 UNL     1      20.974   0.111  54.507  1.00  0.00     0.012 A 
HETATM    9  C13 UNL     1      21.921  -0.863  54.846  1.00  0.00     0.002 A 
HETATM   10  C14 UNL     1      23.154  -0.921  54.196  1.00  0.00     0.010 A 
HETATM   11  C15 UNL     1      23.461   0.002  53.190  1.00  0.00    -0.023 A 
HETATM   12  C16 UNL     1      22.482   0.930  52.912  1.00  0.00    -0.011 A 
ENDROOT
BRANCH   1  13
HETATM   13  N1  UNL     1      25.863   0.393  53.138  1.00  0.00    -0.236 N 
HETATM   14  C3  UNL     1      26.178   1.688  53.635  1.00  0.00     0.371 C 
HETATM   15  O2  UNL     1      25.422   2.667  53.407  1.00  0.00    -0.238 OA
HETATM   16  C4  UNL     1      26.740  -0.692  53.413  1.00  0.00     0.325 C 
HETATM   17  N2  UNL     1      26.537  -2.009  52.978  1.00  0.00    -0.351 N 
HETATM   18  O3  UNL     1      27.796  -0.566  54.082  1.00  0.00    -0.247 OA
HETATM   19  H6  UNL     1      26.744  -2.682  52.188  1.00  0.00     0.160 HD
HETATM   20  H7  UNL     1      26.022  -2.806  53.429  1.00  0.00     0.160 HD
BRANCH  14  21
HETATM   21  O1  UNL     1      27.329   1.896  54.380  1.00  0.00    -0.304 OA
BRANCH  21  22
HETATM   22  C2  UNL     1      28.481   2.501  53.873  1.00  0.00     0.176 C 
HETATM   23  C1  UNL     1      29.718   2.099  54.619  1.00  0.00     0.034 C 
ENDBRANCH  21  22
ENDBRANCH  14  21
ENDBRANCH   1  13
TORSDOF 3
ENDMDL
MODEL 7
REMARK VINA RESULT:      -7.4      4.116      6.051
REMARK  3 active torsions:
REMARK  status: ('A' for Active; 'I' for Inactive)
REMARK    1  A    between atoms: C2_2  and  O1_3 
REMARK    2  A    between atoms: O1_3  and  C3_4 
REMARK       I    between atoms: C3_4  and  N1_6 
REMARK       I    between atoms: N1_6  and  C4_7 
REMARK    3  A    between atoms: N1_6  and  C5_10 
REMARK       I    between atoms: C4_7  and  N2_8 
ROOT
HETATM    1  C5  UNL     1      25.056   2.853  50.382  1.00  0.00     0.138 A 
HETATM    2  C6  UNL     1      26.283   2.847  49.500  1.00  0.00     0.070 A 
HETATM    3  C7  UNL     1      26.569   4.280  49.301  1.00  0.00    -0.044 A 
HETATM    4  C8  UNL     1      27.582   4.919  48.576  1.00  0.00     0.008 A 
HETATM    5  C9  UNL     1      27.640   6.318  48.541  1.00  0.00     0.001 A 
HETATM    6  C10 UNL     1      26.707   7.087  49.217  1.00  0.00     0.012 A 
HETATM    7  C11 UNL     1      25.702   6.473  49.937  1.00  0.00    -0.025 A 
HETATM    8  C12 UNL     1      24.711   7.109  50.654  1.00  0.00     0.012 A 
HETATM    9  C13 UNL     1      23.758   6.345  51.337  1.00  0.00     0.002 A 
HETATM   10  C14 UNL     1      23.796   4.951  51.302  1.00  0.00     0.010 A 
HETATM   11  C15 UNL     1      24.798   4.295  50.577  1.00  0.00    -0.023 A 
HETATM   12  C16 UNL     1      25.700   5.111  49.932  1.00  0.00    -0.011 A 
ENDROOT
BRANCH   1  13
HETATM   13  N1  UNL     1      25.293   2.150  51.614  1.00  0.00    -0.236 N 
HETATM   14  C3  UNL     1      26.576   2.134  52.227  1.00  0.00     0.371 C 
HETATM   15  O2  UNL     1      27.547   2.739  51.705  1.00  0.00    -0.238 OA
HETATM   16  C4  UNL     1      24.217   1.454  52.230  1.00  0.00     0.325 C 
HETATM   17  N2  UNL     1      22.912   1.397  51.723  1.00  0.00    -0.351 N 
HETATM   18  O3  UNL     1      24.341   0.816  53.307  1.00  0.00    -0.247 OA
HETATM   19  H6  UNL     1      22.271   0.835  51.096  1.00  0.00     0.160 HD
HETATM   20  H7  UNL     1      22.090   2.033  51.877  1.00  0.00     0.160 HD
BRANCH  14  21
HETATM   21  O1  UNL     1      26.781   1.448  53.415  1.00  0.00    -0.304 OA
BRANCH  21  22
HETATM   22  C2  UNL     1      27.839   0.560  53.623  1.00  0.00     0.176 C 
HETATM   23  C1  UNL     1      27.538  -0.820  53.119  1.00  0.00     0.034 C 
ENDBRANCH  21  22
ENDBRANCH  14  21
ENDBRANCH   1  13
TORSDOF 3
ENDMDL
MODEL 8
REMARK VINA RESULT:      -7.3      2.429      5.638
REMARK  3 active torsions:
REMARK  status: ('A' for Active; 'I' for Inactive)
REMARK    1  A    between atoms: C2_2  and  O1_3 
REMARK    2  A    between atoms: O1_3  and  C3_4 
REMARK       I    between atoms: C3_4  and  N1_6 
REMARK       I    between atoms: N1_6  and  C4_7 
REMARK    3  A    between atoms: N1_6  and  C5_10 
REMARK       I    between atoms: C4_7  and  N2_8 
ROOT
HETATM    1  C5  UNL     1      24.895   1.874  53.192  1.00  0.00     0.138 A 
HETATM    2  C6  UNL     1      23.533   1.246  53.377  1.00  0.00     0.070 A 
HETATM    3  C7  UNL     1      22.891   1.426  52.062  1.00  0.00    -0.044 A 
HETATM    4  C8  UNL     1      21.621   1.055  51.605  1.00  0.00     0.008 A 
HETATM    5  C9  UNL     1      21.240   1.344  50.289  1.00  0.00     0.001 A 
HETATM    6  C10 UNL     1      22.104   1.995  49.423  1.00  0.00     0.012 A 
HETATM    7  C11 UNL     1      23.361   2.367  49.857  1.00  0.00    -0.025 A 
HETATM    8  C12 UNL     1      24.319   3.017  49.110  1.00  0.00     0.012 A 
HETATM    9  C13 UNL     1      25.552   3.329  49.693  1.00  0.00     0.002 A 
HETATM   10  C14 UNL     1      25.824   2.992  51.020  1.00  0.00     0.010 A 
HETATM   11  C15 UNL     1      24.858   2.332  51.788  1.00  0.00    -0.023 A 
HETATM   12  C16 UNL     1      23.670   2.058  51.147  1.00  0.00    -0.011 A 
ENDROOT
BRANCH   1  13
HETATM   13  N1  UNL     1      25.948   0.927  53.450  1.00  0.00    -0.236 N 
HETATM   14  C3  UNL     1      25.737  -0.473  53.319  1.00  0.00     0.371 C 
HETATM   15  O2  UNL     1      24.617  -0.927  52.972  1.00  0.00    -0.238 OA
HETATM   16  C4  UNL     1      27.226   1.407  53.845  1.00  0.00     0.325 C 
HETATM   17  N2  UNL     1      27.553   2.760  54.008  1.00  0.00    -0.351 N 
HETATM   18  O3  UNL     1      28.197   0.647  54.089  1.00  0.00    -0.247 OA
HETATM   19  H6  UNL     1      27.583   3.545  54.717  1.00  0.00     0.160 HD
HETATM   20  H7  UNL     1      27.923   3.461  53.319  1.00  0.00     0.160 HD
BRANCH  14  21
HETATM   21  O1  UNL     1      26.767  -1.367  53.574  1.00  0.00    -0.304 OA
BRANCH  21  22
HETATM   22  C2  UNL     1      27.265  -2.263  52.625  1.00  0.00     0.176 C 
HETATM   23  C1  UNL     1      28.650  -2.736  52.953  1.00  0.00     0.034 C 
ENDBRANCH  21  22
ENDBRANCH  14  21
ENDBRANCH   1  13
TORSDOF 3
ENDMDL
MODEL 9
REMARK VINA RESULT:      -7.2      3.049      5.060
REMARK  3 active torsions:
REMARK  status: ('A' for Active; 'I' for Inactive)
REMARK    1  A    between atoms: C2_2  and  O1_3 
REMARK    2  A    between atoms: O1_3  and  C3_4 
REMARK       I    between atoms: C3_4  and  N1_6 
REMARK       I    between atoms: N1_6  and  C4_7 
REMARK    3  A    between atoms: N1_6  and  C5_10 
REMARK       I    between atoms: C4_7  and  N2_8 
ROOT
HETATM    1  C5  UNL     1      22.493   1.674  53.126  1.00  0.00     0.138 A 
HETATM    2  C6  UNL     1      22.713   2.939  52.328  1.00  0.00     0.070 A 
HETATM    3  C7  UNL     1      24.079   2.774  51.796  1.00  0.00    -0.044 A 
HETATM    4  C8  UNL     1      24.851   3.612  50.982  1.00  0.00     0.008 A 
HETATM    5  C9  UNL     1      26.142   3.224  50.605  1.00  0.00     0.001 A 
HETATM    6  C10 UNL     1      26.674   2.016  51.026  1.00  0.00     0.012 A 
HETATM    7  C11 UNL     1      25.926   1.177  51.828  1.00  0.00    -0.025 A 
HETATM    8  C12 UNL     1      26.325  -0.048  52.318  1.00  0.00     0.012 A 
HETATM    9  C13 UNL     1      25.449  -0.786  53.123  1.00  0.00     0.002 A 
HETATM   10  C14 UNL     1      24.180  -0.299  53.436  1.00  0.00     0.010 A 
HETATM   11  C15 UNL     1      23.765   0.945  52.943  1.00  0.00    -0.023 A 
HETATM   12  C16 UNL     1      24.679   1.612  52.159  1.00  0.00    -0.011 A 
ENDROOT
BRANCH   1  13
HETATM   13  N1  UNL     1      21.349   0.945  52.646  1.00  0.00    -0.236 N 
HETATM   14  C3  UNL     1      20.997   0.935  51.267  1.00  0.00     0.371 C 
HETATM   15  O2  UNL     1      21.682   1.569  50.423  1.00  0.00    -0.238 OA
HETATM   16  C4  UNL     1      20.554   0.219  53.573  1.00  0.00     0.325 C 
HETATM   17  N2  UNL     1      20.799   0.154  54.952  1.00  0.00    -0.351 N 
HETATM   18  O3  UNL     1      19.539  -0.442  53.236  1.00  0.00    -0.247 OA
HETATM   19  H6  UNL     1      20.575   0.621  55.875  1.00  0.00     0.160 HD
HETATM   20  H7  UNL     1      21.385  -0.514  55.511  1.00  0.00     0.160 HD
BRANCH  14  21
HETATM   21  O1  UNL     1      19.890   0.226  50.828  1.00  0.00    -0.304 OA
BRANCH  21  22
HETATM   22  C2  UNL     1      18.826   0.806  50.134  1.00  0.00     0.176 C 
HETATM   23  C1  UNL     1      17.537   0.065  50.334  1.00  0.00     0.034 C 
ENDBRANCH  21  22
ENDBRANCH  14  21
ENDBRANCH   1  13
TORSDOF 3
ENDMDL
