MODEL 1
REMARK VINA RESULT:      -9.2      0.000      0.000
REMARK  3 active torsions:
REMARK  status: ('A' for Active; 'I' for Inactive)
REMARK    1  A    between atoms: C5_6  and  C6_7 
REMARK    2  A    between atoms: C6_7  and  O1_8 
REMARK    3  A    between atoms: O1_8  and  C7_9 
ROOT
HETATM    1  C7  UNL     1      23.724   0.122  53.545  1.00  0.00     0.091 A 
HETATM    2  C8  UNL     1      22.702   0.529  52.657  1.00  0.00     0.054 A 
HETATM    3  C9  UNL     1      21.624  -0.167  53.138  1.00  0.00     0.019 A 
HETATM    4  C10 UNL     1      21.256  -1.064  54.137  1.00  0.00     0.044 A 
HETATM    5  C11 UNL     1      22.306  -1.370  54.908  1.00  0.00     0.057 A 
HETATM    6  C12 UNL     1      23.467  -0.773  54.583  1.00  0.00     0.069 A 
HETATM    7 CL1  UNL     1      24.794  -1.236  55.663  1.00  0.00    -0.081 Cl
HETATM    8  N1  UNL     1      19.823  -1.432  54.070  1.00  0.00    -0.362 N 
HETATM    9  C13 UNL     1      18.560  -1.146  53.228  1.00  0.00     0.157 A 
HETATM   10  C14 UNL     1      19.433  -0.431  52.674  1.00  0.00     0.167 A 
HETATM   11  C15 UNL     1      20.549   0.277  52.227  1.00  0.00     0.070 A 
HETATM   12  N2  UNL     1      19.951   1.002  51.249  1.00  0.00    -0.251 NA
HETATM   13  C16 UNL     1      18.516   0.563  51.347  1.00  0.00     0.182 A 
HETATM   14  N3  UNL     1      18.000  -0.396  52.260  1.00  0.00    -0.231 NA
HETATM   15  H8  UNL     1      19.480  -1.981  54.879  1.00  0.00     0.162 HD
ENDROOT
BRANCH   1  16
HETATM   16  O1  UNL     1      24.957   0.687  53.275  1.00  0.00    -0.345 OA
BRANCH  16  17
HETATM   17  C6  UNL     1      25.774   0.237  52.204  1.00  0.00     0.214 C 
BRANCH  17  18
HETATM   18  C5  UNL     1      27.122  -0.026  52.739  1.00  0.00    -0.031 A 
HETATM   19  C4  UNL     1      27.934   1.012  53.142  1.00  0.00     0.009 A 
HETATM   20  C3  UNL     1      29.183   0.682  53.621  1.00  0.00     0.004 A 
HETATM   21  C2  UNL     1      29.725  -0.599  53.745  1.00  0.00     0.042 A 
HETATM   22  C1  UNL     1      28.859  -1.595  53.322  1.00  0.00     0.117 A 
HETATM   23  F1  UNL     1      29.308  -2.872  53.397  1.00  0.00    -0.206 F 
HETATM   24  C17 UNL     1      27.590  -1.302  52.833  1.00  0.00     0.051 A 
ENDBRANCH  17  18
ENDBRANCH  16  17
ENDBRANCH   1  16
TORSDOF 3
ENDMDL
MODEL 2
REMARK VINA RESULT:      -8.9      4.384      8.066
REMARK  3 active torsions:
REMARK  status: ('A' for Active; 'I' for Inactive)
REMARK    1  A    between atoms: C5_6  and  C6_7 
REMARK    2  A    between atoms: C6_7  and  O1_8 
REMARK    3  A    between atoms: O1_8  and  C7_9 
ROOT
HETATM    1  C7  UNL     1      24.588   0.689  52.795  1.00  0.00     0.091 A 
HETATM    2  C8  UNL     1      25.406  -0.463  52.765  1.00  0.00     0.054 A 
HETATM    3  C9  UNL     1      26.632   0.058  53.088  1.00  0.00     0.019 A 
HETATM    4  C10 UNL     1      27.262   1.257  53.408  1.00  0.00     0.044 A 
HETATM    5  C11 UNL     1      26.387   2.268  53.404  1.00  0.00     0.057 A 
HETATM    6  C12 UNL     1      25.115   1.943  53.104  1.00  0.00     0.069 A 
HETATM    7 CL1  UNL     1      24.032   3.346  53.130  1.00  0.00    -0.081 Cl
HETATM    8  N1  UNL     1      28.712   1.087  53.658  1.00  0.00    -0.362 N 
HETATM    9  C13 UNL     1      29.795  -0.015  53.677  1.00  0.00     0.157 A 
HETATM   10  C14 UNL     1      28.751  -0.654  53.388  1.00  0.00     0.167 A 
HETATM   11  C15 UNL     1      27.483  -1.149  53.082  1.00  0.00     0.070 A 
HETATM   12  N2  UNL     1      27.790  -2.470  53.023  1.00  0.00    -0.251 NA
HETATM   13  C16 UNL     1      29.257  -2.478  53.351  1.00  0.00     0.182 A 
HETATM   14  N3  UNL     1      30.056  -1.336  53.626  1.00  0.00    -0.231 NA
HETATM   15  H8  UNL     1      29.186   1.925  54.039  1.00  0.00     0.162 HD
ENDROOT
BRANCH   1  16
HETATM   16  O1  UNL     1      23.262   0.443  52.491  1.00  0.00    -0.345 OA
BRANCH  16  17
HETATM   17  C6  UNL     1      22.379  -0.175  53.417  1.00  0.00     0.214 C 
BRANCH  17  18
HETATM   18  C5  UNL     1      21.027  -0.169  52.829  1.00  0.00    -0.031 A 
HETATM   19  C4  UNL     1      20.800   0.395  51.592  1.00  0.00     0.009 A 
HETATM   20  C3  UNL     1      19.507   0.368  51.118  1.00  0.00     0.004 A 
HETATM   21  C2  UNL     1      18.388  -0.169  51.757  1.00  0.00     0.042 A 
HETATM   22  C1  UNL     1      18.684  -0.717  52.995  1.00  0.00     0.117 A 
HETATM   23  F1  UNL     1      17.652  -1.253  53.693  1.00  0.00    -0.206 F 
HETATM   24  C17 UNL     1      19.978  -0.710  53.507  1.00  0.00     0.051 A 
ENDBRANCH  17  18
ENDBRANCH  16  17
ENDBRANCH   1  16
TORSDOF 3
ENDMDL
MODEL 3
REMARK VINA RESULT:      -8.7      4.314      8.054
REMARK  3 active torsions:
REMARK  status: ('A' for Active; 'I' for Inactive)
REMARK    1  A    between atoms: C5_6  and  C6_7 
REMARK    2  A    between atoms: C6_7  and  O1_8 
REMARK    3  A    between atoms: O1_8  and  C7_9 
ROOT
HETATM    1  C7  UNL     1      23.473   0.529  52.971  1.00  0.00     0.091 A 
HETATM    2  C8  UNL     1      24.652  -0.203  53.244  1.00  0.00     0.054 A 
HETATM    3  C9  UNL     1      25.591   0.794  53.295  1.00  0.00     0.019 A 
HETATM    4  C10 UNL     1      25.732   2.174  53.173  1.00  0.00     0.044 A 
HETATM    5  C11 UNL     1      24.552   2.749  52.916  1.00  0.00     0.057 A 
HETATM    6  C12 UNL     1      23.499   1.916  52.830  1.00  0.00     0.069 A 
HETATM    7 CL1  UNL     1      21.984   2.772  52.493  1.00  0.00    -0.081 Cl
HETATM    8  N1  UNL     1      27.133   2.619  53.356  1.00  0.00    -0.362 N 
HETATM    9  C13 UNL     1      28.537   2.042  53.640  1.00  0.00     0.157 A 
HETATM   10  C14 UNL     1      27.808   1.018  53.644  1.00  0.00     0.167 A 
HETATM   11  C15 UNL     1      26.819   0.034  53.606  1.00  0.00     0.070 A 
HETATM   12  N2  UNL     1      27.584  -1.036  53.942  1.00  0.00    -0.251 NA
HETATM   13  C16 UNL     1      28.939  -0.417  54.146  1.00  0.00     0.182 A 
HETATM   14  N3  UNL     1      29.259   0.958  53.988  1.00  0.00    -0.231 NA
HETATM   15  H8  UNL     1      27.255   3.646  53.417  1.00  0.00     0.162 HD
ENDROOT
BRANCH   1  16
HETATM   16  O1  UNL     1      22.341  -0.256  52.859  1.00  0.00    -0.345 OA
BRANCH  16  17
HETATM   17  C6  UNL     1      21.460  -0.467  53.954  1.00  0.00     0.214 C 
BRANCH  17  18
HETATM   18  C5  UNL     1      20.104  -0.671  53.413  1.00  0.00    -0.031 A 
HETATM   19  C4  UNL     1      19.578   0.202  52.484  1.00  0.00     0.009 A 
HETATM   20  C3  UNL     1      18.301  -0.054  52.036  1.00  0.00     0.004 A 
HETATM   21  C2  UNL     1      17.468  -1.107  52.422  1.00  0.00     0.042 A 
HETATM   22  C1  UNL     1      18.055  -1.944  53.357  1.00  0.00     0.117 A 
HETATM   23  F1  UNL     1      17.313  -2.991  53.797  1.00  0.00    -0.206 F 
HETATM   24  C17 UNL     1      19.344  -1.720  53.832  1.00  0.00     0.051 A 
ENDBRANCH  17  18
ENDBRANCH  16  17
ENDBRANCH   1  16
TORSDOF 3
ENDMDL
MODEL 4
REMARK VINA RESULT:      -8.7      5.629      7.363
REMARK  3 active torsions:
REMARK  status: ('A' for Active; 'I' for Inactive)
REMARK    1  A    between atoms: C5_6  and  C6_7 
REMARK    2  A    between atoms: C6_7  and  O1_8 
REMARK    3  A    between atoms: O1_8  and  C7_9 
ROOT
HETATM    1  C7  UNL     1      25.223   2.787  50.515  1.00  0.00     0.091 A 
HETATM    2  C8  UNL     1      26.452   2.595  51.186  1.00  0.00     0.054 A 
HETATM    3  C9  UNL     1      26.083   1.755  52.204  1.00  0.00     0.019 A 
HETATM    4  C10 UNL     1      24.979   1.092  52.732  1.00  0.00     0.044 A 
HETATM    5  C11 UNL     1      23.882   1.353  52.013  1.00  0.00     0.057 A 
HETATM    6  C12 UNL     1      24.052   2.171  50.958  1.00  0.00     0.069 A 
HETATM    7 CL1  UNL     1      22.546   2.451  50.066  1.00  0.00    -0.081 Cl
HETATM    8  N1  UNL     1      25.317   0.295  53.934  1.00  0.00    -0.362 N 
HETATM    9  C13 UNL     1      26.526  -0.054  54.829  1.00  0.00     0.157 A 
HETATM   10  C14 UNL     1      27.032   0.693  53.953  1.00  0.00     0.167 A 
HETATM   11  C15 UNL     1      27.372   1.532  52.892  1.00  0.00     0.070 A 
HETATM   12  N2  UNL     1      28.712   1.589  53.099  1.00  0.00    -0.251 NA
HETATM   13  C16 UNL     1      28.895   0.698  54.296  1.00  0.00     0.182 A 
HETATM   14  N3  UNL     1      27.862   0.014  54.990  1.00  0.00    -0.231 NA
HETATM   15  H8  UNL     1      24.557  -0.325  54.268  1.00  0.00     0.162 HD
ENDROOT
BRANCH   1  16
HETATM   16  O1  UNL     1      25.309   3.624  49.418  1.00  0.00    -0.345 OA
BRANCH  16  17
HETATM   17  C6  UNL     1      25.158   5.032  49.531  1.00  0.00     0.214 C 
BRANCH  17  18
HETATM   18  C5  UNL     1      26.328   5.667  48.897  1.00  0.00    -0.031 A 
HETATM   19  C4  UNL     1      26.276   6.980  48.480  1.00  0.00     0.009 A 
HETATM   20  C3  UNL     1      27.408   7.496  47.889  1.00  0.00     0.004 A 
HETATM   21  C2  UNL     1      28.615   6.831  47.660  1.00  0.00     0.042 A 
HETATM   22  C1  UNL     1      28.600   5.517  48.101  1.00  0.00     0.117 A 
HETATM   23  F1  UNL     1      29.729   4.792  47.909  1.00  0.00    -0.206 F 
HETATM   24  C17 UNL     1      27.476   4.962  48.704  1.00  0.00     0.051 A 
ENDBRANCH  17  18
ENDBRANCH  16  17
ENDBRANCH   1  16
TORSDOF 3
ENDMDL
MODEL 5
REMARK VINA RESULT:      -8.5      4.443      5.662
REMARK  3 active torsions:
REMARK  status: ('A' for Active; 'I' for Inactive)
REMARK    1  A    between atoms: C5_6  and  C6_7 
REMARK    2  A    between atoms: C6_7  and  O1_8 
REMARK    3  A    between atoms: O1_8  and  C7_9 
ROOT
HETATM    1  C7  UNL     1      26.354   1.689  52.506  1.00  0.00     0.091 A 
HETATM    2  C8  UNL     1      24.956   1.478  52.511  1.00  0.00     0.054 A 
HETATM    3  C9  UNL     1      24.826   0.508  53.471  1.00  0.00     0.019 A 
HETATM    4  C10 UNL     1      25.572  -0.260  54.360  1.00  0.00     0.044 A 
HETATM    5  C11 UNL     1      26.874   0.030  54.260  1.00  0.00     0.057 A 
HETATM    6  C12 UNL     1      27.197   0.973  53.356  1.00  0.00     0.069 A 
HETATM    7 CL1  UNL     1      28.940   1.292  53.302  1.00  0.00    -0.081 Cl
HETATM    8  N1  UNL     1      24.730  -1.180  55.159  1.00  0.00    -0.362 N 
HETATM    9  C13 UNL     1      23.250  -1.588  55.336  1.00  0.00     0.157 A 
HETATM   10  C14 UNL     1      23.191  -0.697  54.452  1.00  0.00     0.167 A 
HETATM   11  C15 UNL     1      23.363   0.305  53.496  1.00  0.00     0.070 A 
HETATM   12  N2  UNL     1      22.057   0.534  53.205  1.00  0.00    -0.251 NA
HETATM   13  C16 UNL     1      21.346  -0.419  54.124  1.00  0.00     0.182 A 
HETATM   14  N3  UNL     1      21.966  -1.319  55.032  1.00  0.00    -0.231 NA
HETATM   15  H8  UNL     1      25.227  -1.662  55.930  1.00  0.00     0.162 HD
ENDROOT
BRANCH   1  16
HETATM   16  O1  UNL     1      26.773   2.642  51.597  1.00  0.00    -0.345 OA
BRANCH  16  17
HETATM   17  C6  UNL     1      26.369   2.613  50.235  1.00  0.00     0.214 C 
BRANCH  17  18
HETATM   18  C5  UNL     1      26.352   4.001  49.736  1.00  0.00    -0.031 A 
HETATM   19  C4  UNL     1      27.347   4.459  48.899  1.00  0.00     0.009 A 
HETATM   20  C3  UNL     1      27.263   5.770  48.485  1.00  0.00     0.004 A 
HETATM   21  C2  UNL     1      26.275   6.698  48.823  1.00  0.00     0.042 A 
HETATM   22  C1  UNL     1      25.309   6.174  49.668  1.00  0.00     0.117 A 
HETATM   23  F1  UNL     1      24.315   7.010  50.057  1.00  0.00    -0.206 F 
HETATM   24  C17 UNL     1      25.358   4.855  50.105  1.00  0.00     0.051 A 
ENDBRANCH  17  18
ENDBRANCH  16  17
ENDBRANCH   1  16
TORSDOF 3
ENDMDL
MODEL 6
REMARK VINA RESULT:      -8.3      1.966      2.907
REMARK  3 active torsions:
REMARK  status: ('A' for Active; 'I' for Inactive)
REMARK    1  A    between atoms: C5_6  and  C6_7 
REMARK    2  A    between atoms: C6_7  and  O1_8 
REMARK    3  A    between atoms: O1_8  and  C7_9 
ROOT
HETATM    1  C7  UNL     1      23.640   0.741  52.774  1.00  0.00     0.091 A 
HETATM    2  C8  UNL     1      22.468   0.114  53.256  1.00  0.00     0.054 A 
HETATM    3  C9  UNL     1      21.553   0.463  52.298  1.00  0.00     0.019 A 
HETATM    4  C10 UNL     1      21.430   1.175  51.108  1.00  0.00     0.044 A 
HETATM    5  C11 UNL     1      22.602   1.719  50.758  1.00  0.00     0.057 A 
HETATM    6  C12 UNL     1      23.631   1.480  51.591  1.00  0.00     0.069 A 
HETATM    7 CL1  UNL     1      25.138   2.235  51.042  1.00  0.00    -0.081 Cl
HETATM    8  N1  UNL     1      20.053   1.139  50.564  1.00  0.00    -0.362 N 
HETATM    9  C13 UNL     1      18.659   0.559  50.893  1.00  0.00     0.157 A 
HETATM   10  C14 UNL     1      19.368   0.138  51.842  1.00  0.00     0.167 A 
HETATM   11  C15 UNL     1      20.334  -0.213  52.786  1.00  0.00     0.070 A 
HETATM   12  N2  UNL     1      19.573  -1.026  53.562  1.00  0.00    -0.251 NA
HETATM   13  C16 UNL     1      18.246  -1.002  52.856  1.00  0.00     0.182 A 
HETATM   14  N3  UNL     1      17.942  -0.267  51.678  1.00  0.00    -0.231 NA
HETATM   15  H8  UNL     1      19.954   1.532  49.611  1.00  0.00     0.162 HD
ENDROOT
BRANCH   1  16
HETATM   16  O1  UNL     1      24.748   0.550  53.579  1.00  0.00    -0.345 OA
BRANCH  16  17
HETATM   17  C6  UNL     1      25.516  -0.645  53.533  1.00  0.00     0.214 C 
BRANCH  17  18
HETATM   18  C5  UNL     1      26.941  -0.271  53.557  1.00  0.00    -0.031 A 
HETATM   19  C4  UNL     1      27.921  -1.219  53.354  1.00  0.00     0.009 A 
HETATM   20  C3  UNL     1      29.229  -0.790  53.402  1.00  0.00     0.004 A 
HETATM   21  C2  UNL     1      29.680   0.511  53.638  1.00  0.00     0.042 A 
HETATM   22  C1  UNL     1      28.646   1.413  53.836  1.00  0.00     0.117 A 
HETATM   23  F1  UNL     1      28.993   2.700  54.082  1.00  0.00    -0.206 F 
HETATM   24  C17 UNL     1      27.313   1.018  53.793  1.00  0.00     0.051 A 
ENDBRANCH  17  18
ENDBRANCH  16  17
ENDBRANCH   1  16
TORSDOF 3
ENDMDL
MODEL 7
REMARK VINA RESULT:      -8.3      4.380      7.025
REMARK  3 active torsions:
REMARK  status: ('A' for Active; 'I' for Inactive)
REMARK    1  A    between atoms: C5_6  and  C6_7 
REMARK    2  A    between atoms: C6_7  and  O1_8 
REMARK    3  A    between atoms: O1_8  and  C7_9 
ROOT
HETATM    1  C7  UNL     1      23.181   0.324  53.214  1.00  0.00     0.091 A 
HETATM    2  C8  UNL     1      24.297   1.129  52.888  1.00  0.00     0.054 A 
HETATM    3  C9  UNL     1      25.277   0.574  53.669  1.00  0.00     0.019 A 
HETATM    4  C10 UNL     1      25.495  -0.441  54.597  1.00  0.00     0.044 A 
HETATM    5  C11 UNL     1      24.368  -1.127  54.821  1.00  0.00     0.057 A 
HETATM    6  C12 UNL     1      23.286  -0.721  54.131  1.00  0.00     0.069 A 
HETATM    7 CL1  UNL     1      21.849  -1.693  54.491  1.00  0.00    -0.081 Cl
HETATM    8  N1  UNL     1      26.895  -0.478  55.079  1.00  0.00    -0.362 N 
HETATM    9  C13 UNL     1      28.237   0.263  54.892  1.00  0.00     0.157 A 
HETATM   10  C14 UNL     1      27.469   0.874  54.106  1.00  0.00     0.167 A 
HETATM   11  C15 UNL     1      26.450   1.397  53.310  1.00  0.00     0.070 A 
HETATM   12  N2  UNL     1      27.177   2.321  52.631  1.00  0.00    -0.251 NA
HETATM   13  C16 UNL     1      28.560   2.118  53.184  1.00  0.00     0.182 A 
HETATM   14  N3  UNL     1      28.927   1.179  54.185  1.00  0.00    -0.231 NA
HETATM   15  H8  UNL     1      27.131  -1.305  55.656  1.00  0.00     0.162 HD
ENDROOT
BRANCH   1  16
HETATM   16  O1  UNL     1      22.021   0.681  52.551  1.00  0.00    -0.345 OA
BRANCH  16  17
HETATM   17  C6  UNL     1      21.786   2.009  52.106  1.00  0.00     0.214 C 
BRANCH  17  18
HETATM   18  C5  UNL     1      21.958   2.035  50.642  1.00  0.00    -0.031 A 
HETATM   19  C4  UNL     1      21.470   1.011  49.858  1.00  0.00     0.009 A 
HETATM   20  C3  UNL     1      21.680   1.106  48.500  1.00  0.00     0.004 A 
HETATM   21  C2  UNL     1      22.340   2.133  47.820  1.00  0.00     0.042 A 
HETATM   22  C1  UNL     1      22.805   3.127  48.665  1.00  0.00     0.117 A 
HETATM   23  F1  UNL     1      23.469   4.161  48.091  1.00  0.00    -0.206 F 
HETATM   24  C17 UNL     1      22.611   3.068  50.042  1.00  0.00     0.051 A 
ENDBRANCH  17  18
ENDBRANCH  16  17
ENDBRANCH   1  16
TORSDOF 3
ENDMDL
MODEL 8
REMARK VINA RESULT:      -8.2      4.145      7.744
REMARK  3 active torsions:
REMARK  status: ('A' for Active; 'I' for Inactive)
REMARK    1  A    between atoms: C5_6  and  C6_7 
REMARK    2  A    between atoms: C6_7  and  O1_8 
REMARK    3  A    between atoms: O1_8  and  C7_9 
ROOT
HETATM    1  C7  UNL     1      22.928   0.414  53.343  1.00  0.00     0.091 A 
HETATM    2  C8  UNL     1      24.043   1.213  53.002  1.00  0.00     0.054 A 
HETATM    3  C9  UNL     1      25.047   0.602  53.706  1.00  0.00     0.019 A 
HETATM    4  C10 UNL     1      25.289  -0.462  54.571  1.00  0.00     0.044 A 
HETATM    5  C11 UNL     1      24.161  -1.138  54.816  1.00  0.00     0.057 A 
HETATM    6  C12 UNL     1      23.055  -0.678  54.201  1.00  0.00     0.069 A 
HETATM    7 CL1  UNL     1      21.617  -1.641  54.583  1.00  0.00    -0.081 Cl
HETATM    8  N1  UNL     1      26.710  -0.549  54.980  1.00  0.00    -0.362 N 
HETATM    9  C13 UNL     1      28.057   0.176  54.764  1.00  0.00     0.157 A 
HETATM   10  C14 UNL     1      27.264   0.840  54.049  1.00  0.00     0.167 A 
HETATM   11  C15 UNL     1      26.218   1.421  53.331  1.00  0.00     0.070 A 
HETATM   12  N2  UNL     1      26.930   2.364  52.663  1.00  0.00    -0.251 NA
HETATM   13  C16 UNL     1      28.334   2.109  53.137  1.00  0.00     0.182 A 
HETATM   14  N3  UNL     1      28.730   1.113  54.070  1.00  0.00    -0.231 NA
HETATM   15  H8  UNL     1      26.956  -1.408  55.504  1.00  0.00     0.162 HD
ENDROOT
BRANCH   1  16
HETATM   16  O1  UNL     1      21.745   0.824  52.757  1.00  0.00    -0.345 OA
BRANCH  16  17
HETATM   17  C6  UNL     1      21.419   0.502  51.412  1.00  0.00     0.214 C 
BRANCH  17  18
HETATM   18  C5  UNL     1      19.959   0.312  51.331  1.00  0.00    -0.031 A 
HETATM   19  C4  UNL     1      19.257   0.725  50.219  1.00  0.00     0.009 A 
HETATM   20  C3  UNL     1      17.895   0.520  50.225  1.00  0.00     0.004 A 
HETATM   21  C2  UNL     1      17.136  -0.063  51.243  1.00  0.00     0.042 A 
HETATM   22  C1  UNL     1      17.902  -0.453  52.331  1.00  0.00     0.117 A 
HETATM   23  F1  UNL     1      17.244  -1.020  53.373  1.00  0.00    -0.206 F 
HETATM   24  C17 UNL     1      19.280  -0.264  52.361  1.00  0.00     0.051 A 
ENDBRANCH  17  18
ENDBRANCH  16  17
ENDBRANCH   1  16
TORSDOF 3
ENDMDL
MODEL 9
REMARK VINA RESULT:      -8.1      5.341      7.309
REMARK  3 active torsions:
REMARK  status: ('A' for Active; 'I' for Inactive)
REMARK    1  A    between atoms: C5_6  and  C6_7 
REMARK    2  A    between atoms: C6_7  and  O1_8 
REMARK    3  A    between atoms: O1_8  and  C7_9 
ROOT
HETATM    1  C7  UNL     1      24.002   2.019  51.950  1.00  0.00     0.091 A 
HETATM    2  C8  UNL     1      25.338   2.401  52.214  1.00  0.00     0.054 A 
HETATM    3  C9  UNL     1      25.752   1.399  53.052  1.00  0.00     0.019 A 
HETATM    4  C10 UNL     1      25.309   0.231  53.666  1.00  0.00     0.044 A 
HETATM    5  C11 UNL     1      24.036  -0.022  53.340  1.00  0.00     0.057 A 
HETATM    6  C12 UNL     1      23.455   0.867  52.512  1.00  0.00     0.069 A 
HETATM    7 CL1  UNL     1      21.776   0.443  52.134  1.00  0.00    -0.081 Cl
HETATM    8  N1  UNL     1      26.353  -0.401  54.505  1.00  0.00    -0.362 N 
HETATM    9  C13 UNL     1      27.818  -0.184  54.944  1.00  0.00     0.157 A 
HETATM   10  C14 UNL     1      27.608   0.792  54.181  1.00  0.00     0.167 A 
HETATM   11  C15 UNL     1      27.155   1.783  53.309  1.00  0.00     0.070 A 
HETATM   12  N2  UNL     1      28.313   2.478  53.172  1.00  0.00    -0.251 NA
HETATM   13  C16 UNL     1      29.269   1.689  54.024  1.00  0.00     0.182 A 
HETATM   14  N3  UNL     1      28.952   0.522  54.770  1.00  0.00    -0.231 NA
HETATM   15  H8  UNL     1      26.110  -1.343  54.860  1.00  0.00     0.162 HD
ENDROOT
BRANCH   1  16
HETATM   16  O1  UNL     1      23.329   2.886  51.109  1.00  0.00    -0.345 OA
BRANCH  16  17
HETATM   17  C6  UNL     1      23.798   3.186  49.803  1.00  0.00     0.214 C 
BRANCH  17  18
HETATM   18  C5  UNL     1      24.443   4.511  49.844  1.00  0.00    -0.031 A 
HETATM   19  C4  UNL     1      25.628   4.738  49.177  1.00  0.00     0.009 A 
HETATM   20  C3  UNL     1      26.171   6.000  49.274  1.00  0.00     0.004 A 
HETATM   21  C2  UNL     1      25.652   7.087  49.981  1.00  0.00     0.042 A 
HETATM   22  C1  UNL     1      24.463   6.792  50.629  1.00  0.00     0.117 A 
HETATM   23  F1  UNL     1      23.892   7.788  51.350  1.00  0.00    -0.206 F 
HETATM   24  C17 UNL     1      23.883   5.529  50.553  1.00  0.00     0.051 A 
ENDBRANCH  17  18
ENDBRANCH  16  17
ENDBRANCH   1  16
TORSDOF 3
ENDMDL
