MODEL 1
REMARK VINA RESULT:      -7.8      0.000      0.000
REMARK  7 active torsions:
REMARK  status: ('A' for Active; 'I' for Inactive)
REMARK    1  A    between atoms: C2_2  and  C3_3 
REMARK    2  A    between atoms: C3_3  and  C4_4 
REMARK    3  A    between atoms: C4_4  and  C5_5 
REMARK    4  A    between atoms: C5_5  and  C6_6 
REMARK    5  A    between atoms: C6_6  and  C7_7 
REMARK    6  A    between atoms: C7_7  and  O1_8 
REMARK    7  A    between atoms: O1_8  and  C8_9 
ROOT
HETATM    1  C8  UNL     1      23.865   1.680  52.342  1.00  0.00     0.088 A 
HETATM    2  C9  UNL     1      22.859   1.698  51.257  1.00  0.00     0.040 A 
HETATM    3  C10 UNL     1      22.070   2.778  50.699  1.00  0.00    -0.015 A 
HETATM    4  C11 UNL     1      22.198   4.122  51.188  1.00  0.00    -0.016 A 
HETATM    5  C12 UNL     1      23.205   4.091  52.233  1.00  0.00     0.029 A 
HETATM    6  C13 UNL     1      24.101   3.165  52.931  1.00  0.00     0.031 A 
HETATM    7  N1  UNL     1      23.531   2.501  52.165  1.00  0.00     0.000 N 
HETATM    8  C14 UNL     1      25.007   2.881  52.317  1.00  0.00     0.070 A 
HETATM    9  C15 UNL     1      25.751   2.234  51.122  1.00  0.00     0.020 C 
HETATM   10  C16 UNL     1      26.271   3.128  50.254  1.00  0.00     0.134 C 
HETATM   11  F1  UNL     1      26.938   2.452  49.243  1.00  0.00    -0.205 F 
HETATM   12  C17 UNL     1      26.240   4.539  49.758  1.00  0.00     0.070 C 
HETATM   13 CL1  UNL     1      27.497   4.929  48.534  1.00  0.00    -0.081 Cl
HETATM   14  C18 UNL     1      25.314   5.383  50.280  1.00  0.00     0.029 C 
HETATM   15  C19 UNL     1      24.309   6.378  50.820  1.00  0.00     0.298 C 
HETATM   16  N2  UNL     1      24.175   6.399  52.223  1.00  0.00     0.087 N 
HETATM   17  C20 UNL     1      23.337   5.407  52.811  1.00  0.00     0.285 C 
HETATM   18  H24 UNL     1      25.154   6.395  52.628  1.00  0.00     0.316 HD
ENDROOT
BRANCH   1  19
HETATM   19  O1  UNL     1      24.330   0.250  52.538  1.00  0.00    -0.378 OA
BRANCH  19  20
HETATM   20  C7  UNL     1      24.245  -0.400  53.773  1.00  0.00     0.169 C 
BRANCH  20  21
HETATM   21  C6  UNL     1      25.553  -0.807  54.380  1.00  0.00     0.026 C 
BRANCH  21  22
HETATM   22  C5  UNL     1      26.415   0.260  54.899  1.00  0.00     0.002 C 
BRANCH  22  23
HETATM   23  C4  UNL     1      27.559   0.791  54.144  1.00  0.00     0.000 C 
BRANCH  23  24
HETATM   24  C3  UNL     1      28.954   0.513  54.543  1.00  0.00    -0.000 C 
BRANCH  24  25
HETATM   25  C2  UNL     1      29.847  -0.150  53.556  1.00  0.00    -0.005 C 
HETATM   26  C1  UNL     1      29.310  -1.598  53.387  1.00  0.00     0.005 C 
ENDBRANCH  24  25
ENDBRANCH  23  24
ENDBRANCH  22  23
ENDBRANCH  21  22
ENDBRANCH  20  21
ENDBRANCH  19  20
ENDBRANCH   1  19
TORSDOF 7
ENDMDL
MODEL 2
REMARK VINA RESULT:      -7.3      3.494      4.928
REMARK  7 active torsions:
REMARK  status: ('A' for Active; 'I' for Inactive)
REMARK    1  A    between atoms: C2_2  and  C3_3 
REMARK    2  A    between atoms: C3_3  and  C4_4 
REMARK    3  A    between atoms: C4_4  and  C5_5 
REMARK    4  A    between atoms: C5_5  and  C6_6 
REMARK    5  A    between atoms: C6_6  and  C7_7 
REMARK    6  A    between atoms: C7_7  and  O1_8 
REMARK    7  A    between atoms: O1_8  and  C8_9 
ROOT
HETATM    1  C8  UNL     1      23.755   2.292  52.199  1.00  0.00     0.088 A 
HETATM    2  C9  UNL     1      22.982   3.491  52.590  1.00  0.00     0.040 A 
HETATM    3  C10 UNL     1      21.882   4.176  51.940  1.00  0.00    -0.015 A 
HETATM    4  C11 UNL     1      21.345   3.704  50.694  1.00  0.00    -0.016 A 
HETATM    5  C12 UNL     1      22.098   2.515  50.338  1.00  0.00     0.029 A 
HETATM    6  C13 UNL     1      23.194   1.669  50.819  1.00  0.00     0.031 A 
HETATM    7  N1  UNL     1      23.093   2.503  51.624  1.00  0.00     0.000 N 
HETATM    8  C14 UNL     1      22.886   0.986  51.664  1.00  0.00     0.070 A 
HETATM    9  C15 UNL     1      22.393   0.650  53.095  1.00  0.00     0.020 C 
HETATM   10  C16 UNL     1      21.129   0.181  53.140  1.00  0.00     0.134 C 
HETATM   11  F1  UNL     1      20.796  -0.117  54.454  1.00  0.00    -0.205 F 
HETATM   12  C17 UNL     1      19.820   0.066  52.423  1.00  0.00     0.070 C 
HETATM   13 CL1  UNL     1      18.593  -0.943  53.264  1.00  0.00    -0.081 Cl
HETATM   14  C18 UNL     1      19.689   0.688  51.224  1.00  0.00     0.029 C 
HETATM   15  C19 UNL     1      19.473   1.355  49.883  1.00  0.00     0.298 C 
HETATM   16  N2  UNL     1      20.510   1.173  48.945  1.00  0.00     0.087 N 
HETATM   17  C20 UNL     1      21.647   2.026  49.058  1.00  0.00     0.285 C 
HETATM   18  H24 UNL     1      20.770   0.146  48.966  1.00  0.00     0.316 HD
ENDROOT
BRANCH   1  19
HETATM   19  O1  UNL     1      24.834   2.059  53.241  1.00  0.00    -0.378 OA
BRANCH  19  20
HETATM   20  C7  UNL     1      26.195   2.168  52.944  1.00  0.00     0.169 C 
BRANCH  20  21
HETATM   21  C6  UNL     1      26.688   1.286  51.838  1.00  0.00     0.026 C 
BRANCH  21  22
HETATM   22  C5  UNL     1      26.487  -0.159  51.989  1.00  0.00     0.002 C 
BRANCH  22  23
HETATM   23  C4  UNL     1      27.046  -0.923  53.113  1.00  0.00     0.000 C 
BRANCH  23  24
HETATM   24  C3  UNL     1      28.469  -1.321  53.157  1.00  0.00    -0.000 C 
BRANCH  24  25
HETATM   25  C2  UNL     1      29.459  -0.335  53.662  1.00  0.00    -0.005 C 
HETATM   26  C1  UNL     1      28.791   0.370  54.875  1.00  0.00     0.005 C 
ENDBRANCH  24  25
ENDBRANCH  23  24
ENDBRANCH  22  23
ENDBRANCH  21  22
ENDBRANCH  20  21
ENDBRANCH  19  20
ENDBRANCH   1  19
TORSDOF 7
ENDMDL
MODEL 3
REMARK VINA RESULT:      -7.3      2.511      4.968
REMARK  7 active torsions:
REMARK  status: ('A' for Active; 'I' for Inactive)
REMARK    1  A    between atoms: C2_2  and  C3_3 
REMARK    2  A    between atoms: C3_3  and  C4_4 
REMARK    3  A    between atoms: C4_4  and  C5_5 
REMARK    4  A    between atoms: C5_5  and  C6_6 
REMARK    5  A    between atoms: C6_6  and  C7_7 
REMARK    6  A    between atoms: C7_7  and  O1_8 
REMARK    7  A    between atoms: O1_8  and  C8_9 
ROOT
HETATM    1  C8  UNL     1      22.182   2.984  50.900  1.00  0.00     0.088 A 
HETATM    2  C9  UNL     1      22.410   3.957  51.990  1.00  0.00     0.040 A 
HETATM    3  C10 UNL     1      23.370   3.972  53.076  1.00  0.00    -0.015 A 
HETATM    4  C11 UNL     1      24.335   2.920  53.231  1.00  0.00    -0.016 A 
HETATM    5  C12 UNL     1      24.113   1.987  52.140  1.00  0.00     0.029 A 
HETATM    6  C13 UNL     1      23.251   1.775  50.974  1.00  0.00     0.031 A 
HETATM    7  N1  UNL     1      22.872   2.771  51.442  1.00  0.00     0.000 N 
HETATM    8  C14 UNL     1      23.524   2.435  50.098  1.00  0.00     0.070 A 
HETATM    9  C15 UNL     1      23.704   3.780  49.351  1.00  0.00     0.020 C 
HETATM   10  C16 UNL     1      24.993   4.133  49.163  1.00  0.00     0.134 C 
HETATM   11  F1  UNL     1      25.045   5.330  48.463  1.00  0.00    -0.205 F 
HETATM   12  C17 UNL     1      26.411   3.928  49.594  1.00  0.00     0.070 C 
HETATM   13 CL1  UNL     1      27.627   4.815  48.610  1.00  0.00    -0.081 Cl
HETATM   14  C18 UNL     1      26.652   3.094  50.637  1.00  0.00     0.029 C 
HETATM   15  C19 UNL     1      26.991   2.176  51.792  1.00  0.00     0.298 C 
HETATM   16  N2  UNL     1      26.348   0.921  51.775  1.00  0.00     0.087 N 
HETATM   17  C20 UNL     1      25.014   0.868  52.275  1.00  0.00     0.285 C 
HETATM   18  H24 UNL     1      26.427   0.546  50.787  1.00  0.00     0.316 HD
ENDROOT
BRANCH   1  19
HETATM   19  O1  UNL     1      20.997   3.456  50.079  1.00  0.00    -0.378 OA
BRANCH  19  20
HETATM   20  C7  UNL     1      19.757   2.812  50.117  1.00  0.00     0.169 C 
BRANCH  20  21
HETATM   21  C6  UNL     1      19.802   1.317  50.017  1.00  0.00     0.026 C 
BRANCH  21  22
HETATM   22  C5  UNL     1      19.370   0.551  51.190  1.00  0.00     0.002 C 
BRANCH  22  23
HETATM   23  C4  UNL     1      20.312   0.063  52.208  1.00  0.00     0.000 C 
BRANCH  23  24
HETATM   24  C3  UNL     1      20.575   0.815  53.453  1.00  0.00    -0.000 C 
BRANCH  24  25
HETATM   25  C2  UNL     1      21.157   0.082  54.607  1.00  0.00    -0.005 C 
HETATM   26  C1  UNL     1      22.228  -0.877  54.018  1.00  0.00     0.005 C 
ENDBRANCH  24  25
ENDBRANCH  23  24
ENDBRANCH  22  23
ENDBRANCH  21  22
ENDBRANCH  20  21
ENDBRANCH  19  20
ENDBRANCH   1  19
TORSDOF 7
ENDMDL
MODEL 4
REMARK VINA RESULT:      -7.2      0.954      1.096
REMARK  7 active torsions:
REMARK  status: ('A' for Active; 'I' for Inactive)
REMARK    1  A    between atoms: C2_2  and  C3_3 
REMARK    2  A    between atoms: C3_3  and  C4_4 
REMARK    3  A    between atoms: C4_4  and  C5_5 
REMARK    4  A    between atoms: C5_5  and  C6_6 
REMARK    5  A    between atoms: C6_6  and  C7_7 
REMARK    6  A    between atoms: C7_7  and  O1_8 
REMARK    7  A    between atoms: O1_8  and  C8_9 
ROOT
HETATM    1  C8  UNL     1      23.387   1.873  51.739  1.00  0.00     0.088 A 
HETATM    2  C9  UNL     1      22.659   1.689  50.464  1.00  0.00     0.040 A 
HETATM    3  C10 UNL     1      21.889   2.614  49.658  1.00  0.00    -0.015 A 
HETATM    4  C11 UNL     1      21.734   3.988  50.047  1.00  0.00    -0.016 A 
HETATM    5  C12 UNL     1      22.473   4.157  51.284  1.00  0.00     0.029 A 
HETATM    6  C13 UNL     1      23.296   3.406  52.237  1.00  0.00     0.031 A 
HETATM    7  N1  UNL     1      23.002   2.627  51.425  1.00  0.00     0.000 N 
HETATM    8  C14 UNL     1      24.346   3.219  51.862  1.00  0.00     0.070 A 
HETATM    9  C15 UNL     1      25.416   2.619  50.916  1.00  0.00     0.020 C 
HETATM   10  C16 UNL     1      26.003   3.528  50.110  1.00  0.00     0.134 C 
HETATM   11  F1  UNL     1      26.962   2.898  49.329  1.00  0.00    -0.205 F 
HETATM   12  C17 UNL     1      25.910   4.891  49.500  1.00  0.00     0.070 C 
HETATM   13 CL1  UNL     1      27.354   5.386  48.550  1.00  0.00    -0.081 Cl
HETATM   14  C18 UNL     1      24.792   5.624  49.735  1.00  0.00     0.029 C 
HETATM   15  C19 UNL     1      23.574   6.495  49.956  1.00  0.00     0.298 C 
HETATM   16  N2  UNL     1      23.123   6.574  51.290  1.00  0.00     0.087 N 
HETATM   17  C20 UNL     1      22.304   5.508  51.764  1.00  0.00     0.285 C 
HETATM   18  H24 UNL     1      23.978   6.731  51.897  1.00  0.00     0.316 HD
ENDROOT
BRANCH   1  19
HETATM   19  O1  UNL     1      23.970   0.535  52.153  1.00  0.00    -0.378 OA
BRANCH  19  20
HETATM   20  C7  UNL     1      23.874   0.050  53.460  1.00  0.00     0.169 C 
BRANCH  20  21
HETATM   21  C6  UNL     1      25.129  -0.544  54.024  1.00  0.00     0.026 C 
BRANCH  21  22
HETATM   22  C5  UNL     1      26.136  -1.019  53.070  1.00  0.00     0.002 C 
BRANCH  22  23
HETATM   23  C4  UNL     1      27.153  -0.133  52.485  1.00  0.00     0.000 C 
BRANCH  23  24
HETATM   24  C3  UNL     1      28.146   0.575  53.320  1.00  0.00    -0.000 C 
BRANCH  24  25
HETATM   25  C2  UNL     1      28.863  -0.200  54.367  1.00  0.00    -0.005 C 
HETATM   26  C1  UNL     1      29.879  -1.105  53.618  1.00  0.00     0.005 C 
ENDBRANCH  24  25
ENDBRANCH  23  24
ENDBRANCH  22  23
ENDBRANCH  21  22
ENDBRANCH  20  21
ENDBRANCH  19  20
ENDBRANCH   1  19
TORSDOF 7
ENDMDL
MODEL 5
REMARK VINA RESULT:      -6.7      3.508      6.224
REMARK  7 active torsions:
REMARK  status: ('A' for Active; 'I' for Inactive)
REMARK    1  A    between atoms: C2_2  and  C3_3 
REMARK    2  A    between atoms: C3_3  and  C4_4 
REMARK    3  A    between atoms: C4_4  and  C5_5 
REMARK    4  A    between atoms: C5_5  and  C6_6 
REMARK    5  A    between atoms: C6_6  and  C7_7 
REMARK    6  A    between atoms: C7_7  and  O1_8 
REMARK    7  A    between atoms: O1_8  and  C8_9 
ROOT
HETATM    1  C8  UNL     1      24.358   3.050  50.984  1.00  0.00     0.088 A 
HETATM    2  C9  UNL     1      24.079   4.043  52.045  1.00  0.00     0.040 A 
HETATM    3  C10 UNL     1      22.833   4.498  52.628  1.00  0.00    -0.015 A 
HETATM    4  C11 UNL     1      21.571   3.964  52.197  1.00  0.00    -0.016 A 
HETATM    5  C12 UNL     1      21.865   2.975  51.175  1.00  0.00     0.029 A 
HETATM    6  C13 UNL     1      22.991   2.368  50.461  1.00  0.00     0.031 A 
HETATM    7  N1  UNL     1      23.482   3.133  51.186  1.00  0.00     0.000 N 
HETATM    8  C14 UNL     1      23.549   1.607  51.083  1.00  0.00     0.070 A 
HETATM    9  C15 UNL     1      24.424   1.127  52.268  1.00  0.00     0.020 C 
HETATM   10  C16 UNL     1      23.752   0.397  53.183  1.00  0.00     0.134 C 
HETATM   11  F1  UNL     1      24.627  -0.007  54.181  1.00  0.00    -0.205 F 
HETATM   12  C17 UNL     1      22.411   0.029  53.736  1.00  0.00     0.070 C 
HETATM   13 CL1  UNL     1      22.449  -1.246  55.003  1.00  0.00    -0.081 Cl
HETATM   14  C18 UNL     1      21.316   0.647  53.227  1.00  0.00     0.029 C 
HETATM   15  C19 UNL     1      20.052   1.296  52.704  1.00  0.00     0.298 C 
HETATM   16  N2  UNL     1      19.947   1.371  51.300  1.00  0.00     0.087 N 
HETATM   17  C20 UNL     1      20.628   2.443  50.653  1.00  0.00     0.285 C 
HETATM   18  H24 UNL     1      20.227   0.423  50.919  1.00  0.00     0.316 HD
ENDROOT
BRANCH   1  19
HETATM   19  O1  UNL     1      25.855   3.020  50.741  1.00  0.00    -0.378 OA
BRANCH  19  20
HETATM   20  C7  UNL     1      26.411   3.230  49.476  1.00  0.00     0.169 C 
BRANCH  20  21
HETATM   21  C6  UNL     1      27.090   4.552  49.280  1.00  0.00     0.026 C 
BRANCH  21  22
HETATM   22  C5  UNL     1      26.237   5.740  49.186  1.00  0.00     0.002 C 
BRANCH  22  23
HETATM   23  C4  UNL     1      24.893   5.705  48.592  1.00  0.00     0.000 C 
BRANCH  23  24
HETATM   24  C3  UNL     1      23.722   6.295  49.273  1.00  0.00    -0.000 C 
BRANCH  24  25
HETATM   25  C2  UNL     1      22.366   5.881  48.827  1.00  0.00    -0.005 C 
HETATM   26  C1  UNL     1      22.578   4.729  47.805  1.00  0.00     0.005 C 
ENDBRANCH  24  25
ENDBRANCH  23  24
ENDBRANCH  22  23
ENDBRANCH  21  22
ENDBRANCH  20  21
ENDBRANCH  19  20
ENDBRANCH   1  19
TORSDOF 7
ENDMDL
MODEL 6
REMARK VINA RESULT:      -6.7      2.032      2.803
REMARK  7 active torsions:
REMARK  status: ('A' for Active; 'I' for Inactive)
REMARK    1  A    between atoms: C2_2  and  C3_3 
REMARK    2  A    between atoms: C3_3  and  C4_4 
REMARK    3  A    between atoms: C4_4  and  C5_5 
REMARK    4  A    between atoms: C5_5  and  C6_6 
REMARK    5  A    between atoms: C6_6  and  C7_7 
REMARK    6  A    between atoms: C7_7  and  O1_8 
REMARK    7  A    between atoms: O1_8  and  C8_9 
ROOT
HETATM    1  C8  UNL     1      23.865   3.788  50.163  1.00  0.00     0.088 A 
HETATM    2  C9  UNL     1      23.268   3.988  48.825  1.00  0.00     0.040 A 
HETATM    3  C10 UNL     1      22.836   5.189  48.138  1.00  0.00    -0.015 A 
HETATM    4  C11 UNL     1      22.963   6.482  48.750  1.00  0.00    -0.016 A 
HETATM    5  C12 UNL     1      23.573   6.270  50.050  1.00  0.00     0.029 A 
HETATM    6  C13 UNL     1      24.079   5.201  50.915  1.00  0.00     0.031 A 
HETATM    7  N1  UNL     1      23.708   4.653  49.959  1.00  0.00     0.000 N 
HETATM    8  C14 UNL     1      25.092   4.816  50.593  1.00  0.00     0.070 A 
HETATM    9  C15 UNL     1      26.094   4.117  49.640  1.00  0.00     0.020 C 
HETATM   10  C16 UNL     1      26.968   4.961  49.053  1.00  0.00     0.134 C 
HETATM   11  F1  UNL     1      27.836   4.237  48.248  1.00  0.00    -0.205 F 
HETATM   12  C17 UNL     1      27.269   6.380  48.687  1.00  0.00     0.070 C 
HETATM   13 CL1  UNL     1      28.889   6.636  47.950  1.00  0.00    -0.081 Cl
HETATM   14  C18 UNL     1      26.335   7.326  48.961  1.00  0.00     0.029 C 
HETATM   15  C19 UNL     1      25.339   8.431  49.240  1.00  0.00     0.298 C 
HETATM   16  N2  UNL     1      24.767   8.417  50.529  1.00  0.00     0.087 N 
HETATM   17  C20 UNL     1      23.671   7.531  50.745  1.00  0.00     0.285 C 
HETATM   18  H24 UNL     1      25.558   8.260  51.217  1.00  0.00     0.316 HD
ENDROOT
BRANCH   1  19
HETATM   19  O1  UNL     1      24.066   2.300  50.379  1.00  0.00    -0.378 OA
BRANCH  19  20
HETATM   20  C7  UNL     1      23.536   1.626  51.483  1.00  0.00     0.169 C 
BRANCH  20  21
HETATM   21  C6  UNL     1      24.245   1.859  52.783  1.00  0.00     0.026 C 
BRANCH  21  22
HETATM   22  C5  UNL     1      25.703   2.003  52.738  1.00  0.00     0.002 C 
BRANCH  22  23
HETATM   23  C4  UNL     1      26.586   0.953  52.209  1.00  0.00     0.000 C 
BRANCH  23  24
HETATM   24  C3  UNL     1      27.768   0.476  52.958  1.00  0.00    -0.000 C 
BRANCH  24  25
HETATM   25  C2  UNL     1      27.936  -0.989  53.146  1.00  0.00    -0.005 C 
HETATM   26  C1  UNL     1      26.668  -1.653  52.542  1.00  0.00     0.005 C 
ENDBRANCH  24  25
ENDBRANCH  23  24
ENDBRANCH  22  23
ENDBRANCH  21  22
ENDBRANCH  20  21
ENDBRANCH  19  20
ENDBRANCH   1  19
TORSDOF 7
ENDMDL
MODEL 7
REMARK VINA RESULT:      -6.6      3.150      6.264
REMARK  7 active torsions:
REMARK  status: ('A' for Active; 'I' for Inactive)
REMARK    1  A    between atoms: C2_2  and  C3_3 
REMARK    2  A    between atoms: C3_3  and  C4_4 
REMARK    3  A    between atoms: C4_4  and  C5_5 
REMARK    4  A    between atoms: C5_5  and  C6_6 
REMARK    5  A    between atoms: C6_6  and  C7_7 
REMARK    6  A    between atoms: C7_7  and  O1_8 
REMARK    7  A    between atoms: O1_8  and  C8_9 
ROOT
HETATM    1  C8  UNL     1      24.419   3.469  51.773  1.00  0.00     0.088 A 
HETATM    2  C9  UNL     1      25.044   2.671  50.696  1.00  0.00     0.040 A 
HETATM    3  C10 UNL     1      26.087   1.666  50.729  1.00  0.00    -0.015 A 
HETATM    4  C11 UNL     1      26.702   1.274  51.966  1.00  0.00    -0.016 A 
HETATM    5  C12 UNL     1      26.061   2.046  53.014  1.00  0.00     0.029 A 
HETATM    6  C13 UNL     1      25.027   3.066  53.214  1.00  0.00     0.031 A 
HETATM    7  N1  UNL     1      25.039   2.882  52.066  1.00  0.00     0.000 N 
HETATM    8  C14 UNL     1      23.978   2.650  53.146  1.00  0.00     0.070 A 
HETATM    9  C15 UNL     1      22.771   1.987  52.438  1.00  0.00     0.020 C 
HETATM   10  C16 UNL     1      22.533   0.720  52.835  1.00  0.00     0.134 C 
HETATM   11  F1  UNL     1      21.419   0.230  52.168  1.00  0.00    -0.205 F 
HETATM   12  C17 UNL     1      23.090  -0.496  53.506  1.00  0.00     0.070 C 
HETATM   13 CL1  UNL     1      21.906  -1.829  53.742  1.00  0.00    -0.081 Cl
HETATM   14  C18 UNL     1      24.390  -0.476  53.894  1.00  0.00     0.029 C 
HETATM   15  C19 UNL     1      25.832  -0.522  54.353  1.00  0.00     0.298 C 
HETATM   16  N2  UNL     1      26.278   0.616  55.056  1.00  0.00     0.087 N 
HETATM   17  C20 UNL     1      26.680   1.743  54.282  1.00  0.00     0.285 C 
HETATM   18  H24 UNL     1      25.526   0.856  55.764  1.00  0.00     0.316 HD
ENDROOT
BRANCH   1  19
HETATM   19  O1  UNL     1      23.411   4.413  51.145  1.00  0.00    -0.378 OA
BRANCH  19  20
HETATM   20  C7  UNL     1      23.642   5.787  51.036  1.00  0.00     0.169 C 
BRANCH  20  21
HETATM   21  C6  UNL     1      23.494   6.360  49.659  1.00  0.00     0.026 C 
BRANCH  21  22
HETATM   22  C5  UNL     1      24.445   5.910  48.638  1.00  0.00     0.002 C 
BRANCH  22  23
HETATM   23  C4  UNL     1      25.891   6.158  48.738  1.00  0.00     0.000 C 
BRANCH  23  24
HETATM   24  C3  UNL     1      26.847   5.078  49.057  1.00  0.00    -0.000 C 
BRANCH  24  25
HETATM   25  C2  UNL     1      28.187   5.114  48.416  1.00  0.00    -0.005 C 
HETATM   26  C1  UNL     1      28.439   6.595  48.017  1.00  0.00     0.005 C 
ENDBRANCH  24  25
ENDBRANCH  23  24
ENDBRANCH  22  23
ENDBRANCH  21  22
ENDBRANCH  20  21
ENDBRANCH  19  20
ENDBRANCH   1  19
TORSDOF 7
ENDMDL
MODEL 8
REMARK VINA RESULT:      -6.6      3.728      6.125
REMARK  7 active torsions:
REMARK  status: ('A' for Active; 'I' for Inactive)
REMARK    1  A    between atoms: C2_2  and  C3_3 
REMARK    2  A    between atoms: C3_3  and  C4_4 
REMARK    3  A    between atoms: C4_4  and  C5_5 
REMARK    4  A    between atoms: C5_5  and  C6_6 
REMARK    5  A    between atoms: C6_6  and  C7_7 
REMARK    6  A    between atoms: C7_7  and  O1_8 
REMARK    7  A    between atoms: O1_8  and  C8_9 
ROOT
HETATM    1  C8  UNL     1      23.534   2.097  51.592  1.00  0.00     0.088 A 
HETATM    2  C9  UNL     1      22.947   3.246  52.315  1.00  0.00     0.040 A 
HETATM    3  C10 UNL     1      21.800   4.081  52.018  1.00  0.00    -0.015 A 
HETATM    4  C11 UNL     1      20.997   3.853  50.849  1.00  0.00    -0.016 A 
HETATM    5  C12 UNL     1      21.571   2.708  50.166  1.00  0.00     0.029 A 
HETATM    6  C13 UNL     1      22.670   1.744  50.274  1.00  0.00     0.031 A 
HETATM    7  N1  UNL     1      22.791   2.433  51.203  1.00  0.00     0.000 N 
HETATM    8  C14 UNL     1      22.478   0.942  51.046  1.00  0.00     0.070 A 
HETATM    9  C15 UNL     1      22.246   0.391  52.476  1.00  0.00     0.020 C 
HETATM   10  C16 UNL     1      20.981  -0.021  52.703  1.00  0.00     0.134 C 
HETATM   11  F1  UNL     1      20.886  -0.522  53.994  1.00  0.00    -0.205 F 
HETATM   12  C17 UNL     1      19.554   0.047  52.259  1.00  0.00     0.070 C 
HETATM   13 CL1  UNL     1      18.436  -1.032  53.163  1.00  0.00    -0.081 Cl
HETATM   14  C18 UNL     1      19.242   0.869  51.225  1.00  0.00     0.029 C 
HETATM   15  C19 UNL     1      18.825   1.764  50.077  1.00  0.00     0.298 C 
HETATM   16  N2  UNL     1      19.643   1.697  48.931  1.00  0.00     0.087 N 
HETATM   17  C20 UNL     1      20.844   2.465  48.943  1.00  0.00     0.285 C 
HETATM   18  H24 UNL     1      19.821   0.670  48.737  1.00  0.00     0.316 HD
ENDROOT
BRANCH   1  19
HETATM   19  O1  UNL     1      24.771   1.642  52.342  1.00  0.00    -0.378 OA
BRANCH  19  20
HETATM   20  C7  UNL     1      26.015   1.506  51.719  1.00  0.00     0.169 C 
BRANCH  20  21
HETATM   21  C6  UNL     1      26.628   2.777  51.214  1.00  0.00     0.026 C 
BRANCH  21  22
HETATM   22  C5  UNL     1      26.455   3.088  49.791  1.00  0.00     0.002 C 
BRANCH  22  23
HETATM   23  C4  UNL     1      26.036   4.415  49.316  1.00  0.00     0.000 C 
BRANCH  23  24
HETATM   24  C3  UNL     1      24.617   4.827  49.303  1.00  0.00    -0.000 C 
BRANCH  24  25
HETATM   25  C2  UNL     1      24.305   6.275  49.427  1.00  0.00    -0.005 C 
HETATM   26  C1  UNL     1      24.311   6.593  50.948  1.00  0.00     0.005 C 
ENDBRANCH  24  25
ENDBRANCH  23  24
ENDBRANCH  22  23
ENDBRANCH  21  22
ENDBRANCH  20  21
ENDBRANCH  19  20
ENDBRANCH   1  19
TORSDOF 7
ENDMDL
MODEL 9
REMARK VINA RESULT:      -6.5      3.938      6.449
REMARK  7 active torsions:
REMARK  status: ('A' for Active; 'I' for Inactive)
REMARK    1  A    between atoms: C2_2  and  C3_3 
REMARK    2  A    between atoms: C3_3  and  C4_4 
REMARK    3  A    between atoms: C4_4  and  C5_5 
REMARK    4  A    between atoms: C5_5  and  C6_6 
REMARK    5  A    between atoms: C6_6  and  C7_7 
REMARK    6  A    between atoms: C7_7  and  O1_8 
REMARK    7  A    between atoms: O1_8  and  C8_9 
ROOT
HETATM    1  C8  UNL     1      22.215   4.927  50.822  1.00  0.00     0.088 A 
HETATM    2  C9  UNL     1      22.247   4.098  49.597  1.00  0.00     0.040 A 
HETATM    3  C10 UNL     1      23.079   2.972  49.223  1.00  0.00    -0.015 A 
HETATM    4  C11 UNL     1      24.085   2.462  50.114  1.00  0.00    -0.016 A 
HETATM    5  C12 UNL     1      24.022   3.269  51.319  1.00  0.00     0.029 A 
HETATM    6  C13 UNL     1      23.295   4.400  51.902  1.00  0.00     0.031 A 
HETATM    7  N1  UNL     1      22.820   4.258  50.849  1.00  0.00     0.000 N 
HETATM    8  C14 UNL     1      22.263   4.119  52.269  1.00  0.00     0.070 A 
HETATM    9  C15 UNL     1      20.799   3.636  52.119  1.00  0.00     0.020 C 
HETATM   10  C16 UNL     1      20.582   2.393  52.599  1.00  0.00     0.134 C 
HETATM   11  F1  UNL     1      19.242   2.068  52.446  1.00  0.00    -0.205 F 
HETATM   12  C17 UNL     1      21.203   1.095  53.008  1.00  0.00     0.070 C 
HETATM   13 CL1  UNL     1      20.055  -0.090  53.723  1.00  0.00    -0.081 Cl
HETATM   14  C18 UNL     1      22.540   0.941  52.839  1.00  0.00     0.029 C 
HETATM   15  C19 UNL     1      24.026   0.701  52.678  1.00  0.00     0.298 C 
HETATM   16  N2  UNL     1      24.858   1.749  53.123  1.00  0.00     0.087 N 
HETATM   17  C20 UNL     1      25.055   2.846  52.234  1.00  0.00     0.285 C 
HETATM   18  H24 UNL     1      24.491   2.055  54.069  1.00  0.00     0.316 HD
ENDROOT
BRANCH   1  19
HETATM   19  O1  UNL     1      21.168   6.010  50.639  1.00  0.00    -0.378 OA
BRANCH  19  20
HETATM   20  C7  UNL     1      21.471   7.369  50.758  1.00  0.00     0.169 C 
BRANCH  20  21
HETATM   21  C6  UNL     1      22.630   7.848  49.936  1.00  0.00     0.026 C 
BRANCH  21  22
HETATM   22  C5  UNL     1      23.876   8.154  50.644  1.00  0.00     0.002 C 
BRANCH  22  23
HETATM   23  C4  UNL     1      25.201   7.896  50.062  1.00  0.00     0.000 C 
BRANCH  23  24
HETATM   24  C3  UNL     1      25.820   6.555  50.092  1.00  0.00    -0.000 C 
BRANCH  24  25
HETATM   25  C2  UNL     1      25.665   5.683  48.898  1.00  0.00    -0.005 C 
HETATM   26  C1  UNL     1      26.867   4.698  48.921  1.00  0.00     0.005 C 
ENDBRANCH  24  25
ENDBRANCH  23  24
ENDBRANCH  22  23
ENDBRANCH  21  22
ENDBRANCH  20  21
ENDBRANCH  19  20
ENDBRANCH   1  19
TORSDOF 7
ENDMDL
