MODEL 1
REMARK VINA RESULT:      -8.5      0.000      0.000
REMARK  6 active torsions:
REMARK  status: ('A' for Active; 'I' for Inactive)
REMARK    1  A    between atoms: C2_2  and  N1_3 
REMARK    2  A    between atoms: C3_4  and  N2_5 
REMARK    3  A    between atoms: C4_6  and  N3_7 
REMARK    4  A    between atoms: C4_6  and  C13_16 
REMARK    5  A    between atoms: N3_7  and  C5_8 
REMARK    6  A    between atoms: C5_8  and  C7_10 
ROOT
HETATM    1  N2  UNL     1      26.705  -1.140  53.441  1.00  0.00    -0.224 NA
HETATM    2  C4  UNL     1      25.791  -0.322  53.091  1.00  0.00     0.138 C 
ENDROOT
BRANCH   2   3
HETATM    3  N3  UNL     1      26.141   0.616  52.115  1.00  0.00    -0.366 N 
HETATM    4  H7  UNL     1      26.205   0.125  51.160  1.00  0.00     0.161 HD
BRANCH   3   5
HETATM    5  C5  UNL     1      26.373   2.000  52.420  1.00  0.00     0.112 C 
HETATM    6  C6  UNL     1      25.760   2.419  53.760  1.00  0.00     0.037 C 
BRANCH   5   7
HETATM    7  C7  UNL     1      25.725   2.877  51.384  1.00  0.00    -0.036 A 
HETATM    8  C8  UNL     1      24.474   3.401  51.602  1.00  0.00     0.009 A 
HETATM    9  C9  UNL     1      23.952   4.187  50.618  1.00  0.00     0.001 A 
HETATM   10  C10 UNL     1      24.676   4.434  49.449  1.00  0.00     0.000 A 
HETATM   11  C11 UNL     1      25.928   3.888  49.273  1.00  0.00     0.001 A 
HETATM   12  C12 UNL     1      26.496   3.087  50.241  1.00  0.00     0.009 A 
ENDBRANCH   5   7
ENDBRANCH   3   5
ENDBRANCH   2   3
BRANCH   2  13
HETATM   13  C13 UNL     1      24.551  -0.620  53.784  1.00  0.00     0.035 A 
HETATM   14  C14 UNL     1      24.624  -1.134  54.999  1.00  0.00     0.099 A 
HETATM   15  N4  UNL     1      23.443  -1.458  55.750  1.00  0.00    -0.394 N 
HETATM   16  C15 UNL     1      22.105  -1.295  55.269  1.00  0.00     0.158 A 
HETATM   17  H18 UNL     1      23.453  -1.841  56.706  1.00  0.00     0.159 HD
HETATM   18  C16 UNL     1      22.037  -0.663  53.943  1.00  0.00    -0.029 A 
HETATM   19  C17 UNL     1      20.791  -0.378  53.440  1.00  0.00     0.011 A 
HETATM   20  C21 UNL     1      23.220  -0.397  53.295  1.00  0.00    -0.012 A 
HETATM   21  C18 UNL     1      20.652   0.215  52.204  1.00  0.00     0.020 A 
HETATM   22  C19 UNL     1      21.832   0.500  51.519  1.00  0.00     0.011 A 
HETATM   23 BR1  UNL     1      21.586   1.322  49.809  1.00  0.00    -0.051 Br
HETATM   24  C20 UNL     1      23.048   0.189  52.079  1.00  0.00     0.032 A 
ENDBRANCH   2  13
BRANCH   1  25
HETATM   25  C3  UNL     1      28.021  -1.273  53.016  1.00  0.00     0.228 C 
HETATM   26  N1  UNL     1      29.023  -0.681  53.577  1.00  0.00    -0.283 NA
BRANCH  26  27
HETATM   27  C2  UNL     1      28.720   0.164  54.718  1.00  0.00     0.145 C 
HETATM   28  C1  UNL     1      29.323   1.533  54.557  1.00  0.00     0.028 C 
ENDBRANCH  26  27
ENDBRANCH   1  25
TORSDOF 6
ENDMDL
MODEL 2
REMARK VINA RESULT:      -8.3      1.500      2.010
REMARK  6 active torsions:
REMARK  status: ('A' for Active; 'I' for Inactive)
REMARK    1  A    between atoms: C2_2  and  N1_3 
REMARK    2  A    between atoms: C3_4  and  N2_5 
REMARK    3  A    between atoms: C4_6  and  N3_7 
REMARK    4  A    between atoms: C4_6  and  C13_16 
REMARK    5  A    between atoms: N3_7  and  C5_8 
REMARK    6  A    between atoms: C5_8  and  C7_10 
ROOT
HETATM    1  N2  UNL     1      26.545   1.193  53.266  1.00  0.00    -0.224 NA
HETATM    2  C4  UNL     1      25.358   0.969  52.858  1.00  0.00     0.138 C 
ENDROOT
BRANCH   2   3
HETATM    3  N3  UNL     1      25.002   1.555  51.638  1.00  0.00    -0.366 N 
HETATM    4  H7  UNL     1      24.972   0.796  50.877  1.00  0.00     0.161 HD
BRANCH   3   5
HETATM    5  C5  UNL     1      24.743   2.961  51.502  1.00  0.00     0.112 C 
HETATM    6  C6  UNL     1      23.911   3.522  52.660  1.00  0.00     0.037 C 
BRANCH   5   7
HETATM    7  C7  UNL     1      23.939   3.224  50.259  1.00  0.00    -0.036 A 
HETATM    8  C8  UNL     1      23.086   2.265  49.767  1.00  0.00     0.009 A 
HETATM    9  C9  UNL     1      22.391   2.578  48.637  1.00  0.00     0.001 A 
HETATM   10  C10 UNL     1      22.556   3.822  48.023  1.00  0.00     0.000 A 
HETATM   11  C11 UNL     1      23.422   4.753  48.552  1.00  0.00     0.001 A 
HETATM   12  C12 UNL     1      24.146   4.482  49.693  1.00  0.00     0.009 A 
ENDBRANCH   5   7
ENDBRANCH   3   5
ENDBRANCH   2   3
BRANCH   2  13
HETATM   13  C13 UNL     1      24.666   0.080  53.773  1.00  0.00     0.035 A 
HETATM   14  C14 UNL     1      25.358  -0.456  54.763  1.00  0.00     0.099 A 
HETATM   15  N4  UNL     1      24.748  -1.347  55.711  1.00  0.00    -0.394 N 
HETATM   16  C15 UNL     1      23.378  -1.761  55.669  1.00  0.00     0.158 A 
HETATM   17  H18 UNL     1      25.243  -1.771  56.507  1.00  0.00     0.159 HD
HETATM   18  C16 UNL     1      22.605  -1.107  54.603  1.00  0.00    -0.029 A 
HETATM   19  C17 UNL     1      21.258  -1.370  54.544  1.00  0.00     0.011 A 
HETATM   20  C21 UNL     1      23.276  -0.277  53.736  1.00  0.00    -0.012 A 
HETATM   21  C18 UNL     1      20.472  -0.792  53.572  1.00  0.00     0.020 A 
HETATM   22  C19 UNL     1      21.120   0.058  52.677  1.00  0.00     0.011 A 
HETATM   23 BR1  UNL     1      19.986   0.835  51.346  1.00  0.00    -0.051 Br
HETATM   24  C20 UNL     1      22.472   0.279  52.790  1.00  0.00     0.032 A 
ENDBRANCH   2  13
BRANCH   1  25
HETATM   25  C3  UNL     1      27.579   1.933  52.703  1.00  0.00     0.228 C 
HETATM   26  N1  UNL     1      28.813   1.841  53.071  1.00  0.00    -0.283 NA
BRANCH  26  27
HETATM   27  C2  UNL     1      29.103   0.899  54.136  1.00  0.00     0.145 C 
HETATM   28  C1  UNL     1      29.812  -0.319  53.607  1.00  0.00     0.028 C 
ENDBRANCH  26  27
ENDBRANCH   1  25
TORSDOF 6
ENDMDL
MODEL 3
REMARK VINA RESULT:      -8.0      3.137      5.649
REMARK  6 active torsions:
REMARK  status: ('A' for Active; 'I' for Inactive)
REMARK    1  A    between atoms: C2_2  and  N1_3 
REMARK    2  A    between atoms: C3_4  and  N2_5 
REMARK    3  A    between atoms: C4_6  and  N3_7 
REMARK    4  A    between atoms: C4_6  and  C13_16 
REMARK    5  A    between atoms: N3_7  and  C5_8 
REMARK    6  A    between atoms: C5_8  and  C7_10 
ROOT
HETATM    1  N2  UNL     1      22.927   4.303  51.842  1.00  0.00    -0.224 NA
HETATM    2  C4  UNL     1      23.981   3.609  51.660  1.00  0.00     0.138 C 
ENDROOT
BRANCH   2   3
HETATM    3  N3  UNL     1      25.051   4.259  51.035  1.00  0.00    -0.366 N 
HETATM    4  H7  UNL     1      25.432   5.021  51.691  1.00  0.00     0.161 HD
BRANCH   3   5
HETATM    5  C5  UNL     1      25.504   3.912  49.717  1.00  0.00     0.112 C 
HETATM    6  C6  UNL     1      26.509   2.756  49.725  1.00  0.00     0.037 C 
BRANCH   5   7
HETATM    7  C7  UNL     1      26.225   5.074  49.092  1.00  0.00    -0.036 A 
HETATM    8  C8  UNL     1      25.575   6.267  48.889  1.00  0.00     0.009 A 
HETATM    9  C9  UNL     1      26.296   7.275  48.319  1.00  0.00     0.001 A 
HETATM   10  C10 UNL     1      27.632   7.078  47.964  1.00  0.00     0.000 A 
HETATM   11  C11 UNL     1      28.243   5.864  48.186  1.00  0.00     0.001 A 
HETATM   12  C12 UNL     1      27.555   4.817  48.761  1.00  0.00     0.009 A 
ENDBRANCH   5   7
ENDBRANCH   3   5
ENDBRANCH   2   3
BRANCH   2  13
HETATM   13  C13 UNL     1      23.816   2.280  52.220  1.00  0.00     0.035 A 
HETATM   14  C14 UNL     1      22.654   1.673  52.052  1.00  0.00     0.099 A 
HETATM   15  N4  UNL     1      22.411   0.358  52.577  1.00  0.00    -0.394 N 
HETATM   16  C15 UNL     1      23.357  -0.399  53.339  1.00  0.00     0.158 A 
HETATM   17  H18 UNL     1      21.529  -0.159  52.453  1.00  0.00     0.159 HD
HETATM   18  C16 UNL     1      24.665   0.259  53.462  1.00  0.00    -0.029 A 
HETATM   19  C17 UNL     1      25.667  -0.435  54.096  1.00  0.00     0.011 A 
HETATM   20  C21 UNL     1      24.803   1.523  52.936  1.00  0.00    -0.012 A 
HETATM   21  C18 UNL     1      26.919   0.121  54.246  1.00  0.00     0.020 A 
HETATM   22  C19 UNL     1      27.094   1.401  53.723  1.00  0.00     0.011 A 
HETATM   23 BR1  UNL     1      28.849   2.128  53.958  1.00  0.00    -0.051 Br
HETATM   24  C20 UNL     1      26.050   2.041  53.101  1.00  0.00     0.032 A 
ENDBRANCH   2  13
BRANCH   1  25
HETATM   25  C3  UNL     1      22.641   5.626  51.526  1.00  0.00     0.228 C 
HETATM   26  N1  UNL     1      21.969   5.989  50.485  1.00  0.00    -0.283 NA
BRANCH  26  27
HETATM   27  C2  UNL     1      21.498   4.925  49.616  1.00  0.00     0.145 C 
HETATM   28  C1  UNL     1      22.233   4.930  48.302  1.00  0.00     0.028 C 
ENDBRANCH  26  27
ENDBRANCH   1  25
TORSDOF 6
ENDMDL
MODEL 4
REMARK VINA RESULT:      -7.8      1.845      5.192
REMARK  6 active torsions:
REMARK  status: ('A' for Active; 'I' for Inactive)
REMARK    1  A    between atoms: C2_2  and  N1_3 
REMARK    2  A    between atoms: C3_4  and  N2_5 
REMARK    3  A    between atoms: C4_6  and  N3_7 
REMARK    4  A    between atoms: C4_6  and  C13_16 
REMARK    5  A    between atoms: N3_7  and  C5_8 
REMARK    6  A    between atoms: C5_8  and  C7_10 
ROOT
HETATM    1  N2  UNL     1      25.282   0.578  52.685  1.00  0.00    -0.224 NA
HETATM    2  C4  UNL     1      24.055   0.923  52.642  1.00  0.00     0.138 C 
ENDROOT
BRANCH   2   3
HETATM    3  N3  UNL     1      23.118  -0.103  52.808  1.00  0.00    -0.366 N 
HETATM    4  H7  UNL     1      23.370  -0.920  52.157  1.00  0.00     0.161 HD
BRANCH   3   5
HETATM    5  C5  UNL     1      22.013   0.000  53.720  1.00  0.00     0.112 C 
HETATM    6  C6  UNL     1      21.981  -1.144  54.738  1.00  0.00     0.037 C 
BRANCH   5   7
HETATM    7  C7  UNL     1      20.711  -0.085  52.972  1.00  0.00    -0.036 A 
HETATM    8  C8  UNL     1      20.557   0.564  51.771  1.00  0.00     0.009 A 
HETATM    9  C9  UNL     1      19.348   0.439  51.152  1.00  0.00     0.001 A 
HETATM   10  C10 UNL     1      18.328  -0.318  51.733  1.00  0.00     0.000 A 
HETATM   11  C11 UNL     1      18.528  -0.952  52.939  1.00  0.00     0.001 A 
HETATM   12  C12 UNL     1      19.734  -0.855  53.601  1.00  0.00     0.009 A 
ENDBRANCH   5   7
ENDBRANCH   3   5
ENDBRANCH   2   3
BRANCH   2  13
HETATM   13  C13 UNL     1      23.937   2.361  52.481  1.00  0.00     0.035 A 
HETATM   14  C14 UNL     1      24.304   3.132  53.489  1.00  0.00     0.099 A 
HETATM   15  N4  UNL     1      24.217   4.564  53.410  1.00  0.00    -0.394 N 
HETATM   16  C15 UNL     1      23.713   5.285  52.281  1.00  0.00     0.158 A 
HETATM   17  H18 UNL     1      24.509   5.203  54.163  1.00  0.00     0.159 HD
HETATM   18  C16 UNL     1      23.371   4.419  51.143  1.00  0.00    -0.029 A 
HETATM   19  C17 UNL     1      22.968   5.029  49.981  1.00  0.00     0.011 A 
HETATM   20  C21 UNL     1      23.476   3.058  51.315  1.00  0.00    -0.012 A 
HETATM   21  C18 UNL     1      22.632   4.280  48.874  1.00  0.00     0.020 A 
HETATM   22  C19 UNL     1      22.729   2.896  49.013  1.00  0.00     0.011 A 
HETATM   23 BR1  UNL     1      22.252   1.900  47.450  1.00  0.00    -0.051 Br
HETATM   24  C20 UNL     1      23.139   2.348  50.204  1.00  0.00     0.032 A 
ENDBRANCH   2  13
BRANCH   1  25
HETATM   25  C3  UNL     1      25.874  -0.665  52.873  1.00  0.00     0.228 C 
HETATM   26  N1  UNL     1      26.702  -0.932  53.827  1.00  0.00    -0.283 NA
BRANCH  26  27
HETATM   27  C2  UNL     1      27.010   0.154  54.740  1.00  0.00     0.145 C 
HETATM   28  C1  UNL     1      28.453   0.566  54.629  1.00  0.00     0.028 C 
ENDBRANCH  26  27
ENDBRANCH   1  25
TORSDOF 6
ENDMDL
MODEL 5
REMARK VINA RESULT:      -7.8      1.876      2.604
REMARK  6 active torsions:
REMARK  status: ('A' for Active; 'I' for Inactive)
REMARK    1  A    between atoms: C2_2  and  N1_3 
REMARK    2  A    between atoms: C3_4  and  N2_5 
REMARK    3  A    between atoms: C4_6  and  N3_7 
REMARK    4  A    between atoms: C4_6  and  C13_16 
REMARK    5  A    between atoms: N3_7  and  C5_8 
REMARK    6  A    between atoms: C5_8  and  C7_10 
ROOT
HETATM    1  N2  UNL     1      26.553   1.849  53.130  1.00  0.00    -0.224 NA
HETATM    2  C4  UNL     1      25.476   2.161  52.522  1.00  0.00     0.138 C 
ENDROOT
BRANCH   2   3
HETATM    3  N3  UNL     1      25.569   3.202  51.593  1.00  0.00    -0.366 N 
HETATM    4  H7  UNL     1      25.493   4.143  52.108  1.00  0.00     0.161 HD
BRANCH   3   5
HETATM    5  C5  UNL     1      25.729   2.971  50.185  1.00  0.00     0.112 C 
HETATM    6  C6  UNL     1      26.959   3.680  49.607  1.00  0.00     0.037 C 
BRANCH   5   7
HETATM    7  C7  UNL     1      24.551   3.521  49.429  1.00  0.00    -0.036 A 
HETATM    8  C8  UNL     1      23.572   2.678  48.961  1.00  0.00     0.009 A 
HETATM    9  C9  UNL     1      22.534   3.250  48.286  1.00  0.00     0.001 A 
HETATM   10  C10 UNL     1      22.492   4.633  48.091  1.00  0.00     0.000 A 
HETATM   11  C11 UNL     1      23.496   5.439  48.578  1.00  0.00     0.001 A 
HETATM   12  C12 UNL     1      24.564   4.906  49.267  1.00  0.00     0.009 A 
ENDBRANCH   5   7
ENDBRANCH   3   5
ENDBRANCH   2   3
BRANCH   2  13
HETATM   13  C13 UNL     1      24.395   1.280  52.923  1.00  0.00     0.035 A 
HETATM   14  C14 UNL     1      24.707   0.141  53.517  1.00  0.00     0.099 A 
HETATM   15  N4  UNL     1      23.696  -0.786  53.944  1.00  0.00    -0.394 N 
HETATM   16  C15 UNL     1      22.290  -0.597  53.753  1.00  0.00     0.158 A 
HETATM   17  H18 UNL     1      23.892  -1.674  54.426  1.00  0.00     0.159 HD
HETATM   18  C16 UNL     1      21.953   0.702  53.151  1.00  0.00    -0.029 A 
HETATM   19  C17 UNL     1      20.622   1.012  53.016  1.00  0.00     0.011 A 
HETATM   20  C21 UNL     1      22.989   1.520  52.765  1.00  0.00    -0.012 A 
HETATM   21  C18 UNL     1      20.234   2.212  52.463  1.00  0.00     0.020 A 
HETATM   22  C19 UNL     1      21.259   3.068  52.060  1.00  0.00     0.011 A 
HETATM   23 BR1  UNL     1      20.669   4.720  51.298  1.00  0.00    -0.051 Br
HETATM   24  C20 UNL     1      22.572   2.697  52.223  1.00  0.00     0.032 A 
ENDBRANCH   2  13
BRANCH   1  25
HETATM   25  C3  UNL     1      27.838   2.372  53.033  1.00  0.00     0.228 C 
HETATM   26  N1  UNL     1      28.881   1.820  53.557  1.00  0.00    -0.283 NA
BRANCH  26  27
HETATM   27  C2  UNL     1      28.663   0.580  54.280  1.00  0.00     0.145 C 
HETATM   28  C1  UNL     1      29.476  -0.543  53.694  1.00  0.00     0.028 C 
ENDBRANCH  26  27
ENDBRANCH   1  25
TORSDOF 6
ENDMDL
MODEL 6
REMARK VINA RESULT:      -7.7      1.781      4.664
REMARK  6 active torsions:
REMARK  status: ('A' for Active; 'I' for Inactive)
REMARK    1  A    between atoms: C2_2  and  N1_3 
REMARK    2  A    between atoms: C3_4  and  N2_5 
REMARK    3  A    between atoms: C4_6  and  N3_7 
REMARK    4  A    between atoms: C4_6  and  C13_16 
REMARK    5  A    between atoms: N3_7  and  C5_8 
REMARK    6  A    between atoms: C5_8  and  C7_10 
ROOT
HETATM    1  N2  UNL     1      23.657   2.298  52.564  1.00  0.00    -0.224 NA
HETATM    2  C4  UNL     1      24.094   1.102  52.636  1.00  0.00     0.138 C 
ENDROOT
BRANCH   2   3
HETATM    3  N3  UNL     1      25.395   0.889  52.167  1.00  0.00    -0.366 N 
HETATM    4  H7  UNL     1      25.354   0.590  51.135  1.00  0.00     0.161 HD
BRANCH   3   5
HETATM    5  C5  UNL     1      26.553   1.056  53.000  1.00  0.00     0.112 C 
HETATM    6  C6  UNL     1      27.495   2.151  52.487  1.00  0.00     0.037 C 
BRANCH   5   7
HETATM    7  C7  UNL     1      27.369  -0.208  53.015  1.00  0.00    -0.036 A 
HETATM    8  C8  UNL     1      28.671  -0.188  53.454  1.00  0.00     0.009 A 
HETATM    9  C9  UNL     1      29.346  -1.373  53.439  1.00  0.00     0.001 A 
HETATM   10  C10 UNL     1      28.722  -2.540  52.993  1.00  0.00     0.000 A 
HETATM   11  C11 UNL     1      27.414  -2.512  52.561  1.00  0.00     0.001 A 
HETATM   12  C12 UNL     1      26.692  -1.338  52.559  1.00  0.00     0.009 A 
ENDBRANCH   5   7
ENDBRANCH   3   5
ENDBRANCH   2   3
BRANCH   2  13
HETATM   13  C13 UNL     1      23.110   0.239  53.264  1.00  0.00     0.035 A 
HETATM   14  C14 UNL     1      23.479  -0.456  54.326  1.00  0.00     0.099 A 
HETATM   15  N4  UNL     1      22.566  -1.333  55.004  1.00  0.00    -0.394 N 
HETATM   16  C15 UNL     1      21.212  -1.565  54.600  1.00  0.00     0.158 A 
HETATM   17  H18 UNL     1      22.805  -1.877  55.845  1.00  0.00     0.159 HD
HETATM   18  C16 UNL     1      20.796  -0.737  53.459  1.00  0.00    -0.029 A 
HETATM   19  C17 UNL     1      19.485  -0.821  53.059  1.00  0.00     0.011 A 
HETATM   20  C21 UNL     1      21.742   0.066  52.866  1.00  0.00    -0.012 A 
HETATM   21  C18 UNL     1      19.025  -0.073  51.998  1.00  0.00     0.020 A 
HETATM   22  C19 UNL     1      19.958   0.754  51.374  1.00  0.00     0.011 A 
HETATM   23 BR1  UNL     1      19.271   1.771  49.906  1.00  0.00    -0.051 Br
HETATM   24  C20 UNL     1      21.256   0.792  51.823  1.00  0.00     0.032 A 
ENDBRANCH   2  13
BRANCH   1  25
HETATM   25  C3  UNL     1      24.255   3.460  52.092  1.00  0.00     0.228 C 
HETATM   26  N1  UNL     1      23.880   4.081  51.024  1.00  0.00    -0.283 NA
BRANCH  26  27
HETATM   27  C2  UNL     1      22.763   3.505  50.298  1.00  0.00     0.145 C 
HETATM   28  C1  UNL     1      23.222   2.849  49.024  1.00  0.00     0.028 C 
ENDBRANCH  26  27
ENDBRANCH   1  25
TORSDOF 6
ENDMDL
MODEL 7
REMARK VINA RESULT:      -7.7      2.891      6.451
REMARK  6 active torsions:
REMARK  status: ('A' for Active; 'I' for Inactive)
REMARK    1  A    between atoms: C2_2  and  N1_3 
REMARK    2  A    between atoms: C3_4  and  N2_5 
REMARK    3  A    between atoms: C4_6  and  N3_7 
REMARK    4  A    between atoms: C4_6  and  C13_16 
REMARK    5  A    between atoms: N3_7  and  C5_8 
REMARK    6  A    between atoms: C5_8  and  C7_10 
ROOT
HETATM    1  N2  UNL     1      22.832   4.185  51.918  1.00  0.00    -0.224 NA
HETATM    2  C4  UNL     1      23.072   3.141  51.227  1.00  0.00     0.138 C 
ENDROOT
BRANCH   2   3
HETATM    3  N3  UNL     1      22.091   2.773  50.300  1.00  0.00    -0.366 N 
HETATM    4  H7  UNL     1      21.586   3.655  49.951  1.00  0.00     0.161 HD
BRANCH   3   5
HETATM    5  C5  UNL     1      21.849   1.406  49.932  1.00  0.00     0.112 C 
HETATM    6  C6  UNL     1      21.734   1.216  48.415  1.00  0.00     0.037 C 
BRANCH   5   7
HETATM    7  C7  UNL     1      20.538   0.937  50.500  1.00  0.00    -0.036 A 
HETATM    8  C8  UNL     1      20.498   0.294  51.713  1.00  0.00     0.009 A 
HETATM    9  C9  UNL     1      19.273  -0.100  52.164  1.00  0.00     0.001 A 
HETATM   10  C10 UNL     1      18.125   0.149  51.407  1.00  0.00     0.000 A 
HETATM   11  C11 UNL     1      18.213   0.798  50.196  1.00  0.00     0.001 A 
HETATM   12  C12 UNL     1      19.430   1.215  49.701  1.00  0.00     0.009 A 
ENDBRANCH   5   7
ENDBRANCH   3   5
ENDBRANCH   2   3
BRANCH   2  13
HETATM   13  C13 UNL     1      24.383   2.608  51.551  1.00  0.00     0.035 A 
HETATM   14  C14 UNL     1      25.444   3.223  51.059  1.00  0.00     0.099 A 
HETATM   15  N4  UNL     1      26.775   2.759  51.333  1.00  0.00    -0.394 N 
HETATM   16  C15 UNL     1      27.086   1.601  52.115  1.00  0.00     0.158 A 
HETATM   17  H18 UNL     1      27.630   3.217  50.987  1.00  0.00     0.159 HD
HETATM   18  C16 UNL     1      25.901   0.965  52.709  1.00  0.00    -0.029 A 
HETATM   19  C17 UNL     1      26.109  -0.098  53.555  1.00  0.00     0.011 A 
HETATM   20  C21 UNL     1      24.666   1.473  52.383  1.00  0.00    -0.012 A 
HETATM   21  C18 UNL     1      25.044  -0.741  54.148  1.00  0.00     0.020 A 
HETATM   22  C19 UNL     1      23.776  -0.250  53.840  1.00  0.00     0.011 A 
HETATM   23 BR1  UNL     1      22.333  -1.177  54.688  1.00  0.00    -0.051 Br
HETATM   24  C20 UNL     1      23.637   0.817  52.986  1.00  0.00     0.032 A 
ENDBRANCH   2  13
BRANCH   1  25
HETATM   25  C3  UNL     1      21.743   5.049  51.916  1.00  0.00     0.228 C 
HETATM   26  N1  UNL     1      21.667   6.111  51.187  1.00  0.00    -0.283 NA
BRANCH  26  27
HETATM   27  C2  UNL     1      22.804   6.390  50.328  1.00  0.00     0.145 C 
HETATM   28  C1  UNL     1      23.503   7.656  50.743  1.00  0.00     0.028 C 
ENDBRANCH  26  27
ENDBRANCH   1  25
TORSDOF 6
ENDMDL
MODEL 8
REMARK VINA RESULT:      -7.6      3.126      5.259
REMARK  6 active torsions:
REMARK  status: ('A' for Active; 'I' for Inactive)
REMARK    1  A    between atoms: C2_2  and  N1_3 
REMARK    2  A    between atoms: C3_4  and  N2_5 
REMARK    3  A    between atoms: C4_6  and  N3_7 
REMARK    4  A    between atoms: C4_6  and  C13_16 
REMARK    5  A    between atoms: N3_7  and  C5_8 
REMARK    6  A    between atoms: C5_8  and  C7_10 
ROOT
HETATM    1  N2  UNL     1      21.837   1.224  50.022  1.00  0.00    -0.224 NA
HETATM    2  C4  UNL     1      22.152   1.895  51.060  1.00  0.00     0.138 C 
ENDROOT
BRANCH   2   3
HETATM    3  N3  UNL     1      22.558   3.216  50.844  1.00  0.00    -0.366 N 
HETATM    4  H7  UNL     1      21.943   3.653  50.077  1.00  0.00     0.161 HD
BRANCH   3   5
HETATM    5  C5  UNL     1      23.641   3.820  51.567  1.00  0.00     0.112 C 
HETATM    6  C6  UNL     1      23.274   5.192  52.142  1.00  0.00     0.037 C 
BRANCH   5   7
HETATM    7  C7  UNL     1      24.808   4.063  50.650  1.00  0.00    -0.036 A 
HETATM    8  C8  UNL     1      25.686   3.047  50.359  1.00  0.00     0.009 A 
HETATM    9  C9  UNL     1      26.718   3.344  49.519  1.00  0.00     0.001 A 
HETATM   10  C10 UNL     1      26.856   4.630  48.992  1.00  0.00     0.000 A 
HETATM   11  C11 UNL     1      25.952   5.618  49.311  1.00  0.00     0.001 A 
HETATM   12  C12 UNL     1      24.892   5.364  50.155  1.00  0.00     0.009 A 
ENDBRANCH   5   7
ENDBRANCH   3   5
ENDBRANCH   2   3
BRANCH   2  13
HETATM   13  C13 UNL     1      21.947   1.101  52.257  1.00  0.00     0.035 A 
HETATM   14  C14 UNL     1      20.710   0.944  52.697  1.00  0.00     0.099 A 
HETATM   15  N4  UNL     1      20.424   0.174  53.875  1.00  0.00    -0.394 N 
HETATM   16  C15 UNL     1      21.414  -0.460  54.691  1.00  0.00     0.158 A 
HETATM   17  H18 UNL     1      19.476   0.010  54.241  1.00  0.00     0.159 HD
HETATM   18  C16 UNL     1      22.778  -0.333  54.155  1.00  0.00    -0.029 A 
HETATM   19  C17 UNL     1      23.784  -0.990  54.820  1.00  0.00     0.011 A 
HETATM   20  C21 UNL     1      22.957   0.432  53.027  1.00  0.00    -0.012 A 
HETATM   21  C18 UNL     1      25.085  -0.915  54.374  1.00  0.00     0.020 A 
HETATM   22  C19 UNL     1      25.304  -0.148  53.231  1.00  0.00     0.011 A 
HETATM   23 BR1  UNL     1      27.126  -0.076  52.652  1.00  0.00    -0.051 Br
HETATM   24  C20 UNL     1      24.252   0.484  52.612  1.00  0.00     0.032 A 
ENDBRANCH   2  13
BRANCH   1  25
HETATM   25  C3  UNL     1      21.822   1.578  48.677  1.00  0.00     0.228 C 
HETATM   26  N1  UNL     1      20.802   2.099  48.081  1.00  0.00    -0.283 NA
BRANCH  26  27
HETATM   27  C2  UNL     1      19.618   2.315  48.893  1.00  0.00     0.145 C 
HETATM   28  C1  UNL     1      19.391   3.782  49.144  1.00  0.00     0.028 C 
ENDBRANCH  26  27
ENDBRANCH   1  25
TORSDOF 6
ENDMDL
MODEL 9
REMARK VINA RESULT:      -7.5      2.652      5.312
REMARK  6 active torsions:
REMARK  status: ('A' for Active; 'I' for Inactive)
REMARK    1  A    between atoms: C2_2  and  N1_3 
REMARK    2  A    between atoms: C3_4  and  N2_5 
REMARK    3  A    between atoms: C4_6  and  N3_7 
REMARK    4  A    between atoms: C4_6  and  C13_16 
REMARK    5  A    between atoms: N3_7  and  C5_8 
REMARK    6  A    between atoms: C5_8  and  C7_10 
ROOT
HETATM    1  N2  UNL     1      23.583   4.698  51.350  1.00  0.00    -0.224 NA
HETATM    2  C4  UNL     1      23.967   3.520  51.654  1.00  0.00     0.138 C 
ENDROOT
BRANCH   2   3
HETATM    3  N3  UNL     1      25.236   3.411  52.231  1.00  0.00    -0.366 N 
HETATM    4  H7  UNL     1      25.190   3.746  53.252  1.00  0.00     0.161 HD
BRANCH   3   5
HETATM    5  C5  UNL     1      26.377   2.929  51.505  1.00  0.00     0.112 C 
HETATM    6  C6  UNL     1      26.010   2.404  50.113  1.00  0.00     0.037 C 
BRANCH   5   7
HETATM    7  C7  UNL     1      27.000   1.766  52.227  1.00  0.00    -0.036 A 
HETATM    8  C8  UNL     1      27.879   1.981  53.261  1.00  0.00     0.009 A 
HETATM    9  C9  UNL     1      28.402   0.878  53.867  1.00  0.00     0.001 A 
HETATM   10  C10 UNL     1      28.047  -0.403  53.437  1.00  0.00     0.000 A 
HETATM   11  C11 UNL     1      27.162  -0.571  52.396  1.00  0.00     0.001 A 
HETATM   12  C12 UNL     1      26.607   0.515  51.754  1.00  0.00     0.009 A 
ENDBRANCH   5   7
ENDBRANCH   3   5
ENDBRANCH   2   3
BRANCH   2  13
HETATM   13  C13 UNL     1      22.921   2.556  51.364  1.00  0.00     0.035 A 
HETATM   14  C14 UNL     1      22.091   2.818  50.369  1.00  0.00     0.099 A 
HETATM   15  N4  UNL     1      21.030   1.915  50.018  1.00  0.00    -0.394 N 
HETATM   16  C15 UNL     1      20.745   0.692  50.704  1.00  0.00     0.158 A 
HETATM   17  H18 UNL     1      20.374   2.070  49.240  1.00  0.00     0.159 HD
HETATM   18  C16 UNL     1      21.714   0.381  51.766  1.00  0.00    -0.029 A 
HETATM   19  C17 UNL     1      21.578  -0.821  52.416  1.00  0.00     0.011 A 
HETATM   20  C21 UNL     1      22.692   1.309  52.037  1.00  0.00    -0.012 A 
HETATM   21  C18 UNL     1      22.451  -1.178  53.421  1.00  0.00     0.020 A 
HETATM   22  C19 UNL     1      23.456  -0.260  53.722  1.00  0.00     0.011 A 
HETATM   23 BR1  UNL     1      24.641  -0.802  55.123  1.00  0.00    -0.051 Br
HETATM   24  C20 UNL     1      23.537   0.926  53.032  1.00  0.00     0.032 A 
ENDBRANCH   2  13
BRANCH   1  25
HETATM   25  C3  UNL     1      24.216   5.927  51.494  1.00  0.00     0.228 C 
HETATM   26  N1  UNL     1      24.908   6.494  50.563  1.00  0.00    -0.283 NA
BRANCH  26  27
HETATM   27  C2  UNL     1      25.010   5.778  49.304  1.00  0.00     0.145 C 
HETATM   28  C1  UNL     1      26.432   5.738  48.814  1.00  0.00     0.028 C 
ENDBRANCH  26  27
ENDBRANCH   1  25
TORSDOF 6
ENDMDL
