MODEL 1
REMARK VINA RESULT:     -10.9      0.000      0.000
REMARK  0 active torsions:
REMARK  status: ('A' for Active; 'I' for Inactive)
ROOT
HETATM    1  C1  UNL     1      23.051   2.586  49.568  1.00  0.00     0.043 C 
HETATM    2  C2  UNL     1      23.866   2.218  50.573  1.00  0.00    -0.049 C 
HETATM    3  C3  UNL     1      25.244   2.649  50.700  1.00  0.00     0.004 C 
HETATM    4  C4  UNL     1      26.475   2.745  51.245  1.00  0.00    -0.025 C 
HETATM    5  C5  UNL     1      27.394   2.379  52.310  1.00  0.00     0.049 C 
HETATM    6  C6  UNL     1      26.878   1.484  53.390  1.00  0.00     0.155 C 
HETATM    7  C7  UNL     1      27.989   0.503  53.705  1.00  0.00     0.257 C 
HETATM    8  O1  UNL     1      28.945   1.046  54.347  1.00  0.00    -0.271 OA
HETATM    9  N1  UNL     1      28.042  -0.876  53.363  1.00  0.00    -0.084 N 
HETATM   10  C8  UNL     1      29.087  -1.829  53.493  1.00  0.00     0.216 A 
HETATM   11  S1  UNL     1      30.593  -1.634  54.092  1.00  0.00    -0.038 SA
HETATM   12  N2  UNL     1      28.498  -3.034  52.964  1.00  0.00    -0.261 N 
HETATM   13  N3  UNL     1      27.170  -2.786  52.546  1.00  0.00    -0.127 N 
HETATM   14  C9  UNL     1      26.869  -1.438  52.790  1.00  0.00     0.732 A 
HETATM   15  N4  UNL     1      25.799  -0.744  52.582  1.00  0.00    -0.046 NA
HETATM   16  C10 UNL     1      25.759   0.635  52.929  1.00  0.00     0.159 C 
HETATM   17  N5  UNL     1      24.739   1.457  52.919  1.00  0.00    -0.231 NA
HETATM   18  C11 UNL     1      23.452   0.996  52.521  1.00  0.00     0.076 A 
HETATM   19  C12 UNL     1      23.000   1.361  51.360  1.00  0.00    -0.018 A 
HETATM   20  C13 UNL     1      21.692   0.703  51.304  1.00  0.00     0.081 A 
HETATM   21  C14 UNL     1      21.507  -0.042  52.561  1.00  0.00    -0.041 A 
HETATM   22  C15 UNL     1      20.413  -0.793  52.908  1.00  0.00     0.008 A 
HETATM   23  C16 UNL     1      20.460  -1.416  54.160  1.00  0.00     0.001 A 
HETATM   24  C17 UNL     1      21.588  -1.245  54.967  1.00  0.00     0.001 A 
HETATM   25  C18 UNL     1      22.674  -0.468  54.564  1.00  0.00     0.014 A 
HETATM   26  C19 UNL     1      22.615   0.135  53.336  1.00  0.00    -0.000 A 
HETATM   27  H8  UNL     1      28.955  -3.963  52.886  1.00  0.00     0.190 HD
HETATM   28  H9  UNL     1      26.533  -3.494  52.129  1.00  0.00     0.205 HD
ENDROOT
TORSDOF 0
ENDMDL
MODEL 2
REMARK VINA RESULT:     -10.7      3.384      5.510
REMARK  0 active torsions:
REMARK  status: ('A' for Active; 'I' for Inactive)
ROOT
HETATM    1  C1  UNL     1      24.912  -0.971  55.097  1.00  0.00     0.043 C 
HETATM    2  C2  UNL     1      24.851  -0.162  54.024  1.00  0.00    -0.049 C 
HETATM    3  C3  UNL     1      25.997   0.519  53.456  1.00  0.00     0.004 C 
HETATM    4  C4  UNL     1      26.679   1.315  52.605  1.00  0.00    -0.025 C 
HETATM    5  C5  UNL     1      26.667   2.195  51.448  1.00  0.00     0.049 C 
HETATM    6  C6  UNL     1      25.357   2.417  50.762  1.00  0.00     0.155 C 
HETATM    7  C7  UNL     1      25.305   3.887  50.397  1.00  0.00     0.257 C 
HETATM    8  O1  UNL     1      26.078   4.171  49.427  1.00  0.00    -0.271 OA
HETATM    9  N1  UNL     1      24.515   4.897  51.011  1.00  0.00    -0.084 N 
HETATM   10  C8  UNL     1      24.501   6.306  50.830  1.00  0.00     0.216 A 
HETATM   11  S1  UNL     1      25.410   7.228  49.837  1.00  0.00    -0.038 SA
HETATM   12  N2  UNL     1      23.477   6.742  51.746  1.00  0.00    -0.261 N 
HETATM   13  N3  UNL     1      22.924   5.632  52.425  1.00  0.00    -0.127 N 
HETATM   14  C9  UNL     1      23.564   4.468  51.975  1.00  0.00     0.732 A 
HETATM   15  N4  UNL     1      23.411   3.225  52.292  1.00  0.00    -0.046 NA
HETATM   16  C10 UNL     1      24.208   2.223  51.671  1.00  0.00     0.159 C 
HETATM   17  N5  UNL     1      24.109   0.920  51.761  1.00  0.00    -0.231 NA
HETATM   18  C11 UNL     1      23.092   0.334  52.568  1.00  0.00     0.076 A 
HETATM   19  C12 UNL     1      23.439  -0.208  53.695  1.00  0.00    -0.018 A 
HETATM   20  C13 UNL     1      22.160  -0.683  54.230  1.00  0.00     0.081 A 
HETATM   21  C14 UNL     1      21.108  -0.335  53.260  1.00  0.00    -0.041 A 
HETATM   22  C15 UNL     1      19.769  -0.605  53.380  1.00  0.00     0.008 A 
HETATM   23  C16 UNL     1      18.952  -0.175  52.328  1.00  0.00     0.001 A 
HETATM   24  C17 UNL     1      19.529   0.487  51.241  1.00  0.00     0.001 A 
HETATM   25  C18 UNL     1      20.900   0.734  51.170  1.00  0.00     0.014 A 
HETATM   26  C19 UNL     1      21.687   0.310  52.206  1.00  0.00    -0.000 A 
HETATM   27  H8  UNL     1      23.167   7.720  51.907  1.00  0.00     0.190 HD
HETATM   28  H9  UNL     1      22.168   5.684  53.138  1.00  0.00     0.205 HD
ENDROOT
TORSDOF 0
ENDMDL
MODEL 3
REMARK VINA RESULT:     -10.3      4.080      6.304
REMARK  0 active torsions:
REMARK  status: ('A' for Active; 'I' for Inactive)
ROOT
HETATM    1  C1  UNL     1      27.004   0.517  53.175  1.00  0.00     0.043 C 
HETATM    2  C2  UNL     1      26.157   1.131  52.330  1.00  0.00    -0.049 C 
HETATM    3  C3  UNL     1      26.574   2.041  51.281  1.00  0.00     0.004 C 
HETATM    4  C4  UNL     1      26.439   2.888  50.240  1.00  0.00    -0.025 C 
HETATM    5  C5  UNL     1      25.566   3.575  49.301  1.00  0.00     0.049 C 
HETATM    6  C6  UNL     1      24.098   3.317  49.408  1.00  0.00     0.155 C 
HETATM    7  C7  UNL     1      23.409   4.649  49.195  1.00  0.00     0.257 C 
HETATM    8  O1  UNL     1      23.448   5.024  47.979  1.00  0.00    -0.271 OA
HETATM    9  N1  UNL     1      22.769   5.454  50.177  1.00  0.00    -0.084 N 
HETATM   10  C8  UNL     1      22.223   6.763  50.098  1.00  0.00     0.216 A 
HETATM   11  S1  UNL     1      22.159   7.779  48.822  1.00  0.00    -0.038 SA
HETATM   12  N2  UNL     1      21.729   6.992  51.433  1.00  0.00    -0.261 N 
HETATM   13  N3  UNL     1      21.978   5.862  52.247  1.00  0.00    -0.127 N 
HETATM   14  C9  UNL     1      22.630   4.889  51.474  1.00  0.00     0.732 A 
HETATM   15  N4  UNL     1      23.058   3.705  51.764  1.00  0.00    -0.046 NA
HETATM   16  C10 UNL     1      23.698   2.911  50.772  1.00  0.00     0.159 C 
HETATM   17  N5  UNL     1      24.073   1.657  50.838  1.00  0.00    -0.231 NA
HETATM   18  C11 UNL     1      23.851   0.906  52.027  1.00  0.00     0.076 A 
HETATM   19  C12 UNL     1      24.871   0.634  52.782  1.00  0.00    -0.018 A 
HETATM   20  C13 UNL     1      24.265  -0.123  53.880  1.00  0.00     0.081 A 
HETATM   21  C14 UNL     1      22.820  -0.222  53.618  1.00  0.00    -0.041 A 
HETATM   22  C15 UNL     1      21.891  -0.854  54.404  1.00  0.00     0.008 A 
HETATM   23  C16 UNL     1      20.567  -0.816  53.952  1.00  0.00     0.001 A 
HETATM   24  C17 UNL     1      20.271  -0.156  52.757  1.00  0.00     0.001 A 
HETATM   25  C18 UNL     1      21.256   0.470  51.995  1.00  0.00     0.014 A 
HETATM   26  C19 UNL     1      22.547   0.427  52.449  1.00  0.00    -0.000 A 
HETATM   27  H8  UNL     1      21.255   7.848  51.778  1.00  0.00     0.190 HD
HETATM   28  H9  UNL     1      21.717   5.779  53.250  1.00  0.00     0.205 HD
ENDROOT
TORSDOF 0
ENDMDL
MODEL 4
REMARK VINA RESULT:      -9.7      4.850      7.975
REMARK  0 active torsions:
REMARK  status: ('A' for Active; 'I' for Inactive)
ROOT
HETATM    1  C1  UNL     1      25.676   0.121  52.592  1.00  0.00     0.043 C 
HETATM    2  C2  UNL     1      24.608   0.915  52.395  1.00  0.00    -0.049 C 
HETATM    3  C3  UNL     1      23.299   0.672  52.968  1.00  0.00     0.004 C 
HETATM    4  C4  UNL     1      21.994   0.890  53.233  1.00  0.00    -0.025 C 
HETATM    5  C5  UNL     1      20.811   1.716  53.052  1.00  0.00     0.049 C 
HETATM    6  C6  UNL     1      20.947   2.943  52.209  1.00  0.00     0.155 C 
HETATM    7  C7  UNL     1      19.686   3.033  51.373  1.00  0.00     0.257 C 
HETATM    8  O1  UNL     1      18.676   3.386  52.061  1.00  0.00    -0.271 OA
HETATM    9  N1  UNL     1      19.557   2.773  49.981  1.00  0.00    -0.084 N 
HETATM   10  C8  UNL     1      18.407   2.699  49.150  1.00  0.00     0.216 A 
HETATM   11  S1  UNL     1      16.835   2.896  49.544  1.00  0.00    -0.038 SA
HETATM   12  N2  UNL     1      18.960   2.405  47.852  1.00  0.00    -0.261 N 
HETATM   13  N3  UNL     1      20.369   2.313  47.931  1.00  0.00    -0.127 N 
HETATM   14  C9  UNL     1      20.759   2.541  49.259  1.00  0.00     0.732 A 
HETATM   15  N4  UNL     1      21.921   2.562  49.824  1.00  0.00    -0.046 NA
HETATM   16  C10 UNL     1      22.037   2.824  51.218  1.00  0.00     0.159 C 
HETATM   17  N5  UNL     1      23.119   3.015  51.931  1.00  0.00    -0.231 NA
HETATM   18  C11 UNL     1      24.401   2.975  51.313  1.00  0.00     0.076 A 
HETATM   19  C12 UNL     1      25.155   1.942  51.529  1.00  0.00    -0.018 A 
HETATM   20  C13 UNL     1      26.353   2.250  50.743  1.00  0.00     0.081 A 
HETATM   21  C14 UNL     1      26.146   3.556  50.096  1.00  0.00    -0.041 A 
HETATM   22  C15 UNL     1      27.031   4.207  49.275  1.00  0.00     0.008 A 
HETATM   23  C16 UNL     1      26.615   5.444  48.771  1.00  0.00     0.001 A 
HETATM   24  C17 UNL     1      25.355   5.936  49.122  1.00  0.00     0.001 A 
HETATM   25  C18 UNL     1      24.494   5.232  49.963  1.00  0.00     0.014 A 
HETATM   26  C19 UNL     1      24.913   4.022  50.448  1.00  0.00    -0.000 A 
HETATM   27  H8  UNL     1      18.431   2.274  46.969  1.00  0.00     0.190 HD
HETATM   28  H9  UNL     1      21.001   2.110  47.130  1.00  0.00     0.205 HD
ENDROOT
TORSDOF 0
ENDMDL
MODEL 5
REMARK VINA RESULT:      -9.7      3.990      6.506
REMARK  0 active torsions:
REMARK  status: ('A' for Active; 'I' for Inactive)
ROOT
HETATM    1  C1  UNL     1      22.660  -0.781  52.734  1.00  0.00     0.043 C 
HETATM    2  C2  UNL     1      23.067   0.500  52.697  1.00  0.00    -0.049 C 
HETATM    3  C3  UNL     1      22.191   1.623  52.425  1.00  0.00     0.004 C 
HETATM    4  C4  UNL     1      21.837   2.912  52.240  1.00  0.00    -0.025 C 
HETATM    5  C5  UNL     1      22.226   4.313  52.192  1.00  0.00     0.049 C 
HETATM    6  C6  UNL     1      23.660   4.641  52.460  1.00  0.00     0.155 C 
HETATM    7  C7  UNL     1      24.045   5.726  51.474  1.00  0.00     0.257 C 
HETATM    8  O1  UNL     1      23.533   6.852  51.772  1.00  0.00    -0.271 OA
HETATM    9  N1  UNL     1      24.875   5.591  50.327  1.00  0.00    -0.084 N 
HETATM   10  C8  UNL     1      25.177   6.506  49.284  1.00  0.00     0.216 A 
HETATM   11  S1  UNL     1      24.654   8.036  49.070  1.00  0.00    -0.038 SA
HETATM   12  N2  UNL     1      26.072   5.754  48.440  1.00  0.00    -0.261 N 
HETATM   13  N3  UNL     1      26.277   4.461  48.974  1.00  0.00    -0.127 N 
HETATM   14  C9  UNL     1      25.533   4.343  50.158  1.00  0.00     0.732 A 
HETATM   15  N4  UNL     1      25.396   3.368  50.995  1.00  0.00    -0.046 NA
HETATM   16  C10 UNL     1      24.563   3.516  52.138  1.00  0.00     0.159 C 
HETATM   17  N5  UNL     1      24.406   2.702  53.153  1.00  0.00    -0.231 NA
HETATM   18  C11 UNL     1      25.129   1.475  53.205  1.00  0.00     0.076 A 
HETATM   19  C12 UNL     1      24.483   0.372  52.981  1.00  0.00    -0.018 A 
HETATM   20  C13 UNL     1      25.531  -0.644  53.111  1.00  0.00     0.081 A 
HETATM   21  C14 UNL     1      26.793   0.045  53.429  1.00  0.00    -0.041 A 
HETATM   22  C15 UNL     1      28.014  -0.544  53.633  1.00  0.00     0.008 A 
HETATM   23  C16 UNL     1      29.078   0.316  53.923  1.00  0.00     0.001 A 
HETATM   24  C17 UNL     1      28.846   1.693  53.988  1.00  0.00     0.001 A 
HETATM   25  C18 UNL     1      27.581   2.240  53.773  1.00  0.00     0.014 A 
HETATM   26  C19 UNL     1      26.549   1.387  53.489  1.00  0.00    -0.000 A 
HETATM   27  H8  UNL     1      26.518   6.083  47.562  1.00  0.00     0.190 HD
HETATM   28  H9  UNL     1      26.882   3.728  48.551  1.00  0.00     0.205 HD
ENDROOT
TORSDOF 0
ENDMDL
MODEL 6
REMARK VINA RESULT:      -9.5      4.269      6.144
REMARK  0 active torsions:
REMARK  status: ('A' for Active; 'I' for Inactive)
ROOT
HETATM    1  C1  UNL     1      20.882   0.585  51.607  1.00  0.00     0.043 C 
HETATM    2  C2  UNL     1      21.642   1.689  51.722  1.00  0.00    -0.049 C 
HETATM    3  C3  UNL     1      21.223   3.010  51.296  1.00  0.00     0.004 C 
HETATM    4  C4  UNL     1      21.317   4.340  51.086  1.00  0.00    -0.025 C 
HETATM    5  C5  UNL     1      22.097   5.563  51.189  1.00  0.00     0.049 C 
HETATM    6  C6  UNL     1      23.456   5.465  51.804  1.00  0.00     0.155 C 
HETATM    7  C7  UNL     1      24.365   6.358  50.984  1.00  0.00     0.257 C 
HETATM    8  O1  UNL     1      24.149   7.593  51.198  1.00  0.00    -0.271 OA
HETATM    9  N1  UNL     1      25.369   5.950  50.063  1.00  0.00    -0.084 N 
HETATM   10  C8  UNL     1      26.166   6.703  49.160  1.00  0.00     0.216 A 
HETATM   11  S1  UNL     1      26.179   8.313  48.892  1.00  0.00    -0.038 SA
HETATM   12  N2  UNL     1      26.977   5.696  48.523  1.00  0.00    -0.261 N 
HETATM   13  N3  UNL     1      26.661   4.417  49.036  1.00  0.00    -0.127 N 
HETATM   14  C9  UNL     1      25.655   4.559  50.003  1.00  0.00     0.732 A 
HETATM   15  N4  UNL     1      25.043   3.694  50.742  1.00  0.00    -0.046 NA
HETATM   16  C10 UNL     1      24.041   4.115  51.660  1.00  0.00     0.159 C 
HETATM   17  N5  UNL     1      23.415   3.414  52.573  1.00  0.00    -0.231 NA
HETATM   18  C11 UNL     1      23.714   2.032  52.745  1.00  0.00     0.076 A 
HETATM   19  C12 UNL     1      22.848   1.160  52.328  1.00  0.00    -0.018 A 
HETATM   20  C13 UNL     1      23.491  -0.114  52.661  1.00  0.00     0.081 A 
HETATM   21  C14 UNL     1      24.784   0.185  53.299  1.00  0.00    -0.041 A 
HETATM   22  C15 UNL     1      25.694  -0.730  53.763  1.00  0.00     0.008 A 
HETATM   23  C16 UNL     1      26.861  -0.211  54.333  1.00  0.00     0.001 A 
HETATM   24  C17 UNL     1      27.032   1.174  54.398  1.00  0.00     0.001 A 
HETATM   25  C18 UNL     1      26.072   2.061  53.911  1.00  0.00     0.014 A 
HETATM   26  C19 UNL     1      24.935   1.540  53.355  1.00  0.00    -0.000 A 
HETATM   27  H8  UNL     1      27.696   5.854  47.791  1.00  0.00     0.190 HD
HETATM   28  H9  UNL     1      27.109   3.526  48.739  1.00  0.00     0.205 HD
ENDROOT
TORSDOF 0
ENDMDL
MODEL 7
REMARK VINA RESULT:      -9.4      4.470      7.096
REMARK  0 active torsions:
REMARK  status: ('A' for Active; 'I' for Inactive)
ROOT
HETATM    1  C1  UNL     1      21.286  -1.137  54.230  1.00  0.00     0.043 C 
HETATM    2  C2  UNL     1      21.446   0.008  53.543  1.00  0.00    -0.049 C 
HETATM    3  C3  UNL     1      20.358   0.891  53.171  1.00  0.00     0.004 C 
HETATM    4  C4  UNL     1      19.759   1.969  52.624  1.00  0.00    -0.025 C 
HETATM    5  C5  UNL     1      19.879   3.216  51.885  1.00  0.00     0.049 C 
HETATM    6  C6  UNL     1      21.251   3.647  51.475  1.00  0.00     0.155 C 
HETATM    7  C7  UNL     1      21.127   4.204  50.072  1.00  0.00     0.257 C 
HETATM    8  O1  UNL     1      20.556   5.342  50.053  1.00  0.00    -0.271 OA
HETATM    9  N1  UNL     1      21.567   3.598  48.864  1.00  0.00    -0.084 N 
HETATM   10  C8  UNL     1      21.375   3.976  47.508  1.00  0.00     0.216 A 
HETATM   11  S1  UNL     1      20.569   5.257  46.898  1.00  0.00    -0.038 SA
HETATM   12  N2  UNL     1      22.073   2.945  46.780  1.00  0.00    -0.261 N 
HETATM   13  N3  UNL     1      22.642   2.013  47.678  1.00  0.00    -0.127 N 
HETATM   14  C9  UNL     1      22.335   2.408  48.988  1.00  0.00     0.732 A 
HETATM   15  N4  UNL     1      22.627   1.889  50.135  1.00  0.00    -0.046 NA
HETATM   16  C10 UNL     1      22.179   2.505  51.337  1.00  0.00     0.159 C 
HETATM   17  N5  UNL     1      22.482   2.208  52.576  1.00  0.00    -0.231 NA
HETATM   18  C11 UNL     1      23.375   1.134  52.856  1.00  0.00     0.076 A 
HETATM   19  C12 UNL     1      22.882   0.034  53.336  1.00  0.00    -0.018 A 
HETATM   20  C13 UNL     1      24.069  -0.812  53.484  1.00  0.00     0.081 A 
HETATM   21  C14 UNL     1      25.236  -0.036  53.033  1.00  0.00    -0.041 A 
HETATM   22  C15 UNL     1      26.539  -0.463  53.012  1.00  0.00     0.008 A 
HETATM   23  C16 UNL     1      27.485   0.452  52.538  1.00  0.00     0.001 A 
HETATM   24  C17 UNL     1      27.063   1.718  52.124  1.00  0.00     0.001 A 
HETATM   25  C18 UNL     1      25.723   2.102  52.168  1.00  0.00     0.014 A 
HETATM   26  C19 UNL     1      24.808   1.196  52.633  1.00  0.00    -0.000 A 
HETATM   27  H8  UNL     1      22.162   2.869  45.749  1.00  0.00     0.190 HD
HETATM   28  H9  UNL     1      23.196   1.177  47.400  1.00  0.00     0.205 HD
ENDROOT
TORSDOF 0
ENDMDL
MODEL 8
REMARK VINA RESULT:      -9.0      6.113      8.497
REMARK  0 active torsions:
REMARK  status: ('A' for Active; 'I' for Inactive)
ROOT
HETATM    1  C1  UNL     1      23.653   3.316  51.636  1.00  0.00     0.043 C 
HETATM    2  C2  UNL     1      24.350   4.087  50.783  1.00  0.00    -0.049 C 
HETATM    3  C3  UNL     1      25.673   3.760  50.289  1.00  0.00     0.004 C 
HETATM    4  C4  UNL     1      26.815   3.914  49.587  1.00  0.00    -0.025 C 
HETATM    5  C5  UNL     1      27.608   4.711  48.664  1.00  0.00     0.049 C 
HETATM    6  C6  UNL     1      27.008   5.983  48.157  1.00  0.00     0.155 C 
HETATM    7  C7  UNL     1      28.123   7.008  48.140  1.00  0.00     0.257 C 
HETATM    8  O1  UNL     1      28.954   6.802  47.199  1.00  0.00    -0.271 OA
HETATM    9  N1  UNL     1      28.299   8.103  49.030  1.00  0.00    -0.084 N 
HETATM   10  C8  UNL     1      29.371   9.024  49.174  1.00  0.00     0.216 A 
HETATM   11  S1  UNL     1      30.772   9.114  48.343  1.00  0.00    -0.038 SA
HETATM   12  N2  UNL     1      28.926   9.877  50.248  1.00  0.00    -0.261 N 
HETATM   13  N3  UNL     1      27.651   9.467  50.702  1.00  0.00    -0.127 N 
HETATM   14  C9  UNL     1      27.244   8.356  49.949  1.00  0.00     0.732 A 
HETATM   15  N4  UNL     1      26.172   7.636  49.988  1.00  0.00    -0.046 NA
HETATM   16  C10 UNL     1      26.009   6.542  49.092  1.00  0.00     0.159 C 
HETATM   17  N5  UNL     1      24.953   5.792  48.893  1.00  0.00    -0.231 NA
HETATM   18  C11 UNL     1      23.758   6.030  49.629  1.00  0.00     0.076 A 
HETATM   19  C12 UNL     1      23.440   5.197  50.571  1.00  0.00    -0.018 A 
HETATM   20  C13 UNL     1      22.190   5.759  51.089  1.00  0.00     0.081 A 
HETATM   21  C14 UNL     1      21.886   6.974  50.315  1.00  0.00    -0.041 A 
HETATM   22  C15 UNL     1      20.801   7.796  50.482  1.00  0.00     0.008 A 
HETATM   23  C16 UNL     1      20.721   8.900  49.627  1.00  0.00     0.001 A 
HETATM   24  C17 UNL     1      21.723   9.100  48.673  1.00  0.00     0.001 A 
HETATM   25  C18 UNL     1      22.806   8.231  48.545  1.00  0.00     0.014 A 
HETATM   26  C19 UNL     1      22.872   7.155  49.390  1.00  0.00    -0.000 A 
HETATM   27  H8  UNL     1      29.441  10.683  50.651  1.00  0.00     0.190 HD
HETATM   28  H9  UNL     1      27.115   9.922  51.469  1.00  0.00     0.205 HD
ENDROOT
TORSDOF 0
ENDMDL
MODEL 9
REMARK VINA RESULT:      -8.6      5.582      7.387
REMARK  0 active torsions:
REMARK  status: ('A' for Active; 'I' for Inactive)
ROOT
HETATM    1  C1  UNL     1      21.609   3.608  46.357  1.00  0.00     0.043 C 
HETATM    2  C2  UNL     1      22.291   4.511  47.083  1.00  0.00    -0.049 C 
HETATM    3  C3  UNL     1      22.600   5.852  46.627  1.00  0.00     0.004 C 
HETATM    4  C4  UNL     1      23.106   7.102  46.682  1.00  0.00    -0.025 C 
HETATM    5  C5  UNL     1      23.837   8.115  47.427  1.00  0.00     0.049 C 
HETATM    6  C6  UNL     1      24.309   7.757  48.799  1.00  0.00     0.155 C 
HETATM    7  C7  UNL     1      25.699   8.343  48.944  1.00  0.00     0.257 C 
HETATM    8  O1  UNL     1      25.677   9.609  49.074  1.00  0.00    -0.271 OA
HETATM    9  N1  UNL     1      26.933   7.638  48.946  1.00  0.00    -0.084 N 
HETATM   10  C8  UNL     1      28.274   8.107  48.939  1.00  0.00     0.216 A 
HETATM   11  S1  UNL     1      28.830   9.642  48.925  1.00  0.00    -0.038 SA
HETATM   12  N2  UNL     1      29.046   6.890  48.946  1.00  0.00    -0.261 N 
HETATM   13  N3  UNL     1      28.187   5.767  48.957  1.00  0.00    -0.127 N 
HETATM   14  C9  UNL     1      26.859   6.219  48.958  1.00  0.00     0.732 A 
HETATM   15  N4  UNL     1      25.734   5.584  48.966  1.00  0.00    -0.046 NA
HETATM   16  C10 UNL     1      24.505   6.302  48.963  1.00  0.00     0.159 C 
HETATM   17  N5  UNL     1      23.285   5.844  49.103  1.00  0.00    -0.231 NA
HETATM   18  C11 UNL     1      23.060   4.450  49.288  1.00  0.00     0.076 A 
HETATM   19  C12 UNL     1      22.568   3.770  48.298  1.00  0.00    -0.018 A 
HETATM   20  C13 UNL     1      22.488   2.415  48.849  1.00  0.00     0.081 A 
HETATM   21  C14 UNL     1      22.987   2.459  50.234  1.00  0.00    -0.041 A 
HETATM   22  C15 UNL     1      23.077   1.401  51.101  1.00  0.00     0.008 A 
HETATM   23  C16 UNL     1      23.587   1.682  52.373  1.00  0.00     0.001 A 
HETATM   24  C17 UNL     1      23.966   2.991  52.683  1.00  0.00     0.001 A 
HETATM   25  C18 UNL     1      23.853   4.032  51.762  1.00  0.00     0.014 A 
HETATM   26  C19 UNL     1      23.353   3.742  50.521  1.00  0.00    -0.000 A 
HETATM   27  H8  UNL     1      30.081   6.814  48.944  1.00  0.00     0.190 HD
HETATM   28  H9  UNL     1      28.500   4.775  48.965  1.00  0.00     0.205 HD
ENDROOT
TORSDOF 0
ENDMDL
