MODEL 1
REMARK VINA RESULT:      -8.5      0.000      0.000
REMARK  8 active torsions:
REMARK  status: ('A' for Active; 'I' for Inactive)
REMARK    1  A    between atoms: O1_2  and  C2_3 
REMARK    2  A    between atoms: C6_7  and  N1_8 
REMARK    3  A    between atoms: N1_8  and  C7_9 
REMARK    4  A    between atoms: C10_14  and  C11_15 
REMARK    5  A    between atoms: N4_18  and  C14_19 
REMARK    6  A    between atoms: C14_19  and  C15_20 
REMARK    7  A    between atoms: C15_20  and  C16_21 
REMARK    8  A    between atoms: C16_21  and  N5_22 
ROOT
HETATM    1  C11 UNL     1      24.216   3.124  50.104  1.00  0.00     0.093 C 
HETATM    2  C12 UNL     1      24.162   2.519  51.307  1.00  0.00     0.044 C 
HETATM    3  C13 UNL     1      25.306   2.753  52.194  1.00  0.00     0.071 C 
HETATM    4  N4  UNL     1      23.106   1.706  51.794  1.00  0.00    -0.317 N 
HETATM    5  C21 UNL     1      21.998   1.517  50.924  1.00  0.00     0.248 C 
HETATM    6  O3  UNL     1      20.882   1.198  51.332  1.00  0.00    -0.271 OA
HETATM    7  C22 UNL     1      22.260   1.729  49.470  1.00  0.00     0.279 C 
HETATM    8  O4  UNL     1      23.089   2.866  49.289  1.00  0.00    -0.340 OA
ENDROOT
BRANCH   1   9
HETATM    9  C10 UNL     1      25.237   3.965  49.565  1.00  0.00     0.066 C 
HETATM   10  C9  UNL     1      25.836   5.131  49.435  1.00  0.00     0.045 A 
HETATM   11  N3  UNL     1      25.443   6.319  50.059  1.00  0.00    -0.246 NA
HETATM   12  C23 UNL     1      27.046   5.247  48.558  1.00  0.00     0.137 A 
HETATM   13  C8  UNL     1      25.923   7.483  50.042  1.00  0.00     0.235 A 
HETATM   14  N2  UNL     1      27.084   7.609  49.231  1.00  0.00    -0.228 NA
HETATM   15  C7  UNL     1      27.550   6.602  48.599  1.00  0.00     0.111 A 
BRANCH  15  16
HETATM   16  N1  UNL     1      28.703   6.850  47.831  1.00  0.00    -0.344 N 
HETATM   17  H7  UNL     1      28.579   7.342  46.890  1.00  0.00     0.167 HD
BRANCH  16  18
HETATM   18  C6  UNL     1      30.031   6.505  48.180  1.00  0.00     0.036 A 
HETATM   19  C5  UNL     1      30.810   7.372  48.961  1.00  0.00     0.029 A 
HETATM   20  C4  UNL     1      32.107   7.092  49.325  1.00  0.00     0.005 A 
HETATM   21  C3  UNL     1      32.708   5.927  48.933  1.00  0.00     0.037 A 
HETATM   22  C2  UNL     1      31.983   5.031  48.157  1.00  0.00     0.070 A 
HETATM   23  C24 UNL     1      30.691   5.376  47.830  1.00  0.00     0.066 A 
BRANCH  22  24
HETATM   24  O1  UNL     1      32.584   3.847  47.755  1.00  0.00    -0.356 OA
HETATM   25  C1  UNL     1      32.021   3.173  46.643  1.00  0.00     0.210 C 
ENDBRANCH  22  24
ENDBRANCH  16  18
ENDBRANCH  15  16
ENDBRANCH   1   9
BRANCH   4  26
HETATM   26  C14 UNL     1      23.019   1.055  53.061  1.00  0.00     0.134 C 
BRANCH  26  27
HETATM   27  C15 UNL     1      23.694  -0.319  53.045  1.00  0.00     0.050 C 
BRANCH  27  28
HETATM   28  C16 UNL     1      24.287  -0.636  54.407  1.00  0.00     0.274 C 
BRANCH  28  29
HETATM   29  N5  UNL     1      25.712  -0.923  54.331  1.00  0.00     0.092 N 
HETATM   30  C17 UNL     1      26.119  -0.907  52.931  1.00  0.00     0.298 C 
HETATM   31  C18 UNL     1      27.624  -0.753  52.787  1.00  0.00     0.198 C 
HETATM   32  O2  UNL     1      28.246  -0.863  54.016  1.00  0.00    -0.388 OA
HETATM   33  C19 UNL     1      27.851   0.182  54.833  1.00  0.00     0.198 C 
HETATM   34  C20 UNL     1      26.361   0.243  54.949  1.00  0.00     0.298 C 
ENDBRANCH  28  29
ENDBRANCH  27  28
ENDBRANCH  26  27
ENDBRANCH   4  26
TORSDOF 8
ENDMDL
MODEL 2
REMARK VINA RESULT:      -8.1      2.423      9.463
REMARK  8 active torsions:
REMARK  status: ('A' for Active; 'I' for Inactive)
REMARK    1  A    between atoms: O1_2  and  C2_3 
REMARK    2  A    between atoms: C6_7  and  N1_8 
REMARK    3  A    between atoms: N1_8  and  C7_9 
REMARK    4  A    between atoms: C10_14  and  C11_15 
REMARK    5  A    between atoms: N4_18  and  C14_19 
REMARK    6  A    between atoms: C14_19  and  C15_20 
REMARK    7  A    between atoms: C15_20  and  C16_21 
REMARK    8  A    between atoms: C16_21  and  N5_22 
ROOT
HETATM    1  C11 UNL     1      25.972   5.999  49.683  1.00  0.00     0.093 C 
HETATM    2  C12 UNL     1      27.109   5.964  48.961  1.00  0.00     0.044 C 
HETATM    3  C13 UNL     1      27.609   4.629  48.613  1.00  0.00     0.071 C 
HETATM    4  N4  UNL     1      27.845   7.084  48.495  1.00  0.00    -0.317 N 
HETATM    5  C21 UNL     1      27.325   8.366  48.824  1.00  0.00     0.248 C 
HETATM    6  O3  UNL     1      27.602   9.378  48.180  1.00  0.00    -0.271 OA
HETATM    7  C22 UNL     1      26.413   8.422  50.003  1.00  0.00     0.279 C 
HETATM    8  O4  UNL     1      25.535   7.308  49.990  1.00  0.00    -0.340 OA
ENDROOT
BRANCH   1   9
HETATM    9  C10 UNL     1      25.179   4.912  50.163  1.00  0.00     0.066 C 
HETATM   10  C9  UNL     1      24.153   4.426  50.833  1.00  0.00     0.045 A 
HETATM   11  N3  UNL     1      23.199   5.186  51.517  1.00  0.00    -0.246 NA
HETATM   12  C23 UNL     1      23.945   2.944  50.893  1.00  0.00     0.137 A 
HETATM   13  C8  UNL     1      22.173   4.864  52.173  1.00  0.00     0.235 A 
HETATM   14  N2  UNL     1      21.948   3.461  52.225  1.00  0.00    -0.228 NA
HETATM   15  C7  UNL     1      22.745   2.650  51.645  1.00  0.00     0.111 A 
BRANCH  15  16
HETATM   16  N1  UNL     1      22.416   1.287  51.765  1.00  0.00    -0.344 N 
HETATM   17  H7  UNL     1      21.923   0.819  50.940  1.00  0.00     0.167 HD
BRANCH  16  18
HETATM   18  C6  UNL     1      22.671   0.460  52.885  1.00  0.00     0.036 A 
HETATM   19  C5  UNL     1      21.611  -0.065  53.639  1.00  0.00     0.029 A 
HETATM   20  C4  UNL     1      21.798  -0.869  54.739  1.00  0.00     0.005 A 
HETATM   21  C3  UNL     1      23.059  -1.202  55.156  1.00  0.00     0.037 A 
HETATM   22  C2  UNL     1      24.146  -0.710  54.446  1.00  0.00     0.070 A 
HETATM   23  C24 UNL     1      23.885   0.089  53.356  1.00  0.00     0.066 A 
BRANCH  22  24
HETATM   24  O1  UNL     1      25.428  -1.042  54.861  1.00  0.00    -0.356 OA
HETATM   25  C1  UNL     1      26.407  -0.018  54.842  1.00  0.00     0.210 C 
ENDBRANCH  22  24
ENDBRANCH  16  18
ENDBRANCH  15  16
ENDBRANCH   1   9
BRANCH   4  26
HETATM   26  C14 UNL     1      29.049   7.081  47.728  1.00  0.00     0.134 C 
BRANCH  26  27
HETATM   27  C15 UNL     1      30.294   7.045  48.618  1.00  0.00     0.050 C 
BRANCH  27  28
HETATM   28  C16 UNL     1      31.539   7.354  47.805  1.00  0.00     0.274 C 
BRANCH  28  29
HETATM   29  N5  UNL     1      32.751   6.875  48.453  1.00  0.00     0.092 N 
HETATM   30  C17 UNL     1      33.037   5.528  47.974  1.00  0.00     0.298 C 
HETATM   31  C18 UNL     1      34.479   5.133  48.242  1.00  0.00     0.198 C 
HETATM   32  O2  UNL     1      35.103   6.072  49.043  1.00  0.00    -0.388 OA
HETATM   33  C19 UNL     1      35.175   7.281  48.373  1.00  0.00     0.198 C 
HETATM   34  C20 UNL     1      33.823   7.726  47.915  1.00  0.00     0.298 C 
ENDBRANCH  28  29
ENDBRANCH  27  28
ENDBRANCH  26  27
ENDBRANCH   4  26
TORSDOF 8
ENDMDL
MODEL 3
REMARK VINA RESULT:      -8.0      1.942      2.699
REMARK  8 active torsions:
REMARK  status: ('A' for Active; 'I' for Inactive)
REMARK    1  A    between atoms: O1_2  and  C2_3 
REMARK    2  A    between atoms: C6_7  and  N1_8 
REMARK    3  A    between atoms: N1_8  and  C7_9 
REMARK    4  A    between atoms: C10_14  and  C11_15 
REMARK    5  A    between atoms: N4_18  and  C14_19 
REMARK    6  A    between atoms: C14_19  and  C15_20 
REMARK    7  A    between atoms: C15_20  and  C16_21 
REMARK    8  A    between atoms: C16_21  and  N5_22 
ROOT
HETATM    1  C11 UNL     1      25.792   5.272  49.632  1.00  0.00     0.093 C 
HETATM    2  C12 UNL     1      25.492   4.079  50.181  1.00  0.00     0.044 C 
HETATM    3  C13 UNL     1      26.523   3.042  50.064  1.00  0.00     0.071 C 
HETATM    4  N4  UNL     1      24.296   3.745  50.868  1.00  0.00    -0.317 N 
HETATM    5  C21 UNL     1      23.326   4.776  50.989  1.00  0.00     0.248 C 
HETATM    6  O3  UNL     1      22.462   4.773  51.866  1.00  0.00    -0.271 OA
HETATM    7  C22 UNL     1      23.410   5.879  49.988  1.00  0.00     0.279 C 
HETATM    8  O4  UNL     1      24.766   6.235  49.773  1.00  0.00    -0.340 OA
ENDROOT
BRANCH   1   9
HETATM    9  C10 UNL     1      26.979   5.674  48.946  1.00  0.00     0.066 C 
HETATM   10  C9  UNL     1      27.804   6.593  48.487  1.00  0.00     0.045 A 
HETATM   11  N3  UNL     1      27.635   7.974  48.623  1.00  0.00    -0.246 NA
HETATM   12  C23 UNL     1      29.042   6.175  47.754  1.00  0.00     0.137 A 
HETATM   13  C8  UNL     1      28.339   8.953  48.257  1.00  0.00     0.235 A 
HETATM   14  N2  UNL     1      29.529   8.576  47.576  1.00  0.00    -0.228 NA
HETATM   15  C7  UNL     1      29.806   7.345  47.380  1.00  0.00     0.111 A 
BRANCH  15  16
HETATM   16  N1  UNL     1      31.011   7.097  46.697  1.00  0.00    -0.344 N 
HETATM   17  H7  UNL     1      31.020   7.232  45.637  1.00  0.00     0.167 HD
BRANCH  16  18
HETATM   18  C6  UNL     1      32.231   6.676  47.278  1.00  0.00     0.036 A 
HETATM   19  C5  UNL     1      33.101   7.609  47.862  1.00  0.00     0.029 A 
HETATM   20  C4  UNL     1      34.302   7.260  48.436  1.00  0.00     0.005 A 
HETATM   21  C3  UNL     1      34.709   5.953  48.465  1.00  0.00     0.037 A 
HETATM   22  C2  UNL     1      33.886   4.987  47.901  1.00  0.00     0.070 A 
HETATM   23  C24 UNL     1      32.700   5.408  47.344  1.00  0.00     0.066 A 
BRANCH  22  24
HETATM   24  O1  UNL     1      34.291   3.660  47.926  1.00  0.00    -0.356 OA
HETATM   25  C1  UNL     1      33.308   2.671  47.673  1.00  0.00     0.210 C 
ENDBRANCH  22  24
ENDBRANCH  16  18
ENDBRANCH  15  16
ENDBRANCH   1   9
BRANCH   4  26
HETATM   26  C14 UNL     1      23.950   2.494  51.461  1.00  0.00     0.134 C 
BRANCH  26  27
HETATM   27  C15 UNL     1      24.488   2.370  52.890  1.00  0.00     0.050 C 
BRANCH  27  28
HETATM   28  C16 UNL     1      25.346   1.124  53.029  1.00  0.00     0.274 C 
BRANCH  28  29
HETATM   29  N5  UNL     1      26.472   1.331  53.927  1.00  0.00     0.092 N 
HETATM   30  C17 UNL     1      27.041   0.033  54.271  1.00  0.00     0.298 C 
HETATM   31  C18 UNL     1      28.451   0.169  54.823  1.00  0.00     0.198 C 
HETATM   32  O2  UNL     1      28.764   1.497  55.042  1.00  0.00    -0.388 OA
HETATM   33  C19 UNL     1      28.779   2.177  53.836  1.00  0.00     0.198 C 
HETATM   34  C20 UNL     1      27.486   2.006  53.104  1.00  0.00     0.298 C 
ENDBRANCH  28  29
ENDBRANCH  27  28
ENDBRANCH  26  27
ENDBRANCH   4  26
TORSDOF 8
ENDMDL
MODEL 4
REMARK VINA RESULT:      -7.8      2.455      3.990
REMARK  8 active torsions:
REMARK  status: ('A' for Active; 'I' for Inactive)
REMARK    1  A    between atoms: O1_2  and  C2_3 
REMARK    2  A    between atoms: C6_7  and  N1_8 
REMARK    3  A    between atoms: N1_8  and  C7_9 
REMARK    4  A    between atoms: C10_14  and  C11_15 
REMARK    5  A    between atoms: N4_18  and  C14_19 
REMARK    6  A    between atoms: C14_19  and  C15_20 
REMARK    7  A    between atoms: C15_20  and  C16_21 
REMARK    8  A    between atoms: C16_21  and  N5_22 
ROOT
HETATM    1  C11 UNL     1      26.522   5.561  48.732  1.00  0.00     0.093 C 
HETATM    2  C12 UNL     1      25.859   4.482  49.193  1.00  0.00     0.044 C 
HETATM    3  C13 UNL     1      26.682   3.312  49.516  1.00  0.00     0.071 C 
HETATM    4  N4  UNL     1      24.460   4.383  49.410  1.00  0.00    -0.317 N 
HETATM    5  C21 UNL     1      23.689   5.540  49.113  1.00  0.00     0.248 C 
HETATM    6  O3  UNL     1      22.582   5.744  49.610  1.00  0.00    -0.271 OA
HETATM    7  C22 UNL     1      24.300   6.510  48.157  1.00  0.00     0.279 C 
HETATM    8  O4  UNL     1      25.682   6.659  48.437  1.00  0.00    -0.340 OA
ENDROOT
BRANCH   1   9
HETATM    9  C10 UNL     1      27.924   5.727  48.510  1.00  0.00     0.066 C 
HETATM   10  C9  UNL     1      28.948   6.308  47.919  1.00  0.00     0.045 A 
HETATM   11  N3  UNL     1      28.862   7.329  46.968  1.00  0.00    -0.246 NA
HETATM   12  C23 UNL     1      30.341   5.876  48.261  1.00  0.00     0.137 A 
HETATM   13  C8  UNL     1      29.741   7.980  46.343  1.00  0.00     0.235 A 
HETATM   14  N2  UNL     1      31.071   7.598  46.669  1.00  0.00    -0.228 NA
HETATM   15  C7  UNL     1      31.295   6.674  47.521  1.00  0.00     0.111 A 
BRANCH  15  16
HETATM   16  N1  UNL     1      32.650   6.387  47.762  1.00  0.00    -0.344 N 
HETATM   17  H7  UNL     1      33.148   6.939  48.531  1.00  0.00     0.167 HD
BRANCH  16  18
HETATM   18  C6  UNL     1      33.438   5.429  47.079  1.00  0.00     0.036 A 
HETATM   19  C5  UNL     1      34.096   4.413  47.786  1.00  0.00     0.029 A 
HETATM   20  C4  UNL     1      34.879   3.459  47.177  1.00  0.00     0.005 A 
HETATM   21  C3  UNL     1      35.052   3.460  45.819  1.00  0.00     0.037 A 
HETATM   22  C2  UNL     1      34.422   4.444  45.068  1.00  0.00     0.070 A 
HETATM   23  C24 UNL     1      33.655   5.366  45.744  1.00  0.00     0.066 A 
BRANCH  22  24
HETATM   24  O1  UNL     1      34.591   4.453  43.691  1.00  0.00    -0.356 OA
HETATM   25  C1  UNL     1      34.799   5.707  43.065  1.00  0.00     0.210 C 
ENDBRANCH  22  24
ENDBRANCH  16  18
ENDBRANCH  15  16
ENDBRANCH   1   9
BRANCH   4  26
HETATM   26  C14 UNL     1      23.729   3.259  49.898  1.00  0.00     0.134 C 
BRANCH  26  27
HETATM   27  C15 UNL     1      23.832   3.128  51.420  1.00  0.00     0.050 C 
BRANCH  27  28
HETATM   28  C16 UNL     1      24.045   1.676  51.816  1.00  0.00     0.274 C 
BRANCH  28  29
HETATM   29  N5  UNL     1      24.800   1.551  53.054  1.00  0.00     0.092 N 
HETATM   30  C17 UNL     1      24.847   0.144  53.433  1.00  0.00     0.298 C 
HETATM   31  C18 UNL     1      25.958  -0.129  54.433  1.00  0.00     0.198 C 
HETATM   32  O2  UNL     1      26.517   1.054  54.879  1.00  0.00    -0.388 OA
HETATM   33  C19 UNL     1      27.130   1.705  53.823  1.00  0.00     0.198 C 
HETATM   34  C20 UNL     1      26.178   1.913  52.689  1.00  0.00     0.298 C 
ENDBRANCH  28  29
ENDBRANCH  27  28
ENDBRANCH  26  27
ENDBRANCH   4  26
TORSDOF 8
ENDMDL
MODEL 5
REMARK VINA RESULT:      -7.7      3.066      9.873
REMARK  8 active torsions:
REMARK  status: ('A' for Active; 'I' for Inactive)
REMARK    1  A    between atoms: O1_2  and  C2_3 
REMARK    2  A    between atoms: C6_7  and  N1_8 
REMARK    3  A    between atoms: N1_8  and  C7_9 
REMARK    4  A    between atoms: C10_14  and  C11_15 
REMARK    5  A    between atoms: N4_18  and  C14_19 
REMARK    6  A    between atoms: C14_19  and  C15_20 
REMARK    7  A    between atoms: C15_20  and  C16_21 
REMARK    8  A    between atoms: C16_21  and  N5_22 
ROOT
HETATM    1  C11 UNL     1      25.307   5.599  48.955  1.00  0.00     0.093 C 
HETATM    2  C12 UNL     1      26.595   5.729  48.583  1.00  0.00     0.044 C 
HETATM    3  C13 UNL     1      27.471   4.594  48.891  1.00  0.00     0.071 C 
HETATM    4  N4  UNL     1      27.169   6.840  47.912  1.00  0.00    -0.317 N 
HETATM    5  C21 UNL     1      26.292   7.916  47.603  1.00  0.00     0.248 C 
HETATM    6  O3  UNL     1      26.529   8.726  46.706  1.00  0.00    -0.271 OA
HETATM    7  C22 UNL     1      25.053   8.013  48.428  1.00  0.00     0.279 C 
HETATM    8  O4  UNL     1      24.507   6.720  48.635  1.00  0.00    -0.340 OA
ENDROOT
BRANCH   1   9
HETATM    9  C10 UNL     1      24.668   4.504  49.614  1.00  0.00     0.066 C 
HETATM   10  C9  UNL     1      23.790   4.007  50.462  1.00  0.00     0.045 A 
HETATM   11  N3  UNL     1      22.906   4.755  51.245  1.00  0.00    -0.246 NA
HETATM   12  C23 UNL     1      23.690   2.522  50.637  1.00  0.00     0.137 A 
HETATM   13  C8  UNL     1      22.015   4.422  52.070  1.00  0.00     0.235 A 
HETATM   14  N2  UNL     1      21.891   3.014  52.235  1.00  0.00    -0.228 NA
HETATM   15  C7  UNL     1      22.640   2.212  51.583  1.00  0.00     0.111 A 
BRANCH  15  16
HETATM   16  N1  UNL     1      22.422   0.845  51.829  1.00  0.00    -0.344 N 
HETATM   17  H7  UNL     1      21.912   0.278  51.079  1.00  0.00     0.167 HD
BRANCH  16  18
HETATM   18  C6  UNL     1      22.811   0.129  52.987  1.00  0.00     0.036 A 
HETATM   19  C5  UNL     1      21.850  -0.501  53.792  1.00  0.00     0.029 A 
HETATM   20  C4  UNL     1      22.169  -1.204  54.931  1.00  0.00     0.005 A 
HETATM   21  C3  UNL     1      23.470  -1.324  55.337  1.00  0.00     0.037 A 
HETATM   22  C2  UNL     1      24.464  -0.720  54.577  1.00  0.00     0.070 A 
HETATM   23  C24 UNL     1      24.073  -0.032  53.451  1.00  0.00     0.066 A 
BRANCH  22  24
HETATM   24  O1  UNL     1      25.786  -0.837  54.982  1.00  0.00    -0.356 OA
HETATM   25  C1  UNL     1      26.745  -0.030  54.321  1.00  0.00     0.210 C 
ENDBRANCH  22  24
ENDBRANCH  16  18
ENDBRANCH  15  16
ENDBRANCH   1   9
BRANCH   4  26
HETATM   26  C14 UNL     1      28.526   7.008  47.503  1.00  0.00     0.134 C 
BRANCH  26  27
HETATM   27  C15 UNL     1      29.358   7.730  48.566  1.00  0.00     0.050 C 
BRANCH  27  28
HETATM   28  C16 UNL     1      30.303   8.726  47.915  1.00  0.00     0.274 C 
BRANCH  28  29
HETATM   29  N5  UNL     1      30.317  10.004  48.612  1.00  0.00     0.092 N 
HETATM   30  C17 UNL     1      31.229  10.906  47.918  1.00  0.00     0.298 C 
HETATM   31  C18 UNL     1      30.975  12.356  48.293  1.00  0.00     0.198 C 
HETATM   32  O2  UNL     1      30.078  12.440  49.341  1.00  0.00    -0.388 OA
HETATM   33  C19 UNL     1      28.848  11.948  48.941  1.00  0.00     0.198 C 
HETATM   34  C20 UNL     1      28.971  10.558  48.403  1.00  0.00     0.298 C 
ENDBRANCH  28  29
ENDBRANCH  27  28
ENDBRANCH  26  27
ENDBRANCH   4  26
TORSDOF 8
ENDMDL
MODEL 6
REMARK VINA RESULT:      -7.6      2.169      2.896
REMARK  8 active torsions:
REMARK  status: ('A' for Active; 'I' for Inactive)
REMARK    1  A    between atoms: O1_2  and  C2_3 
REMARK    2  A    between atoms: C6_7  and  N1_8 
REMARK    3  A    between atoms: N1_8  and  C7_9 
REMARK    4  A    between atoms: C10_14  and  C11_15 
REMARK    5  A    between atoms: N4_18  and  C14_19 
REMARK    6  A    between atoms: C14_19  and  C15_20 
REMARK    7  A    between atoms: C15_20  and  C16_21 
REMARK    8  A    between atoms: C16_21  and  N5_22 
ROOT
HETATM    1  C11 UNL     1      23.226   3.213  50.843  1.00  0.00     0.093 C 
HETATM    2  C12 UNL     1      23.247   2.459  51.959  1.00  0.00     0.044 C 
HETATM    3  C13 UNL     1      24.128   2.927  53.034  1.00  0.00     0.071 C 
HETATM    4  N4  UNL     1      22.489   1.282  52.194  1.00  0.00    -0.317 N 
HETATM    5  C21 UNL     1      21.624   0.865  51.146  1.00  0.00     0.248 C 
HETATM    6  O3  UNL     1      20.648   0.142  51.342  1.00  0.00    -0.271 OA
HETATM    7  C22 UNL     1      21.962   1.358  49.779  1.00  0.00     0.279 C 
HETATM    8  O4  UNL     1      22.362   2.717  49.840  1.00  0.00    -0.340 OA
ENDROOT
BRANCH   1   9
HETATM    9  C10 UNL     1      23.948   4.411  50.554  1.00  0.00     0.066 C 
HETATM   10  C9  UNL     1      24.229   5.445  49.787  1.00  0.00     0.045 A 
HETATM   11  N3  UNL     1      23.631   5.727  48.555  1.00  0.00    -0.246 NA
HETATM   12  C23 UNL     1      25.266   6.432  50.227  1.00  0.00     0.137 A 
HETATM   13  C8  UNL     1      23.783   6.671  47.735  1.00  0.00     0.235 A 
HETATM   14  N2  UNL     1      24.750   7.630  48.146  1.00  0.00    -0.228 NA
HETATM   15  C7  UNL     1      25.376   7.494  49.250  1.00  0.00     0.111 A 
BRANCH  15  16
HETATM   16  N1  UNL     1      26.306   8.506  49.548  1.00  0.00    -0.344 N 
HETATM   17  H7  UNL     1      25.955   9.364  50.081  1.00  0.00     0.167 HD
BRANCH  16  18
HETATM   18  C6  UNL     1      27.680   8.509  49.206  1.00  0.00     0.036 A 
HETATM   19  C5  UNL     1      28.228   7.462  48.449  1.00  0.00     0.029 A 
HETATM   20  C4  UNL     1      29.556   7.409  48.093  1.00  0.00     0.005 A 
HETATM   21  C3  UNL     1      30.422   8.400  48.470  1.00  0.00     0.037 A 
HETATM   22  C2  UNL     1      29.933   9.461  49.221  1.00  0.00     0.070 A 
HETATM   23  C24 UNL     1      28.594   9.449  49.542  1.00  0.00     0.066 A 
BRANCH  22  24
HETATM   24  O1  UNL     1      30.803  10.470  49.607  1.00  0.00    -0.356 OA
HETATM   25  C1  UNL     1      30.883  11.617  48.779  1.00  0.00     0.210 C 
ENDBRANCH  22  24
ENDBRANCH  16  18
ENDBRANCH  15  16
ENDBRANCH   1   9
BRANCH   4  26
HETATM   26  C14 UNL     1      22.486   0.465  53.364  1.00  0.00     0.134 C 
BRANCH  26  27
HETATM   27  C15 UNL     1      23.554  -0.631  53.298  1.00  0.00     0.050 C 
BRANCH  27  28
HETATM   28  C16 UNL     1      24.300  -0.726  54.618  1.00  0.00     0.274 C 
BRANCH  28  29
HETATM   29  N5  UNL     1      25.723  -0.965  54.428  1.00  0.00     0.092 N 
HETATM   30  C17 UNL     1      26.022  -0.903  53.002  1.00  0.00     0.298 C 
HETATM   31  C18 UNL     1      27.506  -0.697  52.749  1.00  0.00     0.198 C 
HETATM   32  O2  UNL     1      28.223  -0.815  53.925  1.00  0.00    -0.388 OA
HETATM   33  C19 UNL     1      27.858   0.197  54.796  1.00  0.00     0.198 C 
HETATM   34  C20 UNL     1      26.380   0.207  55.025  1.00  0.00     0.298 C 
ENDBRANCH  28  29
ENDBRANCH  27  28
ENDBRANCH  26  27
ENDBRANCH   4  26
TORSDOF 8
ENDMDL
MODEL 7
REMARK VINA RESULT:      -7.6      6.476     12.603
REMARK  8 active torsions:
REMARK  status: ('A' for Active; 'I' for Inactive)
REMARK    1  A    between atoms: O1_2  and  C2_3 
REMARK    2  A    between atoms: C6_7  and  N1_8 
REMARK    3  A    between atoms: N1_8  and  C7_9 
REMARK    4  A    between atoms: C10_14  and  C11_15 
REMARK    5  A    between atoms: N4_18  and  C14_19 
REMARK    6  A    between atoms: C14_19  and  C15_20 
REMARK    7  A    between atoms: C15_20  and  C16_21 
REMARK    8  A    between atoms: C16_21  and  N5_22 
ROOT
HETATM    1  C11 UNL     1      19.863  -0.367  53.364  1.00  0.00     0.093 C 
HETATM    2  C12 UNL     1      20.785   0.571  53.068  1.00  0.00     0.044 C 
HETATM    3  C13 UNL     1      20.280   1.782  52.411  1.00  0.00     0.071 C 
HETATM    4  N4  UNL     1      22.174   0.503  53.346  1.00  0.00    -0.317 N 
HETATM    5  C21 UNL     1      22.632  -0.670  54.006  1.00  0.00     0.248 C 
HETATM    6  O3  UNL     1      23.679  -0.700  54.653  1.00  0.00    -0.271 OA
HETATM    7  C22 UNL     1      21.767  -1.878  53.874  1.00  0.00     0.279 C 
HETATM    8  O4  UNL     1      20.402  -1.512  53.995  1.00  0.00    -0.340 OA
ENDROOT
BRANCH   1   9
HETATM    9  C10 UNL     1      18.455  -0.349  53.127  1.00  0.00     0.066 C 
HETATM   10  C9  UNL     1      17.300  -0.953  52.929  1.00  0.00     0.045 A 
HETATM   11  N3  UNL     1      17.105  -2.336  52.889  1.00  0.00    -0.246 NA
HETATM   12  C23 UNL     1      16.063  -0.132  52.728  1.00  0.00     0.137 A 
HETATM   13  C8  UNL     1      16.073  -3.042  52.729  1.00  0.00     0.235 A 
HETATM   14  N2  UNL     1      14.885  -2.280  52.557  1.00  0.00    -0.228 NA
HETATM   15  C7  UNL     1      14.919  -1.004  52.568  1.00  0.00     0.111 A 
BRANCH  15  16
HETATM   16  N1  UNL     1      13.680  -0.363  52.390  1.00  0.00    -0.344 N 
HETATM   17  H7  UNL     1      13.203  -0.456  51.437  1.00  0.00     0.167 HD
BRANCH  16  18
HETATM   18  C6  UNL     1      12.990   0.409  53.355  1.00  0.00     0.036 A 
HETATM   19  C5  UNL     1      12.442  -0.200  54.494  1.00  0.00     0.029 A 
HETATM   20  C4  UNL     1      11.756   0.498  55.462  1.00  0.00     0.005 A 
HETATM   21  C3  UNL     1      11.576   1.850  55.353  1.00  0.00     0.037 A 
HETATM   22  C2  UNL     1      12.099   2.505  54.245  1.00  0.00     0.070 A 
HETATM   23  C24 UNL     1      12.772   1.745  53.317  1.00  0.00     0.066 A 
BRANCH  22  24
HETATM   24  O1  UNL     1      11.921   3.876  54.127  1.00  0.00    -0.356 OA
HETATM   25  C1  UNL     1      12.704   4.556  53.162  1.00  0.00     0.210 C 
ENDBRANCH  22  24
ENDBRANCH  16  18
ENDBRANCH  15  16
ENDBRANCH   1   9
BRANCH   4  26
HETATM   26  C14 UNL     1      23.173   1.478  53.048  1.00  0.00     0.134 C 
BRANCH  26  27
HETATM   27  C15 UNL     1      23.792   1.257  51.665  1.00  0.00     0.050 C 
BRANCH  27  28
HETATM   28  C16 UNL     1      25.217   1.783  51.630  1.00  0.00     0.274 C 
BRANCH  28  29
HETATM   29  N5  UNL     1      26.051   1.176  52.658  1.00  0.00     0.092 N 
HETATM   30  C17 UNL     1      26.446  -0.156  52.214  1.00  0.00     0.298 C 
HETATM   31  C18 UNL     1      27.646  -0.671  52.991  1.00  0.00     0.198 C 
HETATM   32  O2  UNL     1      27.939   0.167  54.050  1.00  0.00    -0.388 OA
HETATM   33  C19 UNL     1      28.323   1.407  53.570  1.00  0.00     0.198 C 
HETATM   34  C20 UNL     1      27.283   1.979  52.659  1.00  0.00     0.298 C 
ENDBRANCH  28  29
ENDBRANCH  27  28
ENDBRANCH  26  27
ENDBRANCH   4  26
TORSDOF 8
ENDMDL
MODEL 8
REMARK VINA RESULT:      -7.5      2.541      9.215
REMARK  8 active torsions:
REMARK  status: ('A' for Active; 'I' for Inactive)
REMARK    1  A    between atoms: O1_2  and  C2_3 
REMARK    2  A    between atoms: C6_7  and  N1_8 
REMARK    3  A    between atoms: N1_8  and  C7_9 
REMARK    4  A    between atoms: C10_14  and  C11_15 
REMARK    5  A    between atoms: N4_18  and  C14_19 
REMARK    6  A    between atoms: C14_19  and  C15_20 
REMARK    7  A    between atoms: C15_20  and  C16_21 
REMARK    8  A    between atoms: C16_21  and  N5_22 
ROOT
HETATM    1  C11 UNL     1      27.510   6.934  48.247  1.00  0.00     0.093 C 
HETATM    2  C12 UNL     1      28.842   6.944  48.048  1.00  0.00     0.044 C 
HETATM    3  C13 UNL     1      29.553   5.711  48.404  1.00  0.00     0.071 C 
HETATM    4  N4  UNL     1      29.606   8.015  47.516  1.00  0.00    -0.317 N 
HETATM    5  C21 UNL     1      28.889   9.188  47.156  1.00  0.00     0.248 C 
HETATM    6  O3  UNL     1      29.320  10.004  46.342  1.00  0.00    -0.271 OA
HETATM    7  C22 UNL     1      27.568   9.381  47.822  1.00  0.00     0.279 C 
HETATM    8  O4  UNL     1      26.874   8.146  47.889  1.00  0.00    -0.340 OA
ENDROOT
BRANCH   1   9
HETATM    9  C10 UNL     1      26.685   5.887  48.760  1.00  0.00     0.066 C 
HETATM   10  C9  UNL     1      25.711   5.442  49.529  1.00  0.00     0.045 A 
HETATM   11  N3  UNL     1      24.929   6.227  50.381  1.00  0.00    -0.246 NA
HETATM   12  C23 UNL     1      25.373   3.983  49.523  1.00  0.00     0.137 A 
HETATM   13  C8  UNL     1      23.969   5.947  51.147  1.00  0.00     0.235 A 
HETATM   14  N2  UNL     1      23.619   4.568  51.140  1.00  0.00    -0.228 NA
HETATM   15  C7  UNL     1      24.256   3.737  50.409  1.00  0.00     0.111 A 
BRANCH  15  16
HETATM   16  N1  UNL     1      23.817   2.403  50.486  1.00  0.00    -0.344 N 
HETATM   17  H7  UNL     1      23.254   2.015  49.664  1.00  0.00     0.167 HD
BRANCH  16  18
HETATM   18  C6  UNL     1      24.046   1.507  51.558  1.00  0.00     0.036 A 
HETATM   19  C5  UNL     1      22.969   0.961  52.272  1.00  0.00     0.029 A 
HETATM   20  C4  UNL     1      23.130   0.091  53.326  1.00  0.00     0.005 A 
HETATM   21  C3  UNL     1      24.380  -0.291  53.732  1.00  0.00     0.037 A 
HETATM   22  C2  UNL     1      25.484   0.219  53.060  1.00  0.00     0.070 A 
HETATM   23  C24 UNL     1      25.248   1.085  52.016  1.00  0.00     0.066 A 
BRANCH  22  24
HETATM   24  O1  UNL     1      26.755  -0.163  53.465  1.00  0.00    -0.356 OA
HETATM   25  C1  UNL     1      27.199   0.285  54.733  1.00  0.00     0.210 C 
ENDBRANCH  22  24
ENDBRANCH  16  18
ENDBRANCH  15  16
ENDBRANCH   1   9
BRANCH   4  26
HETATM   26  C14 UNL     1      31.015   8.055  47.291  1.00  0.00     0.134 C 
BRANCH  26  27
HETATM   27  C15 UNL     1      31.433   7.161  46.120  1.00  0.00     0.050 C 
BRANCH  27  28
HETATM   28  C16 UNL     1      32.871   6.702  46.288  1.00  0.00     0.274 C 
BRANCH  28  29
HETATM   29  N5  UNL     1      32.994   5.253  46.227  1.00  0.00     0.092 N 
HETATM   30  C17 UNL     1      34.284   4.917  45.634  1.00  0.00     0.298 C 
HETATM   31  C18 UNL     1      34.681   3.482  45.934  1.00  0.00     0.198 C 
HETATM   32  O2  UNL     1      33.635   2.798  46.525  1.00  0.00    -0.388 OA
HETATM   33  C19 UNL     1      33.348   3.361  47.757  1.00  0.00     0.198 C 
HETATM   34  C20 UNL     1      33.077   4.827  47.632  1.00  0.00     0.298 C 
ENDBRANCH  28  29
ENDBRANCH  27  28
ENDBRANCH  26  27
ENDBRANCH   4  26
TORSDOF 8
ENDMDL
MODEL 9
REMARK VINA RESULT:      -7.4      6.091     11.614
REMARK  8 active torsions:
REMARK  status: ('A' for Active; 'I' for Inactive)
REMARK    1  A    between atoms: O1_2  and  C2_3 
REMARK    2  A    between atoms: C6_7  and  N1_8 
REMARK    3  A    between atoms: N1_8  and  C7_9 
REMARK    4  A    between atoms: C10_14  and  C11_15 
REMARK    5  A    between atoms: N4_18  and  C14_19 
REMARK    6  A    between atoms: C14_19  and  C15_20 
REMARK    7  A    between atoms: C15_20  and  C16_21 
REMARK    8  A    between atoms: C16_21  and  N5_22 
ROOT
HETATM    1  C11 UNL     1      20.435   3.079  51.684  1.00  0.00     0.093 C 
HETATM    2  C12 UNL     1      21.403   2.142  51.674  1.00  0.00     0.044 C 
HETATM    3  C13 UNL     1      20.948   0.751  51.576  1.00  0.00     0.071 C 
HETATM    4  N4  UNL     1      22.802   2.375  51.729  1.00  0.00    -0.317 N 
HETATM    5  C21 UNL     1      23.216   3.733  51.798  1.00  0.00     0.248 C 
HETATM    6  O3  UNL     1      24.338   4.101  51.453  1.00  0.00    -0.271 OA
HETATM    7  C22 UNL     1      22.206   4.703  52.314  1.00  0.00     0.279 C 
HETATM    8  O4  UNL     1      20.928   4.402  51.780  1.00  0.00    -0.340 OA
ENDROOT
BRANCH   1   9
HETATM    9  C10 UNL     1      19.019   2.910  51.613  1.00  0.00     0.066 C 
HETATM   10  C9  UNL     1      17.850   3.104  51.036  1.00  0.00     0.045 A 
HETATM   11  N3  UNL     1      17.638   3.829  49.859  1.00  0.00    -0.246 NA
HETATM   12  C23 UNL     1      16.616   2.518  51.650  1.00  0.00     0.137 A 
HETATM   13  C8  UNL     1      16.598   4.077  49.193  1.00  0.00     0.235 A 
HETATM   14  N2  UNL     1      15.418   3.512  49.750  1.00  0.00    -0.228 NA
HETATM   15  C7  UNL     1      15.467   2.829  50.827  1.00  0.00     0.111 A 
BRANCH  15  16
HETATM   16  N1  UNL     1      14.235   2.320  51.278  1.00  0.00    -0.344 N 
HETATM   17  H7  UNL     1      13.819   1.485  50.756  1.00  0.00     0.167 HD
BRANCH  16  18
HETATM   18  C6  UNL     1      13.476   2.809  52.369  1.00  0.00     0.036 A 
HETATM   19  C5  UNL     1      13.802   4.033  52.971  1.00  0.00     0.029 A 
HETATM   20  C4  UNL     1      13.105   4.555  54.037  1.00  0.00     0.005 A 
HETATM   21  C3  UNL     1      12.035   3.886  54.567  1.00  0.00     0.037 A 
HETATM   22  C2  UNL     1      11.667   2.668  54.009  1.00  0.00     0.070 A 
HETATM   23  C24 UNL     1      12.410   2.206  52.946  1.00  0.00     0.066 A 
BRANCH  22  24
HETATM   24  O1  UNL     1      10.584   1.983  54.540  1.00  0.00    -0.356 OA
HETATM   25  C1  UNL     1      10.763   1.347  55.793  1.00  0.00     0.210 C 
ENDBRANCH  22  24
ENDBRANCH  16  18
ENDBRANCH  15  16
ENDBRANCH   1   9
BRANCH   4  26
HETATM   26  C14 UNL     1      23.850   1.406  51.719  1.00  0.00     0.134 C 
BRANCH  26  27
HETATM   27  C15 UNL     1      24.372   1.114  53.128  1.00  0.00     0.050 C 
BRANCH  27  28
HETATM   28  C16 UNL     1      24.474  -0.384  53.357  1.00  0.00     0.274 C 
BRANCH  28  29
HETATM   29  N5  UNL     1      25.800  -0.780  53.810  1.00  0.00     0.092 N 
HETATM   30  C17 UNL     1      26.598  -1.156  52.649  1.00  0.00     0.298 C 
HETATM   31  C18 UNL     1      28.084  -1.150  52.966  1.00  0.00     0.198 C 
HETATM   32  O2  UNL     1      28.294  -0.981  54.322  1.00  0.00    -0.388 OA
HETATM   33  C19 UNL     1      27.834   0.265  54.713  1.00  0.00     0.198 C 
HETATM   34  C20 UNL     1      26.402   0.458  54.326  1.00  0.00     0.298 C 
ENDBRANCH  28  29
ENDBRANCH  27  28
ENDBRANCH  26  27
ENDBRANCH   4  26
TORSDOF 8
ENDMDL
