MODEL 1
REMARK VINA RESULT:      -8.3      0.000      0.000
REMARK  5 active torsions:
REMARK  status: ('A' for Active; 'I' for Inactive)
REMARK    1  A    between atoms: C2_2  and  O1_3 
REMARK    2  A    between atoms: O1_3  and  C3_4 
REMARK    3  A    between atoms: C7_10  and  N3_11 
REMARK    4  A    between atoms: N3_11  and  C8_12 
REMARK    5  A    between atoms: C12_16  and  C13_17 
ROOT
HETATM    1  C3  UNL     1      19.705   0.951  51.720  1.00  0.00     0.072 C 
HETATM    2  C4  UNL     1      20.777   0.161  51.899  1.00  0.00     0.067 C 
HETATM    3  C5  UNL     1      22.142   0.128  52.457  1.00  0.00     0.072 A 
HETATM    4  N1  UNL     1      22.233  -0.665  53.567  1.00  0.00    -0.241 NA
HETATM    5  C6  UNL     1      23.370  -0.852  54.247  1.00  0.00     0.235 A 
HETATM    6  N2  UNL     1      24.504  -0.265  53.876  1.00  0.00    -0.224 NA
HETATM    7  C7  UNL     1      24.518   0.525  52.807  1.00  0.00     0.140 A 
HETATM    8  C15 UNL     1      23.371   0.719  52.117  1.00  0.00     0.040 A 
HETATM    9  C16 UNL     1      22.939   1.543  50.917  1.00  0.00     0.212 C 
HETATM   10  O2  UNL     1      22.001   2.411  51.527  1.00  0.00    -0.384 OA
HETATM   11  C17 UNL     1      21.270   3.175  50.707  1.00  0.00     0.194 C 
HETATM   12  C18 UNL     1      20.303   3.964  51.535  1.00  0.00     0.194 C 
HETATM   13  O3  UNL     1      19.453   3.234  52.320  1.00  0.00    -0.383 OA
HETATM   14  C19 UNL     1      18.841   2.151  51.754  1.00  0.00     0.232 C 
ENDROOT
BRANCH   7  15
HETATM   15  N3  UNL     1      25.547   1.279  52.158  1.00  0.00    -0.340 N 
HETATM   16  H8  UNL     1      25.447   1.884  51.319  1.00  0.00     0.167 HD
BRANCH  15  17
HETATM   17  C8  UNL     1      26.833   1.158  52.760  1.00  0.00     0.034 A 
HETATM   18  C9  UNL     1      27.473   2.254  53.314  1.00  0.00     0.029 A 
HETATM   19  C10 UNL     1      28.716   2.216  53.918  1.00  0.00     0.003 A 
HETATM   20  C11 UNL     1      29.379   1.012  53.983  1.00  0.00     0.008 A 
HETATM   21  C12 UNL     1      28.778  -0.113  53.443  1.00  0.00    -0.042 A 
HETATM   22  C14 UNL     1      27.535  -0.026  52.849  1.00  0.00     0.037 A 
BRANCH  21  23
HETATM   23  C13 UNL     1      29.472  -1.427  53.502  1.00  0.00     0.153 C 
HETATM   24 CL1  UNL     1      28.434  -2.762  52.965  1.00  0.00    -0.126 Cl
ENDBRANCH  21  23
ENDBRANCH  15  17
ENDBRANCH   7  15
BRANCH   1  25
HETATM   25  O1  UNL     1      18.802   0.087  51.062  1.00  0.00    -0.353 OA
BRANCH  25  26
HETATM   26  C2  UNL     1      17.506  -0.177  51.495  1.00  0.00     0.171 C 
HETATM   27  C1  UNL     1      17.464  -1.102  52.693  1.00  0.00     0.034 C 
ENDBRANCH  25  26
ENDBRANCH   1  25
TORSDOF 5
ENDMDL
MODEL 2
REMARK VINA RESULT:      -8.2      4.520      6.231
REMARK  5 active torsions:
REMARK  status: ('A' for Active; 'I' for Inactive)
REMARK    1  A    between atoms: C2_2  and  O1_3 
REMARK    2  A    between atoms: O1_3  and  C3_4 
REMARK    3  A    between atoms: C7_10  and  N3_11 
REMARK    4  A    between atoms: N3_11  and  C8_12 
REMARK    5  A    between atoms: C12_16  and  C13_17 
ROOT
HETATM    1  C3  UNL     1      24.176  -0.144  53.513  1.00  0.00     0.072 C 
HETATM    2  C4  UNL     1      23.340   0.682  52.863  1.00  0.00     0.067 C 
HETATM    3  C5  UNL     1      23.276   1.710  51.807  1.00  0.00     0.072 A 
HETATM    4  N1  UNL     1      22.610   1.276  50.696  1.00  0.00    -0.241 NA
HETATM    5  C6  UNL     1      22.423   2.031  49.607  1.00  0.00     0.235 A 
HETATM    6  N2  UNL     1      22.883   3.276  49.541  1.00  0.00    -0.224 NA
HETATM    7  C7  UNL     1      23.545   3.790  50.572  1.00  0.00     0.140 A 
HETATM    8  C15 UNL     1      23.739   3.030  51.675  1.00  0.00     0.040 A 
HETATM    9  C16 UNL     1      24.449   3.191  53.006  1.00  0.00     0.212 C 
HETATM   10  O2  UNL     1      25.443   2.189  52.888  1.00  0.00    -0.384 OA
HETATM   11  C17 UNL     1      26.159   1.923  53.987  1.00  0.00     0.194 C 
HETATM   12  C18 UNL     1      27.102   0.802  53.675  1.00  0.00     0.194 C 
HETATM   13  O3  UNL     1      26.525  -0.361  53.240  1.00  0.00    -0.383 OA
HETATM   14  C19 UNL     1      25.430  -0.818  53.918  1.00  0.00     0.232 C 
ENDROOT
BRANCH   7  15
HETATM   15  N3  UNL     1      24.148   5.066  50.814  1.00  0.00    -0.340 N 
HETATM   16  H8  UNL     1      23.824   5.797  51.477  1.00  0.00     0.167 HD
BRANCH  15  17
HETATM   17  C8  UNL     1      25.317   5.320  50.040  1.00  0.00     0.034 A 
HETATM   18  C9  UNL     1      26.124   4.284  49.597  1.00  0.00     0.029 A 
HETATM   19  C10 UNL     1      27.268   4.449  48.840  1.00  0.00     0.003 A 
HETATM   20  C11 UNL     1      27.650   5.725  48.492  1.00  0.00     0.008 A 
HETATM   21  C12 UNL     1      26.874   6.793  48.912  1.00  0.00    -0.042 A 
HETATM   22  C14 UNL     1      25.738   6.579  49.667  1.00  0.00     0.037 A 
BRANCH  21  23
HETATM   23  C13 UNL     1      27.261   8.181  48.548  1.00  0.00     0.153 C 
HETATM   24 CL1  UNL     1      27.661   9.164  49.970  1.00  0.00    -0.126 Cl
ENDBRANCH  21  23
ENDBRANCH  15  17
ENDBRANCH   7  15
BRANCH   1  25
HETATM   25  O1  UNL     1      23.309  -0.807  54.408  1.00  0.00    -0.353 OA
BRANCH  25  26
HETATM   26  C2  UNL     1      21.956  -0.516  54.556  1.00  0.00     0.171 C 
HETATM   27  C1  UNL     1      21.067  -1.720  54.325  1.00  0.00     0.034 C 
ENDBRANCH  25  26
ENDBRANCH   1  25
TORSDOF 5
ENDMDL
MODEL 3
REMARK VINA RESULT:      -7.7      3.427      8.021
REMARK  5 active torsions:
REMARK  status: ('A' for Active; 'I' for Inactive)
REMARK    1  A    between atoms: C2_2  and  O1_3 
REMARK    2  A    between atoms: O1_3  and  C3_4 
REMARK    3  A    between atoms: C7_10  and  N3_11 
REMARK    4  A    between atoms: N3_11  and  C8_12 
REMARK    5  A    between atoms: C12_16  and  C13_17 
ROOT
HETATM    1  C3  UNL     1      25.975   2.567  51.979  1.00  0.00     0.072 C 
HETATM    2  C4  UNL     1      24.711   2.696  51.545  1.00  0.00     0.067 C 
HETATM    3  C5  UNL     1      23.301   2.635  51.972  1.00  0.00     0.072 A 
HETATM    4  N1  UNL     1      22.700   3.862  51.964  1.00  0.00    -0.241 NA
HETATM    5  C6  UNL     1      21.423   4.060  52.312  1.00  0.00     0.235 A 
HETATM    6  N2  UNL     1      20.646   3.052  52.695  1.00  0.00    -0.224 NA
HETATM    7  C7  UNL     1      21.139   1.818  52.736  1.00  0.00     0.140 A 
HETATM    8  C15 UNL     1      22.430   1.613  52.387  1.00  0.00     0.040 A 
HETATM    9  C16 UNL     1      23.377   0.428  52.335  1.00  0.00     0.212 C 
HETATM   10  O2  UNL     1      24.338   0.827  53.296  1.00  0.00    -0.384 OA
HETATM   11  C17 UNL     1      25.445   0.081  53.381  1.00  0.00     0.194 C 
HETATM   12  C18 UNL     1      26.354   0.700  54.398  1.00  0.00     0.194 C 
HETATM   13  O3  UNL     1      26.722   1.996  54.160  1.00  0.00    -0.383 OA
HETATM   14  C19 UNL     1      27.114   2.323  52.892  1.00  0.00     0.232 C 
ENDROOT
BRANCH   7  15
HETATM   15  N3  UNL     1      20.578   0.548  53.088  1.00  0.00    -0.340 N 
HETATM   16  H8  UNL     1      20.931  -0.116  53.805  1.00  0.00     0.167 HD
BRANCH  15  17
HETATM   17  C8  UNL     1      19.410   0.197  52.350  1.00  0.00     0.034 A 
HETATM   18  C9  UNL     1      19.159   0.741  51.102  1.00  0.00     0.029 A 
HETATM   19  C10 UNL     1      18.054   0.448  50.326  1.00  0.00     0.003 A 
HETATM   20  C11 UNL     1      17.127  -0.446  50.811  1.00  0.00     0.008 A 
HETATM   21  C12 UNL     1      17.335  -1.016  52.056  1.00  0.00    -0.042 A 
HETATM   22  C14 UNL     1      18.455  -0.692  52.796  1.00  0.00     0.037 A 
BRANCH  21  23
HETATM   23  C13 UNL     1      16.351  -1.986  52.603  1.00  0.00     0.153 C 
HETATM   24 CL1  UNL     1      17.118  -3.228  53.612  1.00  0.00    -0.126 Cl
ENDBRANCH  21  23
ENDBRANCH  15  17
ENDBRANCH   7  15
BRANCH   1  25
HETATM   25  O1  UNL     1      26.723   2.820  50.809  1.00  0.00    -0.353 OA
BRANCH  25  26
HETATM   26  C2  UNL     1      26.237   3.495  49.693  1.00  0.00     0.171 C 
HETATM   27  C1  UNL     1      27.293   4.335  49.008  1.00  0.00     0.034 C 
ENDBRANCH  25  26
ENDBRANCH   1  25
TORSDOF 5
ENDMDL
MODEL 4
REMARK VINA RESULT:      -7.5      4.004      4.997
REMARK  5 active torsions:
REMARK  status: ('A' for Active; 'I' for Inactive)
REMARK    1  A    between atoms: C2_2  and  O1_3 
REMARK    2  A    between atoms: O1_3  and  C3_4 
REMARK    3  A    between atoms: C7_10  and  N3_11 
REMARK    4  A    between atoms: N3_11  and  C8_12 
REMARK    5  A    between atoms: C12_16  and  C13_17 
ROOT
HETATM    1  C3  UNL     1      21.521   1.350  52.694  1.00  0.00     0.072 C 
HETATM    2  C4  UNL     1      22.799   1.065  52.394  1.00  0.00     0.067 C 
HETATM    3  C5  UNL     1      24.080   1.666  51.979  1.00  0.00     0.072 A 
HETATM    4  N1  UNL     1      25.023   1.620  52.967  1.00  0.00    -0.241 NA
HETATM    5  C6  UNL     1      26.262   2.104  52.826  1.00  0.00     0.235 A 
HETATM    6  N2  UNL     1      26.660   2.670  51.691  1.00  0.00    -0.224 NA
HETATM    7  C7  UNL     1      25.814   2.762  50.670  1.00  0.00     0.140 A 
HETATM    8  C15 UNL     1      24.559   2.277  50.808  1.00  0.00     0.040 A 
HETATM    9  C16 UNL     1      23.306   2.217  49.953  1.00  0.00     0.212 C 
HETATM   10  O2  UNL     1      22.428   3.012  50.730  1.00  0.00    -0.384 OA
HETATM   11  C17 UNL     1      21.144   3.028  50.355  1.00  0.00     0.194 C 
HETATM   12  C18 UNL     1      20.378   3.864  51.333  1.00  0.00     0.194 C 
HETATM   13  O3  UNL     1      20.443   3.465  52.641  1.00  0.00    -0.383 OA
HETATM   14  C19 UNL     1      20.284   2.134  52.907  1.00  0.00     0.232 C 
ENDROOT
BRANCH   7  15
HETATM   15  N3  UNL     1      25.930   3.295  49.345  1.00  0.00    -0.340 N 
HETATM   16  H8  UNL     1      25.814   2.781  48.451  1.00  0.00     0.167 HD
BRANCH  15  17
HETATM   17  C8  UNL     1      26.237   4.686  49.297  1.00  0.00     0.034 A 
HETATM   18  C9  UNL     1      25.476   5.614  49.988  1.00  0.00     0.029 A 
HETATM   19  C10 UNL     1      25.713   6.976  49.993  1.00  0.00     0.003 A 
HETATM   20  C11 UNL     1      26.776   7.462  49.266  1.00  0.00     0.008 A 
HETATM   21  C12 UNL     1      27.565   6.572  48.559  1.00  0.00    -0.042 A 
HETATM   22  C14 UNL     1      27.290   5.219  48.583  1.00  0.00     0.037 A 
BRANCH  21  23
HETATM   23  C13 UNL     1      28.721   7.070  47.767  1.00  0.00     0.153 C 
HETATM   24 CL1  UNL     1      30.175   6.079  48.000  1.00  0.00    -0.126 Cl
ENDBRANCH  21  23
ENDBRANCH  15  17
ENDBRANCH   7  15
BRANCH   1  25
HETATM   25  O1  UNL     1      20.994   0.078  53.007  1.00  0.00    -0.353 OA
BRANCH  25  26
HETATM   26  C2  UNL     1      20.823  -0.408  54.300  1.00  0.00     0.171 C 
HETATM   27  C1  UNL     1      21.788  -1.523  54.641  1.00  0.00     0.034 C 
ENDBRANCH  25  26
ENDBRANCH   1  25
TORSDOF 5
ENDMDL
MODEL 5
REMARK VINA RESULT:      -7.5      2.548      4.142
REMARK  5 active torsions:
REMARK  status: ('A' for Active; 'I' for Inactive)
REMARK    1  A    between atoms: C2_2  and  O1_3 
REMARK    2  A    between atoms: O1_3  and  C3_4 
REMARK    3  A    between atoms: C7_10  and  N3_11 
REMARK    4  A    between atoms: N3_11  and  C8_12 
REMARK    5  A    between atoms: C12_16  and  C13_17 
ROOT
HETATM    1  C3  UNL     1      21.807   3.226  48.916  1.00  0.00     0.072 C 
HETATM    2  C4  UNL     1      22.923   3.816  49.377  1.00  0.00     0.067 C 
HETATM    3  C5  UNL     1      24.239   3.548  49.985  1.00  0.00     0.072 A 
HETATM    4  N1  UNL     1      25.272   3.823  49.134  1.00  0.00    -0.241 NA
HETATM    5  C6  UNL     1      26.559   3.658  49.460  1.00  0.00     0.235 A 
HETATM    6  N2  UNL     1      26.918   3.208  50.659  1.00  0.00    -0.224 NA
HETATM    7  C7  UNL     1      25.984   2.912  51.557  1.00  0.00     0.140 A 
HETATM    8  C15 UNL     1      24.682   3.075  51.232  1.00  0.00     0.040 A 
HETATM    9  C16 UNL     1      23.344   2.826  51.905  1.00  0.00     0.212 C 
HETATM   10  O2  UNL     1      22.804   1.840  51.044  1.00  0.00    -0.384 OA
HETATM   11  C17 UNL     1      21.522   1.510  51.240  1.00  0.00     0.194 C 
HETATM   12  C18 UNL     1      21.128   0.511  50.197  1.00  0.00     0.194 C 
HETATM   13  O3  UNL     1      21.279   0.911  48.897  1.00  0.00    -0.383 OA
HETATM   14  C19 UNL     1      20.841   2.163  48.564  1.00  0.00     0.232 C 
ENDROOT
BRANCH   7  15
HETATM   15  N3  UNL     1      26.037   2.425  52.903  1.00  0.00    -0.340 N 
HETATM   16  H8  UNL     1      25.324   2.559  53.646  1.00  0.00     0.167 HD
BRANCH  15  17
HETATM   17  C8  UNL     1      27.213   1.681  53.213  1.00  0.00     0.034 A 
HETATM   18  C9  UNL     1      28.324   2.293  53.768  1.00  0.00     0.029 A 
HETATM   19  C10 UNL     1      29.497   1.641  54.099  1.00  0.00     0.003 A 
HETATM   20  C11 UNL     1      29.584   0.287  53.868  1.00  0.00     0.008 A 
HETATM   21  C12 UNL     1      28.497  -0.369  53.315  1.00  0.00    -0.042 A 
HETATM   22  C14 UNL     1      27.346   0.325  53.000  1.00  0.00     0.037 A 
BRANCH  21  23
HETATM   23  C13 UNL     1      28.564  -1.832  53.058  1.00  0.00     0.153 C 
HETATM   24 CL1  UNL     1      27.059  -2.462  52.360  1.00  0.00    -0.126 Cl
ENDBRANCH  21  23
ENDBRANCH  15  17
ENDBRANCH   7  15
BRANCH   1  25
HETATM   25  O1  UNL     1      21.037   4.329  48.488  1.00  0.00    -0.353 OA
BRANCH  25  26
HETATM   26  C2  UNL     1      20.903   5.519  49.198  1.00  0.00     0.171 C 
HETATM   27  C1  UNL     1      20.579   6.701  48.307  1.00  0.00     0.034 C 
ENDBRANCH  25  26
ENDBRANCH   1  25
TORSDOF 5
ENDMDL
MODEL 6
REMARK VINA RESULT:      -7.4      4.143      5.266
REMARK  5 active torsions:
REMARK  status: ('A' for Active; 'I' for Inactive)
REMARK    1  A    between atoms: C2_2  and  O1_3 
REMARK    2  A    between atoms: O1_3  and  C3_4 
REMARK    3  A    between atoms: C7_10  and  N3_11 
REMARK    4  A    between atoms: N3_11  and  C8_12 
REMARK    5  A    between atoms: C12_16  and  C13_17 
ROOT
HETATM    1  C3  UNL     1      21.657   2.353  52.215  1.00  0.00     0.072 C 
HETATM    2  C4  UNL     1      22.881   1.826  52.044  1.00  0.00     0.067 C 
HETATM    3  C5  UNL     1      24.279   2.161  51.720  1.00  0.00     0.072 A 
HETATM    4  N1  UNL     1      25.115   2.006  52.789  1.00  0.00    -0.241 NA
HETATM    5  C6  UNL     1      26.430   2.250  52.739  1.00  0.00     0.235 A 
HETATM    6  N2  UNL     1      27.014   2.667  51.620  1.00  0.00    -0.224 NA
HETATM    7  C7  UNL     1      26.285   2.848  50.524  1.00  0.00     0.140 A 
HETATM    8  C15 UNL     1      24.955   2.604  50.570  1.00  0.00     0.040 A 
HETATM    9  C16 UNL     1      23.785   2.720  49.609  1.00  0.00     0.212 C 
HETATM   10  O2  UNL     1      23.009   3.704  50.269  1.00  0.00    -0.384 OA
HETATM   11  C17 UNL     1      21.784   3.928  49.780  1.00  0.00     0.194 C 
HETATM   12  C18 UNL     1      21.109   4.945  50.647  1.00  0.00     0.194 C 
HETATM   13  O3  UNL     1      20.995   4.620  51.972  1.00  0.00    -0.383 OA
HETATM   14  C19 UNL     1      20.573   3.357  52.281  1.00  0.00     0.232 C 
ENDROOT
BRANCH   7  15
HETATM   15  N3  UNL     1      26.602   3.271  49.193  1.00  0.00    -0.340 N 
HETATM   16  H8  UNL     1      26.687   2.672  48.349  1.00  0.00     0.167 HD
BRANCH  15  17
HETATM   17  C8  UNL     1      26.816   4.674  49.058  1.00  0.00     0.034 A 
HETATM   18  C9  UNL     1      27.980   5.171  48.497  1.00  0.00     0.029 A 
HETATM   19  C10 UNL     1      28.259   6.515  48.329  1.00  0.00     0.003 A 
HETATM   20  C11 UNL     1      27.325   7.438  48.741  1.00  0.00     0.008 A 
HETATM   21  C12 UNL     1      26.145   6.987  49.308  1.00  0.00    -0.042 A 
HETATM   22  C14 UNL     1      25.911   5.634  49.457  1.00  0.00     0.037 A 
BRANCH  21  23
HETATM   23  C13 UNL     1      25.118   7.962  49.760  1.00  0.00     0.153 C 
HETATM   24 CL1  UNL     1      24.179   7.361  51.141  1.00  0.00    -0.126 Cl
ENDBRANCH  21  23
ENDBRANCH  15  17
ENDBRANCH   7  15
BRANCH   1  25
HETATM   25  O1  UNL     1      20.882   1.217  52.536  1.00  0.00    -0.353 OA
BRANCH  25  26
HETATM   26  C2  UNL     1      21.395  -0.064  52.711  1.00  0.00     0.171 C 
HETATM   27  C1  UNL     1      20.813  -0.770  53.917  1.00  0.00     0.034 C 
ENDBRANCH  25  26
ENDBRANCH   1  25
TORSDOF 5
ENDMDL
MODEL 7
REMARK VINA RESULT:      -7.2      3.861      7.384
REMARK  5 active torsions:
REMARK  status: ('A' for Active; 'I' for Inactive)
REMARK    1  A    between atoms: C2_2  and  O1_3 
REMARK    2  A    between atoms: O1_3  and  C3_4 
REMARK    3  A    between atoms: C7_10  and  N3_11 
REMARK    4  A    between atoms: N3_11  and  C8_12 
REMARK    5  A    between atoms: C12_16  and  C13_17 
ROOT
HETATM    1  C3  UNL     1      24.765  -0.513  54.332  1.00  0.00     0.072 C 
HETATM    2  C4  UNL     1      24.828   0.528  53.485  1.00  0.00     0.067 C 
HETATM    3  C5  UNL     1      24.068   1.681  52.968  1.00  0.00     0.072 A 
HETATM    4  N1  UNL     1      24.584   2.875  53.386  1.00  0.00    -0.241 NA
HETATM    5  C6  UNL     1      24.065   4.061  53.048  1.00  0.00     0.235 A 
HETATM    6  N2  UNL     1      22.993   4.150  52.266  1.00  0.00    -0.224 NA
HETATM    7  C7  UNL     1      22.418   3.043  51.808  1.00  0.00     0.140 A 
HETATM    8  C15 UNL     1      22.938   1.842  52.149  1.00  0.00     0.040 A 
HETATM    9  C16 UNL     1      22.588   0.386  51.901  1.00  0.00     0.212 C 
HETATM   10  O2  UNL     1      22.317  -0.041  53.224  1.00  0.00    -0.384 OA
HETATM   11  C17 UNL     1      22.145  -1.355  53.407  1.00  0.00     0.194 C 
HETATM   12  C18 UNL     1      21.937  -1.605  54.869  1.00  0.00     0.194 C 
HETATM   13  O3  UNL     1      22.940  -1.179  55.697  1.00  0.00    -0.383 OA
HETATM   14  C19 UNL     1      24.227  -1.461  55.332  1.00  0.00     0.232 C 
ENDROOT
BRANCH   7  15
HETATM   15  N3  UNL     1      21.287   2.802  50.964  1.00  0.00    -0.340 N 
HETATM   16  H8  UNL     1      20.343   2.483  51.257  1.00  0.00     0.167 HD
BRANCH  15  17
HETATM   17  C8  UNL     1      21.526   3.039  49.579  1.00  0.00     0.034 A 
HETATM   18  C9  UNL     1      22.023   2.043  48.755  1.00  0.00     0.029 A 
HETATM   19  C10 UNL     1      22.277   2.194  47.405  1.00  0.00     0.003 A 
HETATM   20  C11 UNL     1      22.024   3.415  46.820  1.00  0.00     0.008 A 
HETATM   21  C12 UNL     1      21.527   4.442  47.605  1.00  0.00    -0.042 A 
HETATM   22  C14 UNL     1      21.289   4.244  48.950  1.00  0.00     0.037 A 
BRANCH  21  23
HETATM   23  C13 UNL     1      21.242   5.769  46.998  1.00  0.00     0.153 C 
HETATM   24 CL1  UNL     1      22.321   6.133  45.637  1.00  0.00    -0.126 Cl
ENDBRANCH  21  23
ENDBRANCH  15  17
ENDBRANCH   7  15
BRANCH   1  25
HETATM   25  O1  UNL     1      26.033  -1.112  54.168  1.00  0.00    -0.353 OA
BRANCH  25  26
HETATM   26  C2  UNL     1      26.861  -0.917  53.067  1.00  0.00     0.171 C 
HETATM   27  C1  UNL     1      28.302  -0.659  53.454  1.00  0.00     0.034 C 
ENDBRANCH  25  26
ENDBRANCH   1  25
TORSDOF 5
ENDMDL
MODEL 8
REMARK VINA RESULT:      -7.2      6.947     10.272
REMARK  5 active torsions:
REMARK  status: ('A' for Active; 'I' for Inactive)
REMARK    1  A    between atoms: C2_2  and  O1_3 
REMARK    2  A    between atoms: O1_3  and  C3_4 
REMARK    3  A    between atoms: C7_10  and  N3_11 
REMARK    4  A    between atoms: N3_11  and  C8_12 
REMARK    5  A    between atoms: C12_16  and  C13_17 
ROOT
HETATM    1  C3  UNL     1      30.483   8.399  48.320  1.00  0.00     0.072 C 
HETATM    2  C4  UNL     1      29.188   8.098  48.128  1.00  0.00     0.067 C 
HETATM    3  C5  UNL     1      28.080   7.264  48.627  1.00  0.00     0.072 A 
HETATM    4  N1  UNL     1      27.106   8.001  49.240  1.00  0.00    -0.241 NA
HETATM    5  C6  UNL     1      26.002   7.466  49.773  1.00  0.00     0.235 A 
HETATM    6  N2  UNL     1      25.781   6.156  49.737  1.00  0.00    -0.224 NA
HETATM    7  C7  UNL     1      26.670   5.353  49.162  1.00  0.00     0.140 A 
HETATM    8  C15 UNL     1      27.789   5.889  48.623  1.00  0.00     0.040 A 
HETATM    9  C16 UNL     1      29.038   5.362  47.940  1.00  0.00     0.212 C 
HETATM   10  O2  UNL     1      30.028   5.766  48.869  1.00  0.00    -0.384 OA
HETATM   11  C17 UNL     1      31.302   5.619  48.490  1.00  0.00     0.194 C 
HETATM   12  C18 UNL     1      32.183   6.159  49.574  1.00  0.00     0.194 C 
HETATM   13  O3  UNL     1      31.979   7.469  49.913  1.00  0.00    -0.383 OA
HETATM   14  C19 UNL     1      31.846   8.374  48.897  1.00  0.00     0.232 C 
ENDROOT
BRANCH   7  15
HETATM   15  N3  UNL     1      26.726   3.937  48.957  1.00  0.00    -0.340 N 
HETATM   16  H8  UNL     1      27.235   3.432  48.205  1.00  0.00     0.167 HD
BRANCH  15  17
HETATM   17  C8  UNL     1      25.990   3.175  49.911  1.00  0.00     0.034 A 
HETATM   18  C9  UNL     1      24.605   3.158  49.901  1.00  0.00     0.029 A 
HETATM   19  C10 UNL     1      23.822   2.443  50.788  1.00  0.00     0.003 A 
HETATM   20  C11 UNL     1      24.445   1.690  51.757  1.00  0.00     0.008 A 
HETATM   21  C12 UNL     1      25.829   1.677  51.806  1.00  0.00    -0.042 A 
HETATM   22  C14 UNL     1      26.570   2.408  50.899  1.00  0.00     0.037 A 
BRANCH  21  23
HETATM   23  C13 UNL     1      26.528   0.870  52.841  1.00  0.00     0.153 C 
HETATM   24 CL1  UNL     1      26.587  -0.854  52.426  1.00  0.00    -0.126 Cl
ENDBRANCH  21  23
ENDBRANCH  15  17
ENDBRANCH   7  15
BRANCH   1  25
HETATM   25  O1  UNL     1      30.720   9.367  47.320  1.00  0.00    -0.353 OA
BRANCH  25  26
HETATM   26  C2  UNL     1      31.976   9.864  46.985  1.00  0.00     0.171 C 
HETATM   27  C1  UNL     1      31.948  11.333  46.619  1.00  0.00     0.034 C 
ENDBRANCH  25  26
ENDBRANCH   1  25
TORSDOF 5
ENDMDL
MODEL 9
REMARK VINA RESULT:      -7.2      4.459      6.502
REMARK  5 active torsions:
REMARK  status: ('A' for Active; 'I' for Inactive)
REMARK    1  A    between atoms: C2_2  and  O1_3 
REMARK    2  A    between atoms: O1_3  and  C3_4 
REMARK    3  A    between atoms: C7_10  and  N3_11 
REMARK    4  A    between atoms: N3_11  and  C8_12 
REMARK    5  A    between atoms: C12_16  and  C13_17 
ROOT
HETATM    1  C3  UNL     1      22.915   0.792  51.973  1.00  0.00     0.072 C 
HETATM    2  C4  UNL     1      22.196   1.372  50.998  1.00  0.00     0.067 C 
HETATM    3  C5  UNL     1      22.265   2.359  49.904  1.00  0.00     0.072 A 
HETATM    4  N1  UNL     1      22.186   1.776  48.671  1.00  0.00    -0.241 NA
HETATM    5  C6  UNL     1      22.226   2.468  47.526  1.00  0.00     0.235 A 
HETATM    6  N2  UNL     1      22.349   3.791  47.520  1.00  0.00    -0.224 NA
HETATM    7  C7  UNL     1      22.433   4.450  48.671  1.00  0.00     0.140 A 
HETATM    8  C15 UNL     1      22.394   3.756  49.832  1.00  0.00     0.040 A 
HETATM    9  C16 UNL     1      22.501   4.085  51.310  1.00  0.00     0.212 C 
HETATM   10  O2  UNL     1      23.688   3.386  51.641  1.00  0.00    -0.384 OA
HETATM   11  C17 UNL     1      23.994   3.307  52.941  1.00  0.00     0.194 C 
HETATM   12  C18 UNL     1      25.235   2.482  53.084  1.00  0.00     0.194 C 
HETATM   13  O3  UNL     1      25.173   1.213  52.575  1.00  0.00    -0.383 OA
HETATM   14  C19 UNL     1      24.059   0.471  52.855  1.00  0.00     0.232 C 
ENDROOT
BRANCH   7  15
HETATM   15  N3  UNL     1      22.561   5.838  49.000  1.00  0.00    -0.340 N 
HETATM   16  H8  UNL     1      21.932   6.399  49.608  1.00  0.00     0.167 HD
BRANCH  15  17
HETATM   17  C8  UNL     1      23.688   6.480  48.410  1.00  0.00     0.034 A 
HETATM   18  C9  UNL     1      23.531   7.475  47.460  1.00  0.00     0.029 A 
HETATM   19  C10 UNL     1      24.572   8.146  46.845  1.00  0.00     0.003 A 
HETATM   20  C11 UNL     1      25.863   7.815  47.190  1.00  0.00     0.008 A 
HETATM   21  C12 UNL     1      26.069   6.826  48.136  1.00  0.00    -0.042 A 
HETATM   22  C14 UNL     1      24.998   6.182  48.723  1.00  0.00     0.037 A 
BRANCH  21  23
HETATM   23  C13 UNL     1      27.453   6.450  48.529  1.00  0.00     0.153 C 
HETATM   24 CL1  UNL     1      27.667   4.693  48.648  1.00  0.00    -0.126 Cl
ENDBRANCH  21  23
ENDBRANCH  15  17
ENDBRANCH   7  15
BRANCH   1  25
HETATM   25  O1  UNL     1      21.977  -0.091  52.554  1.00  0.00    -0.353 OA
BRANCH  25  26
HETATM   26  C2  UNL     1      22.309  -1.162  53.379  1.00  0.00     0.171 C 
HETATM   27  C1  UNL     1      21.438  -1.241  54.615  1.00  0.00     0.034 C 
ENDBRANCH  25  26
ENDBRANCH   1  25
TORSDOF 5
ENDMDL
