MODEL 1
REMARK VINA RESULT:      -8.4      0.000      0.000
REMARK  2 active torsions:
REMARK  status: ('A' for Active; 'I' for Inactive)
REMARK    1  A    between atoms: C1_2  and  C2_3 
REMARK       I    between atoms: C1_2  and  N1_6 
REMARK    2  A    between atoms: N1_6  and  C4_7 
ROOT
HETATM    1  C2  UNL     1      16.892  -1.214  52.640  1.00  0.00     0.086 C 
HETATM    2  C3  UNL     1      15.826  -0.437  52.734  1.00  0.00     0.223 C 
HETATM    3 CL1  UNL     1      14.508   0.706  52.827  1.00  0.00    -0.230 Cl
ENDROOT
BRANCH   1   4
HETATM    4  C1  UNL     1      18.179  -0.605  52.342  1.00  0.00     0.247 C 
HETATM    5  O1  UNL     1      18.366  -0.338  51.140  1.00  0.00    -0.268 OA
HETATM    6  N1  UNL     1      19.116  -0.349  53.343  1.00  0.00    -0.308 N 
HETATM    7  H3  UNL     1      18.873  -0.608  54.330  1.00  0.00     0.170 HD
BRANCH   6   8
HETATM    8  C4  UNL     1      20.370   0.243  53.055  1.00  0.00     0.130 A 
HETATM    9  C5  UNL     1      21.460  -0.375  53.486  1.00  0.00     0.060 A 
HETATM   10  C6  UNL     1      22.769   0.253  53.178  1.00  0.00    -0.025 A 
HETATM   11  C7  UNL     1      23.597  -0.612  53.739  1.00  0.00     0.096 C 
HETATM   12  C15 UNL     1      22.964   1.496  52.445  1.00  0.00     0.101 A 
HETATM   13  N2  UNL     1      25.014  -0.760  53.902  1.00  0.00    -0.363 N 
HETATM   14  C8  UNL     1      26.031   0.208  53.692  1.00  0.00     0.062 A 
HETATM   15  H6  UNL     1      25.371  -1.678  54.211  1.00  0.00     0.165 HD
HETATM   16  C9  UNL     1      27.222  -0.498  53.719  1.00  0.00     0.051 A 
HETATM   17  C13 UNL     1      26.100   1.587  53.483  1.00  0.00     0.082 A 
HETATM   18  C10 UNL     1      28.464   0.100  53.550  1.00  0.00     0.013 A 
HETATM   19 BR1  UNL     1      30.090  -0.899  53.593  1.00  0.00    -0.051 Br
HETATM   20  C11 UNL     1      28.503   1.464  53.345  1.00  0.00     0.021 A 
HETATM   21  C12 UNL     1      27.342   2.207  53.310  1.00  0.00     0.035 A 
HETATM   22  N3  UNL     1      25.064   2.529  53.410  1.00  0.00    -0.262 NA
HETATM   23  C14 UNL     1      23.839   2.510  53.010  1.00  0.00     0.105 C 
HETATM   24  C16 UNL     1      21.624   2.013  52.062  1.00  0.00     0.107 A 
HETATM   25  N4  UNL     1      20.486   1.462  52.330  1.00  0.00    -0.246 NA
ENDBRANCH   6   8
ENDBRANCH   1   4
TORSDOF 2
ENDMDL
MODEL 2
REMARK VINA RESULT:      -8.3      5.783      8.567
REMARK  2 active torsions:
REMARK  status: ('A' for Active; 'I' for Inactive)
REMARK    1  A    between atoms: C1_2  and  C2_3 
REMARK       I    between atoms: C1_2  and  N1_6 
REMARK    2  A    between atoms: N1_6  and  C4_7 
ROOT
HETATM    1  C2  UNL     1      27.479   6.540  48.418  1.00  0.00     0.086 C 
HETATM    2  C3  UNL     1      28.687   6.667  47.896  1.00  0.00     0.223 C 
HETATM    3 CL1  UNL     1      30.309   6.691  47.245  1.00  0.00    -0.230 Cl
ENDROOT
BRANCH   1   4
HETATM    4  C1  UNL     1      27.107   5.271  49.025  1.00  0.00     0.247 C 
HETATM    5  O1  UNL     1      27.759   4.288  48.623  1.00  0.00    -0.268 OA
HETATM    6  N1  UNL     1      26.096   5.185  49.980  1.00  0.00    -0.308 N 
HETATM    7  H3  UNL     1      25.599   6.066  50.259  1.00  0.00     0.170 HD
BRANCH   6   8
HETATM    8  C4  UNL     1      25.733   3.951  50.572  1.00  0.00     0.130 A 
HETATM    9  C5  UNL     1      24.452   3.749  50.847  1.00  0.00     0.060 A 
HETATM   10  C6  UNL     1      24.081   2.453  51.466  1.00  0.00    -0.025 A 
HETATM   11  C7  UNL     1      22.773   2.601  51.588  1.00  0.00     0.096 C 
HETATM   12  C15 UNL     1      25.003   1.377  51.803  1.00  0.00     0.101 A 
HETATM   13  N2  UNL     1      21.667   1.833  52.082  1.00  0.00    -0.363 N 
HETATM   14  C8  UNL     1      21.696   0.663  52.886  1.00  0.00     0.062 A 
HETATM   15  H6  UNL     1      20.715   2.146  51.838  1.00  0.00     0.165 HD
HETATM   16  C9  UNL     1      20.405   0.165  52.857  1.00  0.00     0.051 A 
HETATM   17  C13 UNL     1      22.644  -0.038  53.634  1.00  0.00     0.082 A 
HETATM   18  C10 UNL     1      20.019  -0.986  53.531  1.00  0.00     0.013 A 
HETATM   19 BR1  UNL     1      18.229  -1.649  53.473  1.00  0.00    -0.051 Br
HETATM   20  C11 UNL     1      20.975  -1.660  54.262  1.00  0.00     0.021 A 
HETATM   21  C12 UNL     1      22.275  -1.201  54.320  1.00  0.00     0.035 A 
HETATM   22  N3  UNL     1      24.004   0.239  53.831  1.00  0.00    -0.262 NA
HETATM   23  C14 UNL     1      24.935   0.789  53.131  1.00  0.00     0.105 C 
HETATM   24  C16 UNL     1      26.370   1.812  51.413  1.00  0.00     0.107 A 
HETATM   25  N4  UNL     1      26.689   2.942  50.873  1.00  0.00    -0.246 NA
ENDBRANCH   6   8
ENDBRANCH   1   4
TORSDOF 2
ENDMDL
MODEL 3
REMARK VINA RESULT:      -8.2      5.033      8.473
REMARK  2 active torsions:
REMARK  status: ('A' for Active; 'I' for Inactive)
REMARK    1  A    between atoms: C1_2  and  C2_3 
REMARK       I    between atoms: C1_2  and  N1_6 
REMARK    2  A    between atoms: N1_6  and  C4_7 
ROOT
HETATM    1  C2  UNL     1      28.700   1.949  53.771  1.00  0.00     0.086 C 
HETATM    2  C3  UNL     1      29.332   0.787  53.774  1.00  0.00     0.223 C 
HETATM    3 CL1  UNL     1      30.051  -0.803  53.697  1.00  0.00    -0.230 Cl
ENDROOT
BRANCH   1   4
HETATM    4  C1  UNL     1      27.417   2.047  53.093  1.00  0.00     0.247 C 
HETATM    5  O1  UNL     1      27.441   1.752  51.882  1.00  0.00    -0.268 OA
HETATM    6  N1  UNL     1      26.262   2.445  53.766  1.00  0.00    -0.308 N 
HETATM    7  H3  UNL     1      26.336   2.675  54.786  1.00  0.00     0.170 HD
BRANCH   6   8
HETATM    8  C4  UNL     1      25.012   2.541  53.107  1.00  0.00     0.130 A 
HETATM    9  C5  UNL     1      24.120   1.586  53.330  1.00  0.00     0.060 A 
HETATM   10  C6  UNL     1      22.813   1.696  52.637  1.00  0.00    -0.025 A 
HETATM   11  C7  UNL     1      22.202   0.613  53.085  1.00  0.00     0.096 C 
HETATM   12  C15 UNL     1      22.421   2.762  51.726  1.00  0.00     0.101 A 
HETATM   13  N2  UNL     1      20.929  -0.025  52.916  1.00  0.00    -0.363 N 
HETATM   14  C8  UNL     1      19.942   0.226  51.927  1.00  0.00     0.062 A 
HETATM   15  H6  UNL     1      20.668  -0.766  53.585  1.00  0.00     0.165 HD
HETATM   16  C9  UNL     1      18.810  -0.445  52.357  1.00  0.00     0.051 A 
HETATM   17  C13 UNL     1      19.859   0.932  50.725  1.00  0.00     0.082 A 
HETATM   18  C10 UNL     1      17.614  -0.446  51.653  1.00  0.00     0.013 A 
HETATM   19 BR1  UNL     1      16.068  -1.382  52.272  1.00  0.00    -0.051 Br
HETATM   20  C11 UNL     1      17.558   0.260  50.469  1.00  0.00     0.021 A 
HETATM   21  C12 UNL     1      18.661   0.944  50.002  1.00  0.00     0.035 A 
HETATM   22  N3  UNL     1      20.839   1.689  50.067  1.00  0.00    -0.262 NA
HETATM   23  C14 UNL     1      21.842   2.406  50.441  1.00  0.00     0.105 C 
HETATM   24  C16 UNL     1      23.560   3.713  51.622  1.00  0.00     0.107 A 
HETATM   25  N4  UNL     1      24.697   3.615  52.229  1.00  0.00    -0.246 NA
ENDBRANCH   6   8
ENDBRANCH   1   4
TORSDOF 2
ENDMDL
MODEL 4
REMARK VINA RESULT:      -7.7      4.851      6.249
REMARK  2 active torsions:
REMARK  status: ('A' for Active; 'I' for Inactive)
REMARK    1  A    between atoms: C1_2  and  C2_3 
REMARK       I    between atoms: C1_2  and  N1_6 
REMARK    2  A    between atoms: N1_6  and  C4_7 
ROOT
HETATM    1  C2  UNL     1      22.220  -1.401  54.743  1.00  0.00     0.086 C 
HETATM    2  C3  UNL     1      20.987  -1.291  54.280  1.00  0.00     0.223 C 
HETATM    3 CL1  UNL     1      19.411  -1.047  53.566  1.00  0.00    -0.230 Cl
ENDROOT
BRANCH   1   4
HETATM    4  C1  UNL     1      23.274  -0.610  54.127  1.00  0.00     0.247 C 
HETATM    5  O1  UNL     1      24.407  -0.772  54.621  1.00  0.00    -0.268 OA
HETATM    6  N1  UNL     1      23.014   0.256  53.065  1.00  0.00    -0.308 N 
HETATM    7  H3  UNL     1      22.028   0.328  52.714  1.00  0.00     0.170 HD
BRANCH   6   8
HETATM    8  C4  UNL     1      24.038   1.026  52.464  1.00  0.00     0.130 A 
HETATM    9  C5  UNL     1      23.738   2.257  52.074  1.00  0.00     0.060 A 
HETATM   10  C6  UNL     1      24.818   3.058  51.446  1.00  0.00    -0.025 A 
HETATM   11  C7  UNL     1      24.178   4.188  51.199  1.00  0.00     0.096 C 
HETATM   12  C15 UNL     1      26.185   2.609  51.215  1.00  0.00     0.101 A 
HETATM   13  N2  UNL     1      24.480   5.463  50.617  1.00  0.00    -0.363 N 
HETATM   14  C8  UNL     1      25.609   5.833  49.840  1.00  0.00     0.062 A 
HETATM   15  H6  UNL     1      23.808   6.232  50.766  1.00  0.00     0.165 HD
HETATM   16  C9  UNL     1      25.562   7.214  49.757  1.00  0.00     0.051 A 
HETATM   17  C13 UNL     1      26.663   5.181  49.196  1.00  0.00     0.082 A 
HETATM   18  C10 UNL     1      26.505   7.967  49.069  1.00  0.00     0.013 A 
HETATM   19 BR1  UNL     1      26.415   9.871  48.971  1.00  0.00    -0.051 Br
HETATM   20  C11 UNL     1      27.536   7.297  48.443  1.00  0.00     0.021 A 
HETATM   21  C12 UNL     1      27.624   5.922  48.499  1.00  0.00     0.035 A 
HETATM   22  N3  UNL     1      26.948   3.810  49.122  1.00  0.00    -0.262 NA
HETATM   23  C14 UNL     1      26.768   2.797  49.897  1.00  0.00     0.105 C 
HETATM   24  C16 UNL     1      26.297   1.216  51.723  1.00  0.00     0.107 A 
HETATM   25  N4  UNL     1      25.354   0.522  52.271  1.00  0.00    -0.246 NA
ENDBRANCH   6   8
ENDBRANCH   1   4
TORSDOF 2
ENDMDL
MODEL 5
REMARK VINA RESULT:      -7.7      5.295      8.493
REMARK  2 active torsions:
REMARK  status: ('A' for Active; 'I' for Inactive)
REMARK    1  A    between atoms: C1_2  and  C2_3 
REMARK       I    between atoms: C1_2  and  N1_6 
REMARK    2  A    between atoms: N1_6  and  C4_7 
ROOT
HETATM    1  C2  UNL     1      28.442   0.656  54.072  1.00  0.00     0.086 C 
HETATM    2  C3  UNL     1      28.927  -0.534  53.762  1.00  0.00     0.223 C 
HETATM    3 CL1  UNL     1      29.429  -2.145  53.309  1.00  0.00    -0.230 Cl
ENDROOT
BRANCH   1   4
HETATM    4  C1  UNL     1      27.023   0.908  53.872  1.00  0.00     0.247 C 
HETATM    5  O1  UNL     1      26.545   1.806  54.592  1.00  0.00    -0.268 OA
HETATM    6  N1  UNL     1      26.277   0.188  52.940  1.00  0.00    -0.308 N 
HETATM    7  H3  UNL     1      26.763  -0.551  52.377  1.00  0.00     0.170 HD
BRANCH   6   8
HETATM    8  C4  UNL     1      24.896   0.433  52.744  1.00  0.00     0.130 A 
HETATM    9  C5  UNL     1      24.551   1.475  52.001  1.00  0.00     0.060 A 
HETATM   10  C6  UNL     1      23.102   1.723  51.799  1.00  0.00    -0.025 A 
HETATM   11  C7  UNL     1      23.138   2.800  51.034  1.00  0.00     0.096 C 
HETATM   12  C15 UNL     1      22.018   0.921  52.350  1.00  0.00     0.101 A 
HETATM   13  N2  UNL     1      22.194   3.672  50.398  1.00  0.00    -0.363 N 
HETATM   14  C8  UNL     1      20.798   3.780  50.630  1.00  0.00     0.062 A 
HETATM   15  H6  UNL     1      22.546   4.317  49.674  1.00  0.00     0.165 HD
HETATM   16  C9  UNL     1      20.311   4.553  49.590  1.00  0.00     0.051 A 
HETATM   17  C13 UNL     1      19.884   3.323  51.582  1.00  0.00     0.082 A 
HETATM   18  C10 UNL     1      18.970   4.890  49.458  1.00  0.00     0.013 A 
HETATM   19 BR1  UNL     1      18.327   5.960  48.013  1.00  0.00    -0.051 Br
HETATM   20  C11 UNL     1      18.088   4.426  50.412  1.00  0.00     0.021 A 
HETATM   21  C12 UNL     1      18.528   3.652  51.465  1.00  0.00     0.035 A 
HETATM   22  N3  UNL     1      20.103   2.534  52.720  1.00  0.00    -0.262 NA
HETATM   23  C14 UNL     1      20.928   1.596  53.035  1.00  0.00     0.105 C 
HETATM   24  C16 UNL     1      22.626  -0.182  53.141  1.00  0.00     0.107 A 
HETATM   25  N4  UNL     1      23.889  -0.396  53.313  1.00  0.00    -0.246 NA
ENDBRANCH   6   8
ENDBRANCH   1   4
TORSDOF 2
ENDMDL
MODEL 6
REMARK VINA RESULT:      -7.7      6.667      8.212
REMARK  2 active torsions:
REMARK  status: ('A' for Active; 'I' for Inactive)
REMARK    1  A    between atoms: C1_2  and  C2_3 
REMARK       I    between atoms: C1_2  and  N1_6 
REMARK    2  A    between atoms: N1_6  and  C4_7 
ROOT
HETATM    1  C2  UNL     1      24.767   0.010  53.265  1.00  0.00     0.086 C 
HETATM    2  C3  UNL     1      25.686  -0.905  53.008  1.00  0.00     0.223 C 
HETATM    3 CL1  UNL     1      26.975  -2.009  52.590  1.00  0.00    -0.230 Cl
ENDROOT
BRANCH   1   4
HETATM    4  C1  UNL     1      24.942   1.350  52.726  1.00  0.00     0.247 C 
HETATM    5  O1  UNL     1      25.455   2.167  53.514  1.00  0.00    -0.268 OA
HETATM    6  N1  UNL     1      24.557   1.671  51.425  1.00  0.00    -0.308 N 
HETATM    7  H3  UNL     1      24.131   0.918  50.832  1.00  0.00     0.170 HD
BRANCH   6   8
HETATM    8  C4  UNL     1      24.726   2.975  50.899  1.00  0.00     0.130 A 
HETATM    9  C5  UNL     1      25.843   3.233  50.232  1.00  0.00     0.060 A 
HETATM   10  C6  UNL     1      26.011   4.601  49.684  1.00  0.00    -0.025 A 
HETATM   11  C7  UNL     1      27.193   4.492  49.102  1.00  0.00     0.096 C 
HETATM   12  C15 UNL     1      25.056   5.693  49.816  1.00  0.00     0.101 A 
HETATM   13  N2  UNL     1      28.081   5.334  48.355  1.00  0.00    -0.363 N 
HETATM   14  C8  UNL     1      28.048   6.746  48.216  1.00  0.00     0.062 A 
HETATM   15  H6  UNL     1      28.854   4.884  47.841  1.00  0.00     0.165 HD
HETATM   16  C9  UNL     1      28.934   7.036  47.192  1.00  0.00     0.051 A 
HETATM   17  C13 UNL     1      27.385   7.816  48.821  1.00  0.00     0.082 A 
HETATM   18  C10 UNL     1      29.188   8.328  46.750  1.00  0.00     0.013 A 
HETATM   19 BR1  UNL     1      30.418   8.697  45.337  1.00  0.00    -0.051 Br
HETATM   20  C11 UNL     1      28.520   9.366  47.365  1.00  0.00     0.021 A 
HETATM   21  C12 UNL     1      27.627   9.125  48.388  1.00  0.00     0.035 A 
HETATM   22  N3  UNL     1      26.447   7.807  49.864  1.00  0.00    -0.262 NA
HETATM   23  C14 UNL     1      25.536   6.990  50.265  1.00  0.00     0.105 C 
HETATM   24  C16 UNL     1      23.892   5.188  50.590  1.00  0.00     0.107 A 
HETATM   25  N4  UNL     1      23.748   3.995  51.065  1.00  0.00    -0.246 NA
ENDBRANCH   6   8
ENDBRANCH   1   4
TORSDOF 2
ENDMDL
MODEL 7
REMARK VINA RESULT:      -7.6      2.587      3.995
REMARK  2 active torsions:
REMARK  status: ('A' for Active; 'I' for Inactive)
REMARK    1  A    between atoms: C1_2  and  C2_3 
REMARK       I    between atoms: C1_2  and  N1_6 
REMARK    2  A    between atoms: N1_6  and  C4_7 
ROOT
HETATM    1  C2  UNL     1      13.143  -0.167  53.637  1.00  0.00     0.086 C 
HETATM    2  C3  UNL     1      12.527   0.674  54.450  1.00  0.00     0.223 C 
HETATM    3 CL1  UNL     1      11.829   1.881  55.505  1.00  0.00    -0.230 Cl
ENDROOT
BRANCH   1   4
HETATM    4  C1  UNL     1      14.435   0.212  53.084  1.00  0.00     0.247 C 
HETATM    5  O1  UNL     1      14.598   1.437  52.929  1.00  0.00    -0.268 OA
HETATM    6  N1  UNL     1      15.400  -0.741  52.760  1.00  0.00    -0.308 N 
HETATM    7  H3  UNL     1      15.174  -1.752  52.925  1.00  0.00     0.170 HD
BRANCH   6   8
HETATM    8  C4  UNL     1      16.657  -0.375  52.222  1.00  0.00     0.130 A 
HETATM    9  C5  UNL     1      17.733  -0.580  52.969  1.00  0.00     0.060 A 
HETATM   10  C6  UNL     1      19.046  -0.194  52.396  1.00  0.00    -0.025 A 
HETATM   11  C7  UNL     1      19.858  -0.534  53.383  1.00  0.00     0.096 C 
HETATM   12  C15 UNL     1      19.260   0.397  51.082  1.00  0.00     0.101 A 
HETATM   13  N2  UNL     1      21.266  -0.500  53.648  1.00  0.00    -0.363 N 
HETATM   14  C8  UNL     1      22.278   0.207  52.946  1.00  0.00     0.062 A 
HETATM   15  H6  UNL     1      21.621  -1.050  54.445  1.00  0.00     0.165 HD
HETATM   16  C9  UNL     1      23.477  -0.300  53.419  1.00  0.00     0.051 A 
HETATM   17  C13 UNL     1      22.337   1.208  51.974  1.00  0.00     0.082 A 
HETATM   18  C10 UNL     1      24.716   0.140  52.973  1.00  0.00     0.013 A 
HETATM   19 BR1  UNL     1      26.353  -0.578  53.645  1.00  0.00    -0.051 Br
HETATM   20  C11 UNL     1      24.746   1.129  52.012  1.00  0.00     0.021 A 
HETATM   21  C12 UNL     1      23.577   1.663  51.512  1.00  0.00     0.035 A 
HETATM   22  N3  UNL     1      21.292   1.886  51.330  1.00  0.00    -0.262 NA
HETATM   23  C14 UNL     1      20.090   1.586  50.977  1.00  0.00     0.105 C 
HETATM   24  C16 UNL     1      17.933   0.536  50.425  1.00  0.00     0.107 A 
HETATM   25  N4  UNL     1      16.791   0.197  50.927  1.00  0.00    -0.246 NA
ENDBRANCH   6   8
ENDBRANCH   1   4
TORSDOF 2
ENDMDL
MODEL 8
REMARK VINA RESULT:      -7.6      6.540      8.836
REMARK  2 active torsions:
REMARK  status: ('A' for Active; 'I' for Inactive)
REMARK    1  A    between atoms: C1_2  and  C2_3 
REMARK       I    between atoms: C1_2  and  N1_6 
REMARK    2  A    between atoms: N1_6  and  C4_7 
ROOT
HETATM    1  C2  UNL     1      26.293  10.099  48.903  1.00  0.00     0.086 C 
HETATM    2  C3  UNL     1      26.562  10.373  47.638  1.00  0.00     0.223 C 
HETATM    3 CL1  UNL     1      26.943  10.588  45.946  1.00  0.00    -0.230 Cl
ENDROOT
BRANCH   1   4
HETATM    4  C1  UNL     1      26.389   8.720  49.357  1.00  0.00     0.247 C 
HETATM    5  O1  UNL     1      27.034   8.560  50.412  1.00  0.00    -0.268 OA
HETATM    6  N1  UNL     1      25.799   7.673  48.649  1.00  0.00    -0.308 N 
HETATM    7  H3  UNL     1      25.275   7.901  47.770  1.00  0.00     0.170 HD
BRANCH   6   8
HETATM    8  C4  UNL     1      25.892   6.331  49.090  1.00  0.00     0.130 A 
HETATM    9  C5  UNL     1      24.949   5.881  49.907  1.00  0.00     0.060 A 
HETATM   10  C6  UNL     1      25.054   4.473  50.362  1.00  0.00    -0.025 A 
HETATM   11  C7  UNL     1      23.982   4.379  51.130  1.00  0.00     0.096 C 
HETATM   12  C15 UNL     1      26.107   3.536  49.993  1.00  0.00     0.101 A 
HETATM   13  N2  UNL     1      23.349   3.378  51.937  1.00  0.00    -0.363 N 
HETATM   14  C8  UNL     1      23.879   2.139  52.382  1.00  0.00     0.062 A 
HETATM   15  H6  UNL     1      22.381   3.553  52.252  1.00  0.00     0.165 HD
HETATM   16  C9  UNL     1      22.799   1.435  52.886  1.00  0.00     0.051 A 
HETATM   17  C13 UNL     1      25.131   1.521  52.424  1.00  0.00     0.082 A 
HETATM   18  C10 UNL     1      22.907   0.160  53.425  1.00  0.00     0.013 A 
HETATM   19 BR1  UNL     1      21.399  -0.786  54.114  1.00  0.00    -0.051 Br
HETATM   20  C11 UNL     1      24.155  -0.428  53.453  1.00  0.00     0.021 A 
HETATM   21  C12 UNL     1      25.260   0.235  52.962  1.00  0.00     0.035 A 
HETATM   22  N3  UNL     1      26.375   1.999  51.986  1.00  0.00    -0.262 NA
HETATM   23  C14 UNL     1      26.772   2.783  51.045  1.00  0.00     0.105 C 
HETATM   24  C16 UNL     1      27.046   4.244  49.083  1.00  0.00     0.107 A 
HETATM   25  N4  UNL     1      26.950   5.470  48.687  1.00  0.00    -0.246 NA
ENDBRANCH   6   8
ENDBRANCH   1   4
TORSDOF 2
ENDMDL
MODEL 9
REMARK VINA RESULT:      -7.5      1.815      1.993
REMARK  2 active torsions:
REMARK  status: ('A' for Active; 'I' for Inactive)
REMARK    1  A    between atoms: C1_2  and  C2_3 
REMARK       I    between atoms: C1_2  and  N1_6 
REMARK    2  A    between atoms: N1_6  and  C4_7 
ROOT
HETATM    1  C2  UNL     1      16.868   1.890  50.999  1.00  0.00     0.086 C 
HETATM    2  C3  UNL     1      16.137   2.673  51.773  1.00  0.00     0.223 C 
HETATM    3 CL1  UNL     1      15.298   3.771  52.843  1.00  0.00    -0.230 Cl
ENDROOT
BRANCH   1   4
HETATM    4  C1  UNL     1      18.315   2.044  51.014  1.00  0.00     0.247 C 
HETATM    5  O1  UNL     1      18.860   1.975  49.896  1.00  0.00    -0.268 OA
HETATM    6  N1  UNL     1      19.016   2.250  52.202  1.00  0.00    -0.308 N 
HETATM    7  H3  UNL     1      18.474   2.293  53.098  1.00  0.00     0.170 HD
BRANCH   6   8
HETATM    8  C4  UNL     1      20.424   2.400  52.218  1.00  0.00     0.130 A 
HETATM    9  C5  UNL     1      21.156   1.335  52.516  1.00  0.00     0.060 A 
HETATM   10  C6  UNL     1      22.630   1.501  52.530  1.00  0.00    -0.025 A 
HETATM   11  C7  UNL     1      23.015   0.277  52.851  1.00  0.00     0.096 C 
HETATM   12  C15 UNL     1      23.350   2.735  52.248  1.00  0.00     0.101 A 
HETATM   13  N2  UNL     1      24.252  -0.415  53.070  1.00  0.00    -0.363 N 
HETATM   14  C8  UNL     1      25.547   0.134  53.262  1.00  0.00     0.062 A 
HETATM   15  H6  UNL     1      24.229  -1.446  53.099  1.00  0.00     0.165 HD
HETATM   16  C9  UNL     1      26.419  -0.936  53.157  1.00  0.00     0.051 A 
HETATM   17  C13 UNL     1      26.095   1.395  53.508  1.00  0.00     0.082 A 
HETATM   18  C10 UNL     1      27.796  -0.810  53.288  1.00  0.00     0.013 A 
HETATM   19 BR1  UNL     1      28.974  -2.305  53.140  1.00  0.00    -0.051 Br
HETATM   20  C11 UNL     1      28.311   0.447  53.531  1.00  0.00     0.021 A 
HETATM   21  C12 UNL     1      27.480   1.542  53.642  1.00  0.00     0.035 A 
HETATM   22  N3  UNL     1      25.451   2.631  53.656  1.00  0.00    -0.262 NA
HETATM   23  C14 UNL     1      24.383   3.168  53.175  1.00  0.00     0.105 C 
HETATM   24  C16 UNL     1      22.344   3.787  51.944  1.00  0.00     0.107 A 
HETATM   25  N4  UNL     1      21.061   3.639  51.931  1.00  0.00    -0.246 NA
ENDBRANCH   6   8
ENDBRANCH   1   4
TORSDOF 2
ENDMDL
