MODEL 1
REMARK VINA RESULT:      -8.7      0.000      0.000
REMARK  4 active torsions:
REMARK  status: ('A' for Active; 'I' for Inactive)
REMARK       I    between atoms: C2_2  and  N1_4 
REMARK    1  A    between atoms: C5_7  and  N2_8 
REMARK    2  A    between atoms: N2_8  and  C6_9 
REMARK    3  A    between atoms: N3_10  and  C7_11 
REMARK    4  A    between atoms: C11_18  and  C12_19 
REMARK       I    between atoms: C12_19  and  N7_20 
ROOT
HETATM    1  C7  UNL     1      23.759   0.735  53.404  1.00  0.00     0.037 C 
HETATM    2  C8  UNL     1      24.408  -0.382  53.782  1.00  0.00     0.056 C 
HETATM    3  C9  UNL     1      25.886  -0.310  53.688  1.00  0.00     0.068 A 
HETATM    4  N4  UNL     1      26.534  -1.391  53.365  1.00  0.00    -0.159 NA
HETATM    5  N5  UNL     1      27.929  -1.317  53.278  1.00  0.00    -0.192 N 
HETATM    6  C10 UNL     1      28.620  -2.536  52.918  1.00  0.00     0.204 C 
HETATM    7  N6  UNL     1      28.558  -0.097  53.537  1.00  0.00    -0.154 NA
HETATM    8  C11 UNL     1      27.960   0.996  53.856  1.00  0.00     0.128 A 
HETATM    9  C13 UNL     1      26.505   1.021  53.973  1.00  0.00     0.099 A 
HETATM   10  C14 UNL     1      25.887   2.003  53.034  1.00  0.00     0.023 C 
HETATM   11  C15 UNL     1      24.405   1.957  52.923  1.00  0.00     0.060 C 
ENDROOT
BRANCH   1  12
HETATM   12  N3  UNL     1      22.344   0.648  53.504  1.00  0.00    -0.249 NA
HETATM   13  C6  UNL     1      21.655   1.153  52.548  1.00  0.00     0.203 C 
BRANCH  13  14
HETATM   14  N2  UNL     1      20.242   1.086  52.608  1.00  0.00    -0.380 N 
HETATM   15  H9  UNL     1      19.769   1.828  53.208  1.00  0.00     0.160 HD
BRANCH  14  16
HETATM   16  C5  UNL     1      19.478   0.079  51.903  1.00  0.00     0.085 C 
HETATM   17  C4  UNL     1      18.800   0.708  50.755  1.00  0.00     0.045 C 
HETATM   18  C3  UNL     1      17.543   0.056  50.269  1.00  0.00     0.127 C 
HETATM   19  N1  UNL     1      16.689  -0.150  51.419  1.00  0.00    -0.352 N 
HETATM   20  C2  UNL     1      15.431   0.476  51.658  1.00  0.00     0.215 C 
HETATM   21  C17 UNL     1      17.304  -1.109  52.322  1.00  0.00     0.127 C 
HETATM   22  C1  UNL     1      14.744   0.091  52.914  1.00  0.00     0.117 C 
HETATM   23  O1  UNL     1      15.109   1.280  50.721  1.00  0.00    -0.274 OA
HETATM   24  C16 UNL     1      18.590  -0.602  52.903  1.00  0.00     0.045 C 
ENDBRANCH  14  16
ENDBRANCH  13  14
ENDBRANCH   1  12
BRANCH   8  25
HETATM   25  C12 UNL     1      28.874   2.117  54.072  1.00  0.00     0.245 C 
HETATM   26  N7  UNL     1      28.970   2.993  52.959  1.00  0.00    -0.267 NA
HETATM   27  H15 UNL     1      28.958   4.042  53.089  1.00  0.00     0.127 HD
HETATM   28  H16 UNL     1      28.948   4.023  53.199  1.00  0.00     0.127 HD
HETATM   29  O2  UNL     1      29.480   2.225  55.166  1.00  0.00    -0.273 OA
ENDBRANCH   8  25
TORSDOF 4
ENDMDL
MODEL 2
REMARK VINA RESULT:      -8.6      2.393      3.246
REMARK  4 active torsions:
REMARK  status: ('A' for Active; 'I' for Inactive)
REMARK       I    between atoms: C2_2  and  N1_4 
REMARK    1  A    between atoms: C5_7  and  N2_8 
REMARK    2  A    between atoms: N2_8  and  C6_9 
REMARK    3  A    between atoms: N3_10  and  C7_11 
REMARK    4  A    between atoms: C11_18  and  C12_19 
REMARK       I    between atoms: C12_19  and  N7_20 
ROOT
HETATM    1  C7  UNL     1      23.915   0.591  53.164  1.00  0.00     0.037 C 
HETATM    2  C8  UNL     1      24.568  -0.499  53.606  1.00  0.00     0.056 C 
HETATM    3  C9  UNL     1      26.046  -0.390  53.599  1.00  0.00     0.068 A 
HETATM    4  N4  UNL     1      26.740  -1.460  53.342  1.00  0.00    -0.159 NA
HETATM    5  N5  UNL     1      28.135  -1.350  53.337  1.00  0.00    -0.192 N 
HETATM    6  C10 UNL     1      28.877  -2.559  53.049  1.00  0.00     0.204 C 
HETATM    7  N6  UNL     1      28.716  -0.109  53.604  1.00  0.00    -0.154 NA
HETATM    8  C11 UNL     1      28.073   0.975  53.860  1.00  0.00     0.128 A 
HETATM    9  C13 UNL     1      26.613   0.963  53.889  1.00  0.00     0.099 A 
HETATM   10  C14 UNL     1      26.028   1.907  52.891  1.00  0.00     0.023 C 
HETATM   11  C15 UNL     1      24.557   1.818  52.693  1.00  0.00     0.060 C 
ENDROOT
BRANCH   1  12
HETATM   12  N3  UNL     1      22.499   0.468  53.180  1.00  0.00    -0.249 NA
HETATM   13  C6  UNL     1      21.913   0.254  52.061  1.00  0.00     0.203 C 
BRANCH  13  14
HETATM   14  N2  UNL     1      20.504   0.125  52.033  1.00  0.00    -0.380 N 
HETATM   15  H9  UNL     1      20.104  -0.700  52.573  1.00  0.00     0.160 HD
BRANCH  14  16
HETATM   16  C5  UNL     1      19.650   1.051  51.320  1.00  0.00     0.085 C 
HETATM   17  C4  UNL     1      20.149   1.200  49.941  1.00  0.00     0.045 C 
HETATM   18  C3  UNL     1      19.831   2.483  49.239  1.00  0.00     0.127 C 
HETATM   19  N1  UNL     1      20.207   3.566  50.124  1.00  0.00    -0.352 N 
HETATM   20  C2  UNL     1      21.241   4.521  49.897  1.00  0.00     0.215 C 
HETATM   21  C17 UNL     1      19.364   3.547  51.308  1.00  0.00     0.127 C 
HETATM   22  C1  UNL     1      21.427   5.539  50.958  1.00  0.00     0.117 C 
HETATM   23  O1  UNL     1      21.840   4.324  48.787  1.00  0.00    -0.274 OA
HETATM   24  C16 UNL     1      19.564   2.311  52.131  1.00  0.00     0.045 C 
ENDBRANCH  14  16
ENDBRANCH  13  14
ENDBRANCH   1  12
BRANCH   8  25
HETATM   25  C12 UNL     1      28.943   2.124  54.103  1.00  0.00     0.245 C 
HETATM   26  N7  UNL     1      29.044   3.005  52.994  1.00  0.00    -0.267 NA
HETATM   27  H15 UNL     1      28.994   4.052  53.124  1.00  0.00     0.127 HD
HETATM   28  H16 UNL     1      28.981   4.033  53.234  1.00  0.00     0.127 HD
HETATM   29  O2  UNL     1      29.513   2.250  55.215  1.00  0.00    -0.273 OA
ENDBRANCH   8  25
TORSDOF 4
ENDMDL
MODEL 3
REMARK VINA RESULT:      -8.5      1.667      2.541
REMARK  4 active torsions:
REMARK  status: ('A' for Active; 'I' for Inactive)
REMARK       I    between atoms: C2_2  and  N1_4 
REMARK    1  A    between atoms: C5_7  and  N2_8 
REMARK    2  A    between atoms: N2_8  and  C6_9 
REMARK    3  A    between atoms: N3_10  and  C7_11 
REMARK    4  A    between atoms: C11_18  and  C12_19 
REMARK       I    between atoms: C12_19  and  N7_20 
ROOT
HETATM    1  C7  UNL     1      23.248  -0.783  54.134  1.00  0.00     0.037 C 
HETATM    2  C8  UNL     1      23.506  -0.232  52.934  1.00  0.00     0.056 C 
HETATM    3  C9  UNL     1      24.905   0.217  52.738  1.00  0.00     0.068 A 
HETATM    4  N4  UNL     1      25.114   1.279  52.015  1.00  0.00    -0.159 NA
HETATM    5  N5  UNL     1      26.438   1.698  51.834  1.00  0.00    -0.192 N 
HETATM    6  C10 UNL     1      26.636   2.881  51.025  1.00  0.00     0.204 C 
HETATM    7  N6  UNL     1      27.465   0.967  52.433  1.00  0.00    -0.154 NA
HETATM    8  C11 UNL     1      27.308  -0.085  53.156  1.00  0.00     0.128 A 
HETATM    9  C13 UNL     1      25.965  -0.602  53.403  1.00  0.00     0.099 A 
HETATM   10  C14 UNL     1      25.641  -0.639  54.861  1.00  0.00     0.023 C 
HETATM   11  C15 UNL     1      24.228  -0.948  55.207  1.00  0.00     0.060 C 
ENDROOT
BRANCH   1  12
HETATM   12  N3  UNL     1      21.903  -1.210  54.302  1.00  0.00    -0.249 NA
HETATM   13  C6  UNL     1      20.980  -0.429  53.876  1.00  0.00     0.203 C 
BRANCH  13  14
HETATM   14  N2  UNL     1      19.627  -0.817  54.024  1.00  0.00    -0.380 N 
HETATM   15  H9  UNL     1      19.263  -0.858  55.023  1.00  0.00     0.160 HD
BRANCH  14  16
HETATM   16  C5  UNL     1      18.780  -1.139  52.894  1.00  0.00     0.085 C 
HETATM   17  C4  UNL     1      18.802  -0.014  51.942  1.00  0.00     0.045 C 
HETATM   18  C3  UNL     1      17.606   0.149  51.057  1.00  0.00     0.127 C 
HETATM   19  N1  UNL     1      16.432   0.113  51.903  1.00  0.00    -0.352 N 
HETATM   20  C2  UNL     1      15.525   1.189  52.132  1.00  0.00     0.215 C 
HETATM   21  C17 UNL     1      16.299  -1.203  52.503  1.00  0.00     0.127 C 
HETATM   22  C1  UNL     1      14.392   0.898  53.042  1.00  0.00     0.117 C 
HETATM   23  O1  UNL     1      15.859   2.243  51.495  1.00  0.00    -0.274 OA
HETATM   24  C16 UNL     1      17.433  -1.525  53.430  1.00  0.00     0.045 C 
ENDBRANCH  14  16
ENDBRANCH  13  14
ENDBRANCH   1  12
BRANCH   8  25
HETATM   25  C12 UNL     1      28.565  -0.644  53.650  1.00  0.00     0.245 C 
HETATM   26  N7  UNL     1      28.706  -2.034  53.397  1.00  0.00    -0.267 NA
HETATM   27  H15 UNL     1      29.618  -2.433  53.040  1.00  0.00     0.127 HD
HETATM   28  H16 UNL     1      29.659  -2.328  53.042  1.00  0.00     0.127 HD
HETATM   29  O2  UNL     1      29.391   0.100  54.233  1.00  0.00    -0.273 OA
ENDBRANCH   8  25
TORSDOF 4
ENDMDL
MODEL 4
REMARK VINA RESULT:      -8.5      3.966      5.045
REMARK  4 active torsions:
REMARK  status: ('A' for Active; 'I' for Inactive)
REMARK       I    between atoms: C2_2  and  N1_4 
REMARK    1  A    between atoms: C5_7  and  N2_8 
REMARK    2  A    between atoms: N2_8  and  C6_9 
REMARK    3  A    between atoms: N3_10  and  C7_11 
REMARK    4  A    between atoms: C11_18  and  C12_19 
REMARK       I    between atoms: C12_19  and  N7_20 
ROOT
HETATM    1  C7  UNL     1      23.999   1.929  52.900  1.00  0.00     0.037 C 
HETATM    2  C8  UNL     1      25.248   2.427  52.854  1.00  0.00     0.056 C 
HETATM    3  C9  UNL     1      26.326   1.438  53.091  1.00  0.00     0.068 A 
HETATM    4  N4  UNL     1      27.397   1.834  53.715  1.00  0.00    -0.159 NA
HETATM    5  N5  UNL     1      28.411   0.894  53.935  1.00  0.00    -0.192 N 
HETATM    6  C10 UNL     1      29.589   1.367  54.631  1.00  0.00     0.204 C 
HETATM    7  N6  UNL     1      28.231  -0.414  53.481  1.00  0.00    -0.154 NA
HETATM    8  C11 UNL     1      27.192  -0.851  52.862  1.00  0.00     0.128 A 
HETATM    9  C13 UNL     1      26.079   0.052  52.585  1.00  0.00     0.099 A 
HETATM   10  C14 UNL     1      24.807  -0.422  53.208  1.00  0.00     0.023 C 
HETATM   11  C15 UNL     1      23.664   0.529  53.164  1.00  0.00     0.060 C 
ENDROOT
BRANCH   1  12
HETATM   12  N3  UNL     1      22.979   2.892  52.668  1.00  0.00    -0.249 NA
HETATM   13  C6  UNL     1      23.336   4.120  52.590  1.00  0.00     0.203 C 
BRANCH  13  14
HETATM   14  N2  UNL     1      22.351   5.110  52.360  1.00  0.00    -0.380 N 
HETATM   15  H9  UNL     1      21.909   5.536  53.230  1.00  0.00     0.160 HD
BRANCH  14  16
HETATM   16  C5  UNL     1      21.960   5.527  51.030  1.00  0.00     0.085 C 
HETATM   17  C4  UNL     1      20.620   4.989  50.733  1.00  0.00     0.045 C 
HETATM   18  C3  UNL     1      20.280   4.773  49.292  1.00  0.00     0.127 C 
HETATM   19  N1  UNL     1      21.364   4.018  48.699  1.00  0.00    -0.352 N 
HETATM   20  C2  UNL     1      21.285   2.691  48.184  1.00  0.00     0.215 C 
HETATM   21  C17 UNL     1      22.577   4.819  48.700  1.00  0.00     0.127 C 
HETATM   22  C1  UNL     1      22.541   2.139  47.622  1.00  0.00     0.117 C 
HETATM   23  O1  UNL     1      20.113   2.199  48.301  1.00  0.00    -0.274 OA
HETATM   24  C16 UNL     1      23.056   5.128  50.086  1.00  0.00     0.045 C 
ENDBRANCH  14  16
ENDBRANCH  13  14
ENDBRANCH   1  12
BRANCH   8  25
HETATM   25  C12 UNL     1      27.281  -2.265  52.504  1.00  0.00     0.245 C 
HETATM   26  N7  UNL     1      28.301  -2.965  53.202  1.00  0.00    -0.267 NA
HETATM   27  H15 UNL     1      28.122  -3.923  53.611  1.00  0.00     0.127 HD
HETATM   28  H16 UNL     1      28.017  -3.915  53.571  1.00  0.00     0.127 HD
HETATM   29  O2  UNL     1      26.493  -2.742  51.651  1.00  0.00    -0.273 OA
ENDBRANCH   8  25
TORSDOF 4
ENDMDL
MODEL 5
REMARK VINA RESULT:      -8.3      5.276      9.876
REMARK  4 active torsions:
REMARK  status: ('A' for Active; 'I' for Inactive)
REMARK       I    between atoms: C2_2  and  N1_4 
REMARK    1  A    between atoms: C5_7  and  N2_8 
REMARK    2  A    between atoms: N2_8  and  C6_9 
REMARK    3  A    between atoms: N3_10  and  C7_11 
REMARK    4  A    between atoms: C11_18  and  C12_19 
REMARK       I    between atoms: C12_19  and  N7_20 
ROOT
HETATM    1  C7  UNL     1      25.309   3.526  50.796  1.00  0.00     0.037 C 
HETATM    2  C8  UNL     1      24.221   3.272  51.545  1.00  0.00     0.056 C 
HETATM    3  C9  UNL     1      24.211   1.945  52.206  1.00  0.00     0.068 A 
HETATM    4  N4  UNL     1      23.068   1.340  52.351  1.00  0.00    -0.159 NA
HETATM    5  N5  UNL     1      23.066   0.087  52.976  1.00  0.00    -0.192 N 
HETATM    6  C10 UNL     1      21.779  -0.559  53.123  1.00  0.00     0.204 C 
HETATM    7  N6  UNL     1      24.277  -0.454  53.410  1.00  0.00    -0.154 NA
HETATM    8  C11 UNL     1      25.429   0.105  53.286  1.00  0.00     0.128 A 
HETATM    9  C13 UNL     1      25.536   1.413  52.648  1.00  0.00     0.099 A 
HETATM   10  C14 UNL     1      26.419   1.376  51.444  1.00  0.00     0.023 C 
HETATM   11  C15 UNL     1      26.427   2.603  50.603  1.00  0.00     0.060 C 
ENDROOT
BRANCH   1  12
HETATM   12  N3  UNL     1      25.302   4.803  50.173  1.00  0.00    -0.249 NA
HETATM   13  C6  UNL     1      26.343   5.139  49.506  1.00  0.00     0.203 C 
BRANCH  13  14
HETATM   14  N2  UNL     1      26.376   6.402  48.869  1.00  0.00    -0.380 N 
HETATM   15  H9  UNL     1      25.603   7.080  49.143  1.00  0.00     0.160 HD
BRANCH  14  16
HETATM   16  C5  UNL     1      27.394   6.763  47.903  1.00  0.00     0.085 C 
HETATM   17  C4  UNL     1      28.618   5.994  48.186  1.00  0.00     0.045 C 
HETATM   18  C3  UNL     1      29.915   6.598  47.748  1.00  0.00     0.127 C 
HETATM   19  N1  UNL     1      29.947   7.960  48.239  1.00  0.00    -0.352 N 
HETATM   20  C2  UNL     1      30.846   8.484  49.213  1.00  0.00     0.215 C 
HETATM   21  C17 UNL     1      28.910   8.741  47.585  1.00  0.00     0.127 C 
HETATM   22  C1  UNL     1      30.676   9.919  49.544  1.00  0.00     0.117 C 
HETATM   23  O1  UNL     1      31.661   7.599  49.640  1.00  0.00    -0.274 OA
HETATM   24  C16 UNL     1      27.532   8.257  47.925  1.00  0.00     0.045 C 
ENDBRANCH  14  16
ENDBRANCH  13  14
ENDBRANCH   1  12
BRANCH   8  25
HETATM   25  C12 UNL     1      26.524  -0.693  53.836  1.00  0.00     0.245 C 
HETATM   26  N7  UNL     1      27.058  -0.169  55.043  1.00  0.00    -0.267 NA
HETATM   27  H15 UNL     1      27.275  -0.801  55.861  1.00  0.00     0.127 HD
HETATM   28  H16 UNL     1      27.239  -0.887  55.799  1.00  0.00     0.127 HD
HETATM   29  O2  UNL     1      26.899  -1.732  53.239  1.00  0.00    -0.273 OA
ENDBRANCH   8  25
TORSDOF 4
ENDMDL
MODEL 6
REMARK VINA RESULT:      -8.3      4.642      6.590
REMARK  4 active torsions:
REMARK  status: ('A' for Active; 'I' for Inactive)
REMARK       I    between atoms: C2_2  and  N1_4 
REMARK    1  A    between atoms: C5_7  and  N2_8 
REMARK    2  A    between atoms: N2_8  and  C6_9 
REMARK    3  A    between atoms: N3_10  and  C7_11 
REMARK    4  A    between atoms: C11_18  and  C12_19 
REMARK       I    between atoms: C12_19  and  N7_20 
ROOT
HETATM    1  C7  UNL     1      23.895   1.681  52.710  1.00  0.00     0.037 C 
HETATM    2  C8  UNL     1      25.114   2.247  52.652  1.00  0.00     0.056 C 
HETATM    3  C9  UNL     1      26.243   1.336  52.951  1.00  0.00     0.068 A 
HETATM    4  N4  UNL     1      27.281   1.825  53.566  1.00  0.00    -0.159 NA
HETATM    5  N5  UNL     1      28.345   0.958  53.845  1.00  0.00    -0.192 N 
HETATM    6  C10 UNL     1      29.484   1.533  54.528  1.00  0.00     0.204 C 
HETATM    7  N6  UNL     1      28.246  -0.379  53.457  1.00  0.00    -0.154 NA
HETATM    8  C11 UNL     1      27.242  -0.907  52.851  1.00  0.00     0.128 A 
HETATM    9  C13 UNL     1      26.083  -0.085  52.515  1.00  0.00     0.099 A 
HETATM   10  C14 UNL     1      24.832  -0.600  53.148  1.00  0.00     0.023 C 
HETATM   11  C15 UNL     1      23.638   0.279  53.042  1.00  0.00     0.060 C 
ENDROOT
BRANCH   1  12
HETATM   12  N3  UNL     1      22.825   2.569  52.418  1.00  0.00    -0.249 NA
HETATM   13  C6  UNL     1      23.129   3.773  52.099  1.00  0.00     0.203 C 
BRANCH  13  14
HETATM   14  N2  UNL     1      22.093   4.689  51.801  1.00  0.00    -0.380 N 
HETATM   15  H9  UNL     1      21.104   4.296  51.830  1.00  0.00     0.160 HD
BRANCH  14  16
HETATM   16  C5  UNL     1      22.348   6.077  51.475  1.00  0.00     0.085 C 
HETATM   17  C4  UNL     1      21.720   6.389  50.179  1.00  0.00     0.045 C 
HETATM   18  C3  UNL     1      22.323   7.504  49.384  1.00  0.00     0.127 C 
HETATM   19  N1  UNL     1      23.749   7.260  49.306  1.00  0.00    -0.352 N 
HETATM   20  C2  UNL     1      24.490   6.963  48.125  1.00  0.00     0.215 C 
HETATM   21  C17 UNL     1      24.337   7.360  50.631  1.00  0.00     0.127 C 
HETATM   22  C1  UNL     1      25.946   6.757  48.310  1.00  0.00     0.117 C 
HETATM   23  O1  UNL     1      23.747   6.927  47.088  1.00  0.00    -0.274 OA
HETATM   24  C16 UNL     1      23.830   6.300  51.562  1.00  0.00     0.045 C 
ENDBRANCH  14  16
ENDBRANCH  13  14
ENDBRANCH   1  12
BRANCH   8  25
HETATM   25  C12 UNL     1      27.417  -2.331  52.567  1.00  0.00     0.245 C 
HETATM   26  N7  UNL     1      28.487  -2.926  53.287  1.00  0.00    -0.267 NA
HETATM   27  H15 UNL     1      28.374  -3.869  53.749  1.00  0.00     0.127 HD
HETATM   28  H16 UNL     1      28.269  -3.870  53.710  1.00  0.00     0.127 HD
HETATM   29  O2  UNL     1      26.653  -2.902  51.752  1.00  0.00    -0.273 OA
ENDBRANCH   8  25
TORSDOF 4
ENDMDL
MODEL 7
REMARK VINA RESULT:      -8.1      5.425      8.714
REMARK  4 active torsions:
REMARK  status: ('A' for Active; 'I' for Inactive)
REMARK       I    between atoms: C2_2  and  N1_4 
REMARK    1  A    between atoms: C5_7  and  N2_8 
REMARK    2  A    between atoms: N2_8  and  C6_9 
REMARK    3  A    between atoms: N3_10  and  C7_11 
REMARK    4  A    between atoms: C11_18  and  C12_19 
REMARK       I    between atoms: C12_19  and  N7_20 
ROOT
HETATM    1  C7  UNL     1      25.555   2.895  51.096  1.00  0.00     0.037 C 
HETATM    2  C8  UNL     1      26.612   2.063  51.117  1.00  0.00     0.056 C 
HETATM    3  C9  UNL     1      26.663   1.144  52.279  1.00  0.00     0.068 A 
HETATM    4  N4  UNL     1      27.829   0.828  52.762  1.00  0.00    -0.159 NA
HETATM    5  N5  UNL     1      27.870  -0.040  53.859  1.00  0.00    -0.192 N 
HETATM    6  C10 UNL     1      29.182  -0.372  54.372  1.00  0.00     0.204 C 
HETATM    7  N6  UNL     1      26.669  -0.524  54.383  1.00  0.00    -0.154 NA
HETATM    8  C11 UNL     1      25.496  -0.239  53.942  1.00  0.00     0.128 A 
HETATM    9  C13 UNL     1      25.348   0.659  52.800  1.00  0.00     0.099 A 
HETATM   10  C14 UNL     1      24.538   1.867  53.141  1.00  0.00     0.023 C 
HETATM   11  C15 UNL     1      24.505   2.941  52.113  1.00  0.00     0.060 C 
ENDROOT
BRANCH   1  12
HETATM   12  N3  UNL     1      25.522   3.766  49.973  1.00  0.00    -0.249 NA
HETATM   13  C6  UNL     1      24.829   4.839  50.081  1.00  0.00     0.203 C 
BRANCH  13  14
HETATM   14  N2  UNL     1      24.771   5.734  48.987  1.00  0.00    -0.380 N 
HETATM   15  H9  UNL     1      24.676   5.286  48.026  1.00  0.00     0.160 HD
BRANCH  14  16
HETATM   16  C5  UNL     1      24.835   7.172  49.150  1.00  0.00     0.085 C 
HETATM   17  C4  UNL     1      25.060   7.795  47.834  1.00  0.00     0.045 C 
HETATM   18  C3  UNL     1      25.736   9.130  47.821  1.00  0.00     0.127 C 
HETATM   19  N1  UNL     1      26.929   9.019  48.633  1.00  0.00    -0.352 N 
HETATM   20  C2  UNL     1      28.275   9.124  48.174  1.00  0.00     0.215 C 
HETATM   21  C17 UNL     1      26.560   8.779  50.018  1.00  0.00     0.127 C 
HETATM   22  C1  UNL     1      29.325   8.977  49.209  1.00  0.00     0.117 C 
HETATM   23  O1  UNL     1      28.338   9.332  46.916  1.00  0.00    -0.274 OA
HETATM   24  C16 UNL     1      25.863   7.465  50.204  1.00  0.00     0.045 C 
ENDBRANCH  14  16
ENDBRANCH  13  14
ENDBRANCH   1  12
BRANCH   8  25
HETATM   25  C12 UNL     1      24.420  -0.893  54.685  1.00  0.00     0.245 C 
HETATM   26  N7  UNL     1      24.834  -1.418  55.938  1.00  0.00    -0.267 NA
HETATM   27  H15 UNL     1      24.244  -1.285  56.805  1.00  0.00     0.127 HD
HETATM   28  H16 UNL     1      24.171  -1.228  56.741  1.00  0.00     0.127 HD
HETATM   29  O2  UNL     1      23.266  -0.945  54.195  1.00  0.00    -0.273 OA
ENDBRANCH   8  25
TORSDOF 4
ENDMDL
MODEL 8
REMARK VINA RESULT:      -7.9      5.999      9.322
REMARK  4 active torsions:
REMARK  status: ('A' for Active; 'I' for Inactive)
REMARK       I    between atoms: C2_2  and  N1_4 
REMARK    1  A    between atoms: C5_7  and  N2_8 
REMARK    2  A    between atoms: N2_8  and  C6_9 
REMARK    3  A    between atoms: N3_10  and  C7_11 
REMARK    4  A    between atoms: C11_18  and  C12_19 
REMARK       I    between atoms: C12_19  and  N7_20 
ROOT
HETATM    1  C7  UNL     1      25.330   3.501  50.903  1.00  0.00     0.037 C 
HETATM    2  C8  UNL     1      24.258   3.188  51.654  1.00  0.00     0.056 C 
HETATM    3  C9  UNL     1      24.300   1.844  52.277  1.00  0.00     0.068 A 
HETATM    4  N4  UNL     1      23.181   1.196  52.415  1.00  0.00    -0.159 NA
HETATM    5  N5  UNL     1      23.227  -0.073  53.005  1.00  0.00    -0.192 N 
HETATM    6  C10 UNL     1      21.965  -0.767  53.144  1.00  0.00     0.204 C 
HETATM    7  N6  UNL     1      24.461  -0.584  53.413  1.00  0.00    -0.154 NA
HETATM    8  C11 UNL     1      25.592   0.018  53.295  1.00  0.00     0.128 A 
HETATM    9  C13 UNL     1      25.648   1.347  52.693  1.00  0.00     0.099 A 
HETATM   10  C14 UNL     1      26.519   1.374  51.481  1.00  0.00     0.023 C 
HETATM   11  C15 UNL     1      26.478   2.623  50.675  1.00  0.00     0.060 C 
ENDROOT
BRANCH   1  12
HETATM   12  N3  UNL     1      25.273   4.794  50.316  1.00  0.00    -0.249 NA
HETATM   13  C6  UNL     1      26.074   5.037  49.346  1.00  0.00     0.203 C 
BRANCH  13  14
HETATM   14  N2  UNL     1      26.049   6.312  48.733  1.00  0.00    -0.380 N 
HETATM   15  H9  UNL     1      25.166   6.546  48.188  1.00  0.00     0.160 HD
BRANCH  14  16
HETATM   16  C5  UNL     1      27.149   7.249  48.835  1.00  0.00     0.085 C 
HETATM   17  C4  UNL     1      26.793   8.303  49.802  1.00  0.00     0.045 C 
HETATM   18  C3  UNL     1      27.459   9.632  49.632  1.00  0.00     0.127 C 
HETATM   19  N1  UNL     1      27.300  10.022  48.247  1.00  0.00    -0.352 N 
HETATM   20  C2  UNL     1      26.547  11.133  47.765  1.00  0.00     0.215 C 
HETATM   21  C17 UNL     1      28.033   9.104  47.391  1.00  0.00     0.127 C 
HETATM   22  C1  UNL     1      26.544  11.324  46.295  1.00  0.00     0.117 C 
HETATM   23  O1  UNL     1      25.993  11.785  48.712  1.00  0.00    -0.274 OA
HETATM   24  C16 UNL     1      27.484   7.710  47.447  1.00  0.00     0.045 C 
ENDBRANCH  14  16
ENDBRANCH  13  14
ENDBRANCH   1  12
BRANCH   8  25
HETATM   25  C12 UNL     1      26.719  -0.756  53.813  1.00  0.00     0.245 C 
HETATM   26  N7  UNL     1      27.350  -0.159  54.936  1.00  0.00    -0.267 NA
HETATM   27  H15 UNL     1      27.624  -0.736  55.777  1.00  0.00     0.127 HD
HETATM   28  H16 UNL     1      27.582  -0.826  55.724  1.00  0.00     0.127 HD
HETATM   29  O2  UNL     1      27.036  -1.839  53.262  1.00  0.00    -0.273 OA
ENDBRANCH   8  25
TORSDOF 4
ENDMDL
MODEL 9
REMARK VINA RESULT:      -7.9      5.840      8.917
REMARK  4 active torsions:
REMARK  status: ('A' for Active; 'I' for Inactive)
REMARK       I    between atoms: C2_2  and  N1_4 
REMARK    1  A    between atoms: C5_7  and  N2_8 
REMARK    2  A    between atoms: N2_8  and  C6_9 
REMARK    3  A    between atoms: N3_10  and  C7_11 
REMARK    4  A    between atoms: C11_18  and  C12_19 
REMARK       I    between atoms: C12_19  and  N7_20 
ROOT
HETATM    1  C7  UNL     1      25.702   5.189  49.155  1.00  0.00     0.037 C 
HETATM    2  C8  UNL     1      27.031   4.987  49.205  1.00  0.00     0.056 C 
HETATM    3  C9  UNL     1      27.854   6.083  48.642  1.00  0.00     0.068 A 
HETATM    4  N4  UNL     1      28.962   5.772  48.036  1.00  0.00    -0.159 NA
HETATM    5  N5  UNL     1      29.735   6.813  47.507  1.00  0.00    -0.192 N 
HETATM    6  C10 UNL     1      30.961   6.432  46.840  1.00  0.00     0.204 C 
HETATM    7  N6  UNL     1      29.285   8.127  47.650  1.00  0.00    -0.154 NA
HETATM    8  C11 UNL     1      28.198   8.483  48.238  1.00  0.00     0.128 A 
HETATM    9  C13 UNL     1      27.324   7.470  48.823  1.00  0.00     0.099 A 
HETATM   10  C14 UNL     1      25.957   7.500  48.223  1.00  0.00     0.023 C 
HETATM   11  C15 UNL     1      25.056   6.377  48.596  1.00  0.00     0.060 C 
ENDROOT
BRANCH   1  12
HETATM   12  N3  UNL     1      24.930   4.128  49.702  1.00  0.00    -0.249 NA
HETATM   13  C6  UNL     1      25.140   3.817  50.927  1.00  0.00     0.203 C 
BRANCH  13  14
HETATM   14  N2  UNL     1      24.392   2.767  51.510  1.00  0.00    -0.380 N 
HETATM   15  H9  UNL     1      23.465   3.047  51.951  1.00  0.00     0.160 HD
BRANCH  14  16
HETATM   16  C5  UNL     1      24.848   1.392  51.511  1.00  0.00     0.085 C 
HETATM   17  C4  UNL     1      24.194   0.672  52.618  1.00  0.00     0.045 C 
HETATM   18  C3  UNL     1      24.916  -0.515  53.176  1.00  0.00     0.127 C 
HETATM   19  N1  UNL     1      26.274  -0.100  53.461  1.00  0.00    -0.352 N 
HETATM   20  C2  UNL     1      26.877  -0.017  54.750  1.00  0.00     0.215 C 
HETATM   21  C17 UNL     1      26.958   0.228  52.222  1.00  0.00     0.127 C 
HETATM   22  C1  UNL     1      28.289   0.432  54.777  1.00  0.00     0.117 C 
HETATM   23  O1  UNL     1      26.070  -0.354  55.681  1.00  0.00    -0.274 OA
HETATM   24  C16 UNL     1      26.348   1.410  51.529  1.00  0.00     0.045 C 
ENDBRANCH  14  16
ENDBRANCH  13  14
ENDBRANCH   1  12
BRANCH   8  25
HETATM   25  C12 UNL     1      27.985   9.929  48.239  1.00  0.00     0.245 C 
HETATM   26  N7  UNL     1      27.876  10.486  49.540  1.00  0.00    -0.267 NA
HETATM   27  H15 UNL     1      28.374  11.384  49.792  1.00  0.00     0.127 HD
HETATM   28  H16 UNL     1      28.415  11.386  49.687  1.00  0.00     0.127 HD
HETATM   29  O2  UNL     1      27.916  10.549  47.149  1.00  0.00    -0.273 OA
ENDBRANCH   8  25
TORSDOF 4
ENDMDL
