MODEL 1
REMARK VINA RESULT:      -9.0      0.000      0.000
REMARK  7 active torsions:
REMARK  status: ('A' for Active; 'I' for Inactive)
REMARK    1  A    between atoms: C6_6  and  C7_7 
REMARK    2  A    between atoms: C7_7  and  C8_8 
REMARK    3  A    between atoms: C11_11  and  C12_12 
REMARK    4  A    between atoms: N1_14  and  C14_15 
REMARK    5  A    between atoms: C16_17  and  C17_18 
REMARK    6  A    between atoms: C17_18  and  N2_19 
REMARK    7  A    between atoms: C24_28  and  N5_29 
ROOT
HETATM    1  C12 UNL     1      24.322   1.606  52.056  1.00  0.00     0.007 A 
HETATM    2  C13 UNL     1      23.242   0.846  52.522  1.00  0.00     0.106 A 
HETATM    3  N1  UNL     1      23.596   0.050  53.525  1.00  0.00    -0.335 N 
HETATM    4  C22 UNL     1      24.901   0.226  53.783  1.00  0.00     0.146 A 
HETATM    5  N3  UNL     1      25.738  -0.310  54.687  1.00  0.00    -0.223 NA
HETATM    6  C23 UNL     1      27.031   0.042  54.776  1.00  0.00     0.237 A 
HETATM    7  N4  UNL     1      27.472   0.975  53.904  1.00  0.00    -0.224 NA
HETATM    8  C24 UNL     1      26.640   1.510  53.001  1.00  0.00     0.137 A 
HETATM    9  C25 UNL     1      25.316   1.169  52.886  1.00  0.00     0.068 A 
ENDROOT
BRANCH   1  10
HETATM   10  C11 UNL     1      24.282   2.579  51.009  1.00  0.00    -0.027 A 
HETATM   11  C10 UNL     1      23.238   2.463  49.963  1.00  0.00     0.009 A 
HETATM   12  C9  UNL     1      23.197   3.405  49.061  1.00  0.00    -0.017 A 
HETATM   13  C8  UNL     1      24.288   4.349  49.409  1.00  0.00     0.034 A 
HETATM   14  C26 UNL     1      24.835   3.688  50.610  1.00  0.00    -0.006 A 
BRANCH  13  15
HETATM   15  C7  UNL     1      23.660   5.668  49.786  1.00  0.00     0.044 C 
BRANCH  15  16
HETATM   16  C6  UNL     1      24.261   6.816  48.987  1.00  0.00     0.123 C 
HETATM   17  C5  UNL     1      24.863   7.824  49.927  1.00  0.00     0.035 C 
HETATM   18  C4  UNL     1      26.331   7.641  49.747  1.00  0.00     0.040 C 
HETATM   19  C2  UNL     1      26.433   6.974  48.394  1.00  0.00     0.054 C 
HETATM   20  C1  UNL     1      26.800   7.947  47.307  1.00  0.00     0.045 C 
HETATM   21  C3  UNL     1      27.489   5.871  48.530  1.00  0.00     0.045 C 
HETATM   22  O1  UNL     1      25.235   6.372  48.143  1.00  0.00    -0.376 OA
ENDBRANCH  15  16
ENDBRANCH  13  15
ENDBRANCH   1  10
BRANCH   3  23
HETATM   23  C14 UNL     1      22.790  -0.875  54.262  1.00  0.00     0.092 A 
HETATM   24  C15 UNL     1      21.949  -1.696  53.281  1.00  0.00     0.032 A 
HETATM   25  C16 UNL     1      20.725  -1.218  53.984  1.00  0.00     0.018 A 
HETATM   26  C21 UNL     1      21.564  -0.387  54.941  1.00  0.00     0.032 A 
BRANCH  25  27
HETATM   27  C17 UNL     1      19.791  -0.356  53.121  1.00  0.00     0.277 C 
BRANCH  27  28
HETATM   28  N2  UNL     1      18.454  -0.799  53.472  1.00  0.00     0.088 N 
HETATM   29  C18 UNL     1      18.442  -2.265  53.607  1.00  0.00     0.274 C 
HETATM   30  C19 UNL     1      17.029  -2.214  53.067  1.00  0.00     0.060 C 
HETATM   31  C20 UNL     1      17.527  -0.959  52.383  1.00  0.00     0.274 C 
ENDBRANCH  27  28
ENDBRANCH  25  27
ENDBRANCH   3  23
BRANCH   8  32
HETATM   32  N5  UNL     1      27.247   2.476  52.212  1.00  0.00    -0.383 N 
HETATM   33  H33 UNL     1      27.340   2.111  51.255  1.00  0.00     0.157 HD
HETATM   34  H34 UNL     1      27.596   3.454  52.435  1.00  0.00     0.157 HD
ENDBRANCH   8  32
TORSDOF 7
ENDMDL
MODEL 2
REMARK VINA RESULT:      -8.7      1.665      2.907
REMARK  7 active torsions:
REMARK  status: ('A' for Active; 'I' for Inactive)
REMARK    1  A    between atoms: C6_6  and  C7_7 
REMARK    2  A    between atoms: C7_7  and  C8_8 
REMARK    3  A    between atoms: C11_11  and  C12_12 
REMARK    4  A    between atoms: N1_14  and  C14_15 
REMARK    5  A    between atoms: C16_17  and  C17_18 
REMARK    6  A    between atoms: C17_18  and  N2_19 
REMARK    7  A    between atoms: C24_28  and  N5_29 
ROOT
HETATM    1  C12 UNL     1      25.378   1.936  52.180  1.00  0.00     0.007 A 
HETATM    2  C13 UNL     1      24.253   1.113  52.312  1.00  0.00     0.106 A 
HETATM    3  N1  UNL     1      24.425   0.188  53.251  1.00  0.00    -0.335 N 
HETATM    4  C22 UNL     1      25.645   0.334  53.788  1.00  0.00     0.146 A 
HETATM    5  N3  UNL     1      26.303  -0.317  54.763  1.00  0.00    -0.223 NA
HETATM    6  C23 UNL     1      27.539   0.027  55.158  1.00  0.00     0.237 A 
HETATM    7  N4  UNL     1      28.114   1.073  54.527  1.00  0.00    -0.224 NA
HETATM    8  C24 UNL     1      27.462   1.724  53.554  1.00  0.00     0.137 A 
HETATM    9  C25 UNL     1      26.200   1.394  53.129  1.00  0.00     0.068 A 
ENDROOT
BRANCH   1  10
HETATM   10  C11 UNL     1      25.515   3.044  51.287  1.00  0.00    -0.027 A 
HETATM   11  C10 UNL     1      26.432   2.921  50.129  1.00  0.00     0.009 A 
HETATM   12  C9  UNL     1      26.482   3.930  49.304  1.00  0.00    -0.017 A 
HETATM   13  C8  UNL     1      25.534   4.939  49.839  1.00  0.00     0.034 A 
HETATM   14  C26 UNL     1      25.046   4.232  51.038  1.00  0.00    -0.006 A 
BRANCH  13  15
HETATM   15  C7  UNL     1      24.414   5.099  48.841  1.00  0.00     0.044 C 
BRANCH  15  16
HETATM   16  C6  UNL     1      23.216   4.234  49.210  1.00  0.00     0.123 C 
HETATM   17  C5  UNL     1      21.991   5.096  49.338  1.00  0.00     0.035 C 
HETATM   18  C4  UNL     1      21.188   4.750  48.131  1.00  0.00     0.040 C 
HETATM   19  C2  UNL     1      21.730   3.396  47.732  1.00  0.00     0.054 C 
HETATM   20  C1  UNL     1      20.839   2.272  48.187  1.00  0.00     0.045 C 
HETATM   21  C3  UNL     1      21.867   3.413  46.206  1.00  0.00     0.045 C 
HETATM   22  O1  UNL     1      22.983   3.285  48.259  1.00  0.00    -0.376 OA
ENDBRANCH  15  16
ENDBRANCH  13  15
ENDBRANCH   1  10
BRANCH   3  23
HETATM   23  C14 UNL     1      23.519  -0.834  53.679  1.00  0.00     0.092 A 
HETATM   24  C15 UNL     1      22.484  -1.076  52.577  1.00  0.00     0.032 A 
HETATM   25  C16 UNL     1      21.412  -0.754  53.561  1.00  0.00     0.018 A 
HETATM   26  C21 UNL     1      22.446  -0.492  54.645  1.00  0.00     0.032 A 
BRANCH  25  27
HETATM   27  C17 UNL     1      20.590   0.498  53.220  1.00  0.00     0.277 C 
BRANCH  27  28
HETATM   28  N2  UNL     1      19.207   0.079  53.360  1.00  0.00     0.088 N 
HETATM   29  C18 UNL     1      19.155  -1.376  53.584  1.00  0.00     0.274 C 
HETATM   30  C19 UNL     1      17.857  -1.358  52.806  1.00  0.00     0.060 C 
HETATM   31  C20 UNL     1      18.481  -0.150  52.140  1.00  0.00     0.274 C 
ENDBRANCH  27  28
ENDBRANCH  25  27
ENDBRANCH   3  23
BRANCH   8  32
HETATM   32  N5  UNL     1      28.182   2.793  53.040  1.00  0.00    -0.383 N 
HETATM   33  H33 UNL     1      28.781   3.175  53.783  1.00  0.00     0.157 HD
HETATM   34  H34 UNL     1      28.202   3.232  52.073  1.00  0.00     0.157 HD
ENDBRANCH   8  32
TORSDOF 7
ENDMDL
MODEL 3
REMARK VINA RESULT:      -8.5      2.797      5.910
REMARK  7 active torsions:
REMARK  status: ('A' for Active; 'I' for Inactive)
REMARK    1  A    between atoms: C6_6  and  C7_7 
REMARK    2  A    between atoms: C7_7  and  C8_8 
REMARK    3  A    between atoms: C11_11  and  C12_12 
REMARK    4  A    between atoms: N1_14  and  C14_15 
REMARK    5  A    between atoms: C16_17  and  C17_18 
REMARK    6  A    between atoms: C17_18  and  N2_19 
REMARK    7  A    between atoms: C24_28  and  N5_29 
ROOT
HETATM    1  C12 UNL     1      24.498   3.708  50.147  1.00  0.00     0.007 A 
HETATM    2  C13 UNL     1      24.917   3.268  51.409  1.00  0.00     0.106 A 
HETATM    3  N1  UNL     1      24.190   2.242  51.840  1.00  0.00    -0.335 N 
HETATM    4  C22 UNL     1      23.267   1.942  50.915  1.00  0.00     0.146 A 
HETATM    5  N3  UNL     1      22.309   1.002  50.846  1.00  0.00    -0.223 NA
HETATM    6  C23 UNL     1      21.494   0.874  49.786  1.00  0.00     0.237 A 
HETATM    7  N4  UNL     1      21.674   1.743  48.768  1.00  0.00    -0.224 NA
HETATM    8  C24 UNL     1      22.627   2.682  48.834  1.00  0.00     0.137 A 
HETATM    9  C25 UNL     1      23.472   2.837  49.904  1.00  0.00     0.068 A 
ENDROOT
BRANCH   1  10
HETATM   10  C11 UNL     1      25.079   4.769  49.386  1.00  0.00    -0.027 A 
HETATM   11  C10 UNL     1      24.262   5.971  49.092  1.00  0.00     0.009 A 
HETATM   12  C9  UNL     1      24.848   6.942  48.448  1.00  0.00    -0.017 A 
HETATM   13  C8  UNL     1      26.241   6.488  48.207  1.00  0.00     0.034 A 
HETATM   14  C26 UNL     1      26.196   5.155  48.840  1.00  0.00    -0.006 A 
BRANCH  13  15
HETATM   15  C7  UNL     1      27.166   7.395  48.978  1.00  0.00     0.044 C 
BRANCH  15  16
HETATM   16  C6  UNL     1      28.252   7.971  48.080  1.00  0.00     0.123 C 
HETATM   17  C5  UNL     1      29.318   8.614  48.925  1.00  0.00     0.035 C 
HETATM   18  C4  UNL     1      30.471   7.678  48.810  1.00  0.00     0.040 C 
HETATM   19  C2  UNL     1      30.172   6.914  47.540  1.00  0.00     0.054 C 
HETATM   20  C1  UNL     1      30.958   7.432  46.367  1.00  0.00     0.045 C 
HETATM   21  C3  UNL     1      30.504   5.445  47.825  1.00  0.00     0.045 C 
HETATM   22  O1  UNL     1      28.829   6.999  47.318  1.00  0.00    -0.376 OA
ENDBRANCH  15  16
ENDBRANCH  13  15
ENDBRANCH   1  10
BRANCH   3  23
HETATM   23  C14 UNL     1      24.302   1.520  53.071  1.00  0.00     0.092 A 
HETATM   24  C15 UNL     1      25.682   1.782  53.679  1.00  0.00     0.032 A 
HETATM   25  C16 UNL     1      25.931   0.312  53.659  1.00  0.00     0.018 A 
HETATM   26  C21 UNL     1      24.568   0.061  53.033  1.00  0.00     0.032 A 
BRANCH  25  27
HETATM   27  C17 UNL     1      27.086  -0.125  52.745  1.00  0.00     0.277 C 
BRANCH  27  28
HETATM   28  N2  UNL     1      28.115  -0.598  53.653  1.00  0.00     0.088 N 
HETATM   29  C18 UNL     1      29.259   0.327  53.625  1.00  0.00     0.274 C 
HETATM   30  C19 UNL     1      30.133  -0.888  53.849  1.00  0.00     0.060 C 
HETATM   31  C20 UNL     1      29.004  -1.608  53.143  1.00  0.00     0.274 C 
ENDBRANCH  27  28
ENDBRANCH  25  27
ENDBRANCH   3  23
BRANCH   8  32
HETATM   32  N5  UNL     1      22.698   3.464  47.690  1.00  0.00    -0.383 N 
HETATM   33  H33 UNL     1      23.296   2.989  47.002  1.00  0.00     0.157 HD
HETATM   34  H34 UNL     1      22.259   4.400  47.445  1.00  0.00     0.157 HD
ENDBRANCH   8  32
TORSDOF 7
ENDMDL
MODEL 4
REMARK VINA RESULT:      -8.4      3.874      7.016
REMARK  7 active torsions:
REMARK  status: ('A' for Active; 'I' for Inactive)
REMARK    1  A    between atoms: C6_6  and  C7_7 
REMARK    2  A    between atoms: C7_7  and  C8_8 
REMARK    3  A    between atoms: C11_11  and  C12_12 
REMARK    4  A    between atoms: N1_14  and  C14_15 
REMARK    5  A    between atoms: C16_17  and  C17_18 
REMARK    6  A    between atoms: C17_18  and  N2_19 
REMARK    7  A    between atoms: C24_28  and  N5_29 
ROOT
HETATM    1  C12 UNL     1      26.105   4.545  49.511  1.00  0.00     0.007 A 
HETATM    2  C13 UNL     1      26.460   3.518  50.394  1.00  0.00     0.106 A 
HETATM    3  N1  UNL     1      25.399   2.829  50.802  1.00  0.00    -0.335 N 
HETATM    4  C22 UNL     1      24.300   3.341  50.229  1.00  0.00     0.146 A 
HETATM    5  N3  UNL     1      22.997   3.016  50.288  1.00  0.00    -0.223 NA
HETATM    6  C23 UNL     1      22.054   3.673  49.595  1.00  0.00     0.237 A 
HETATM    7  N4  UNL     1      22.468   4.697  48.818  1.00  0.00    -0.224 NA
HETATM    8  C24 UNL     1      23.765   5.025  48.757  1.00  0.00     0.137 A 
HETATM    9  C25 UNL     1      24.750   4.373  49.455  1.00  0.00     0.068 A 
ENDROOT
BRANCH   1  10
HETATM   10  C11 UNL     1      27.002   5.453  48.866  1.00  0.00    -0.027 A 
HETATM   11  C10 UNL     1      26.747   6.910  48.975  1.00  0.00     0.009 A 
HETATM   12  C9  UNL     1      27.621   7.706  48.426  1.00  0.00    -0.017 A 
HETATM   13  C8  UNL     1      28.657   6.824  47.831  1.00  0.00     0.034 A 
HETATM   14  C26 UNL     1      28.115   5.500  48.194  1.00  0.00    -0.006 A 
BRANCH  13  15
HETATM   15  C7  UNL     1      29.953   7.070  48.562  1.00  0.00     0.044 C 
BRANCH  15  16
HETATM   16  C6  UNL     1      31.126   7.158  47.594  1.00  0.00     0.123 C 
HETATM   17  C5  UNL     1      32.416   7.196  48.368  1.00  0.00     0.035 C 
HETATM   18  C4  UNL     1      33.013   5.853  48.124  1.00  0.00     0.040 C 
HETATM   19  C2  UNL     1      32.325   5.393  46.859  1.00  0.00     0.054 C 
HETATM   20  C1  UNL     1      33.188   5.583  45.642  1.00  0.00     0.045 C 
HETATM   21  C3  UNL     1      31.974   3.915  47.065  1.00  0.00     0.045 C 
HETATM   22  O1  UNL     1      31.154   6.085  46.754  1.00  0.00    -0.376 OA
ENDBRANCH  15  16
ENDBRANCH  13  15
ENDBRANCH   1  10
BRANCH   3  23
HETATM   23  C14 UNL     1      25.344   1.717  51.700  1.00  0.00     0.092 A 
HETATM   24  C15 UNL     1      25.558   2.221  53.131  1.00  0.00     0.032 A 
HETATM   25  C16 UNL     1      26.724   1.299  53.244  1.00  0.00     0.018 A 
HETATM   26  C21 UNL     1      26.521   0.819  51.815  1.00  0.00     0.032 A 
BRANCH  25  27
HETATM   27  C17 UNL     1      28.075   2.003  53.440  1.00  0.00     0.277 C 
BRANCH  27  28
HETATM   28  N2  UNL     1      28.868   1.066  54.215  1.00  0.00     0.088 N 
HETATM   29  C18 UNL     1      29.763   0.318  53.316  1.00  0.00     0.274 C 
HETATM   30  C19 UNL     1      29.577  -0.856  54.252  1.00  0.00     0.060 C 
HETATM   31  C20 UNL     1      28.245  -0.192  54.531  1.00  0.00     0.274 C 
ENDBRANCH  27  28
ENDBRANCH  25  27
ENDBRANCH   3  23
BRANCH   8  32
HETATM   32  N5  UNL     1      24.018   6.074  47.885  1.00  0.00    -0.383 N 
HETATM   33  H33 UNL     1      23.557   5.876  46.988  1.00  0.00     0.157 HD
HETATM   34  H34 UNL     1      24.570   6.974  48.003  1.00  0.00     0.157 HD
ENDBRANCH   8  32
TORSDOF 7
ENDMDL
MODEL 5
REMARK VINA RESULT:      -8.3      2.959      8.217
REMARK  7 active torsions:
REMARK  status: ('A' for Active; 'I' for Inactive)
REMARK    1  A    between atoms: C6_6  and  C7_7 
REMARK    2  A    between atoms: C7_7  and  C8_8 
REMARK    3  A    between atoms: C11_11  and  C12_12 
REMARK    4  A    between atoms: N1_14  and  C14_15 
REMARK    5  A    between atoms: C16_17  and  C17_18 
REMARK    6  A    between atoms: C17_18  and  N2_19 
REMARK    7  A    between atoms: C24_28  and  N5_29 
ROOT
HETATM    1  C12 UNL     1      23.629   0.660  52.748  1.00  0.00     0.007 A 
HETATM    2  C13 UNL     1      23.497   1.547  51.673  1.00  0.00     0.106 A 
HETATM    3  N1  UNL     1      24.672   2.030  51.283  1.00  0.00    -0.335 N 
HETATM    4  C22 UNL     1      25.636   1.506  52.055  1.00  0.00     0.146 A 
HETATM    5  N3  UNL     1      26.973   1.645  52.075  1.00  0.00    -0.223 NA
HETATM    6  C23 UNL     1      27.757   0.989  52.946  1.00  0.00     0.237 A 
HETATM    7  N4  UNL     1      27.142   0.165  53.822  1.00  0.00    -0.224 NA
HETATM    8  C24 UNL     1      25.809   0.024  53.805  1.00  0.00     0.137 A 
HETATM    9  C25 UNL     1      24.984   0.683  52.929  1.00  0.00     0.068 A 
ENDROOT
BRANCH   1  10
HETATM   10  C11 UNL     1      22.571  -0.056  53.389  1.00  0.00    -0.027 A 
HETATM   11  C10 UNL     1      21.582   0.699  54.196  1.00  0.00     0.009 A 
HETATM   12  C9  UNL     1      20.598   0.018  54.714  1.00  0.00    -0.017 A 
HETATM   13  C8  UNL     1      20.809  -1.388  54.289  1.00  0.00     0.034 A 
HETATM   14  C26 UNL     1      22.047  -1.242  53.500  1.00  0.00    -0.006 A 
BRANCH  13  15
HETATM   15  C7  UNL     1      19.664  -1.780  53.388  1.00  0.00     0.044 C 
BRANCH  15  16
HETATM   16  C6  UNL     1      18.656  -0.647  53.250  1.00  0.00     0.123 C 
HETATM   17  C5  UNL     1      18.642  -0.155  51.828  1.00  0.00     0.035 C 
HETATM   18  C4  UNL     1      17.343  -0.654  51.295  1.00  0.00     0.040 C 
HETATM   19  C2  UNL     1      16.526  -0.896  52.545  1.00  0.00     0.054 C 
HETATM   20  C1  UNL     1      15.557   0.222  52.815  1.00  0.00     0.045 C 
HETATM   21  C3  UNL     1      15.794  -2.227  52.337  1.00  0.00     0.045 C 
HETATM   22  O1  UNL     1      17.400  -1.062  53.579  1.00  0.00    -0.376 OA
ENDBRANCH  15  16
ENDBRANCH  13  15
ENDBRANCH   1  10
BRANCH   3  23
HETATM   23  C14 UNL     1      24.956   2.958  50.231  1.00  0.00     0.092 A 
HETATM   24  C15 UNL     1      24.842   4.383  50.779  1.00  0.00     0.032 A 
HETATM   25  C16 UNL     1      23.813   4.664  49.738  1.00  0.00     0.018 A 
HETATM   26  C21 UNL     1      23.913   3.240  49.213  1.00  0.00     0.032 A 
BRANCH  25  27
HETATM   27  C17 UNL     1      22.418   4.987  50.294  1.00  0.00     0.277 C 
BRANCH  27  28
HETATM   28  N2  UNL     1      22.088   6.282  49.727  1.00  0.00     0.088 N 
HETATM   29  C18 UNL     1      23.294   6.879  49.129  1.00  0.00     0.274 C 
HETATM   30  C19 UNL     1      22.734   8.219  49.556  1.00  0.00     0.060 C 
HETATM   31  C20 UNL     1      22.070   7.394  50.639  1.00  0.00     0.274 C 
ENDBRANCH  27  28
ENDBRANCH  25  27
ENDBRANCH   3  23
BRANCH   8  32
HETATM   32  N5  UNL     1      25.349  -0.886  54.745  1.00  0.00    -0.383 N 
HETATM   33  H33 UNL     1      24.356  -0.696  54.929  1.00  0.00     0.157 HD
HETATM   34  H34 UNL     1      25.833  -1.682  55.254  1.00  0.00     0.157 HD
ENDBRANCH   8  32
TORSDOF 7
ENDMDL
MODEL 6
REMARK VINA RESULT:      -8.3      4.632      7.463
REMARK  7 active torsions:
REMARK  status: ('A' for Active; 'I' for Inactive)
REMARK    1  A    between atoms: C6_6  and  C7_7 
REMARK    2  A    between atoms: C7_7  and  C8_8 
REMARK    3  A    between atoms: C11_11  and  C12_12 
REMARK    4  A    between atoms: N1_14  and  C14_15 
REMARK    5  A    between atoms: C16_17  and  C17_18 
REMARK    6  A    between atoms: C17_18  and  N2_19 
REMARK    7  A    between atoms: C24_28  and  N5_29 
ROOT
HETATM    1  C12 UNL     1      20.171   0.652  51.883  1.00  0.00     0.007 A 
HETATM    2  C13 UNL     1      19.562   1.535  50.983  1.00  0.00     0.106 A 
HETATM    3  N1  UNL     1      18.245   1.367  50.941  1.00  0.00    -0.335 N 
HETATM    4  C22 UNL     1      17.903   0.387  51.790  1.00  0.00     0.146 A 
HETATM    5  N3  UNL     1      16.724  -0.159  52.134  1.00  0.00    -0.223 NA
HETATM    6  C23 UNL     1      16.618  -1.140  53.045  1.00  0.00     0.237 A 
HETATM    7  N4  UNL     1      17.764  -1.571  53.616  1.00  0.00    -0.224 NA
HETATM    8  C24 UNL     1      18.941  -1.030  53.274  1.00  0.00     0.137 A 
HETATM    9  C25 UNL     1      19.079  -0.028  52.347  1.00  0.00     0.068 A 
ENDROOT
BRANCH   1  10
HETATM   10  C11 UNL     1      21.565   0.585  52.190  1.00  0.00    -0.027 A 
HETATM   11  C10 UNL     1      22.261   1.816  52.633  1.00  0.00     0.009 A 
HETATM   12  C9  UNL     1      23.518   1.701  52.962  1.00  0.00    -0.017 A 
HETATM   13  C8  UNL     1      23.857   0.268  52.771  1.00  0.00     0.034 A 
HETATM   14  C26 UNL     1      22.558  -0.249  52.300  1.00  0.00    -0.006 A 
BRANCH  13  15
HETATM   15  C7  UNL     1      24.187  -0.316  54.122  1.00  0.00     0.044 C 
BRANCH  15  16
HETATM   16  C6  UNL     1      25.647  -0.743  54.199  1.00  0.00     0.123 C 
HETATM   17  C5  UNL     1      26.134  -1.125  52.828  1.00  0.00     0.035 C 
HETATM   18  C4  UNL     1      27.041  -0.005  52.450  1.00  0.00     0.040 C 
HETATM   19  C2  UNL     1      27.407   0.608  53.784  1.00  0.00     0.054 C 
HETATM   20  C1  UNL     1      28.764   0.166  54.258  1.00  0.00     0.045 C 
HETATM   21  C3  UNL     1      27.354   2.128  53.595  1.00  0.00     0.045 C 
HETATM   22  O1  UNL     1      26.431   0.267  54.673  1.00  0.00    -0.376 OA
ENDBRANCH  15  16
ENDBRANCH  13  15
ENDBRANCH   1  10
BRANCH   3  23
HETATM   23  C14 UNL     1      17.277   2.066  50.151  1.00  0.00     0.092 A 
HETATM   24  C15 UNL     1      17.052   3.456  50.753  1.00  0.00     0.032 A 
HETATM   25  C16 UNL     1      15.605   3.125  50.887  1.00  0.00     0.018 A 
HETATM   26  C21 UNL     1      15.838   1.738  50.310  1.00  0.00     0.032 A 
BRANCH  25  27
HETATM   27  C17 UNL     1      15.094   3.080  52.335  1.00  0.00     0.277 C 
BRANCH  27  28
HETATM   28  N2  UNL     1      14.044   4.082  52.386  1.00  0.00     0.088 N 
HETATM   29  C18 UNL     1      13.779   4.444  53.788  1.00  0.00     0.274 C 
HETATM   30  C19 UNL     1      12.335   4.628  53.373  1.00  0.00     0.060 C 
HETATM   31  C20 UNL     1      12.692   3.596  52.325  1.00  0.00     0.274 C 
ENDBRANCH  27  28
ENDBRANCH  25  27
ENDBRANCH   3  23
BRANCH   8  32
HETATM   32  N5  UNL     1      20.008  -1.563  53.982  1.00  0.00    -0.383 N 
HETATM   33  H33 UNL     1      19.640  -2.120  54.764  1.00  0.00     0.157 HD
HETATM   34  H34 UNL     1      21.058  -1.485  53.842  1.00  0.00     0.157 HD
ENDBRANCH   8  32
TORSDOF 7
ENDMDL
MODEL 7
REMARK VINA RESULT:      -8.3      4.854     11.248
REMARK  7 active torsions:
REMARK  status: ('A' for Active; 'I' for Inactive)
REMARK    1  A    between atoms: C6_6  and  C7_7 
REMARK    2  A    between atoms: C7_7  and  C8_8 
REMARK    3  A    between atoms: C11_11  and  C12_12 
REMARK    4  A    between atoms: N1_14  and  C14_15 
REMARK    5  A    between atoms: C16_17  and  C17_18 
REMARK    6  A    between atoms: C17_18  and  N2_19 
REMARK    7  A    between atoms: C24_28  and  N5_29 
ROOT
HETATM    1  C12 UNL     1      28.095   7.079  48.227  1.00  0.00     0.007 A 
HETATM    2  C13 UNL     1      29.258   6.899  47.467  1.00  0.00     0.106 A 
HETATM    3  N1  UNL     1      29.947   8.028  47.344  1.00  0.00    -0.335 N 
HETATM    4  C22 UNL     1      29.304   9.006  47.999  1.00  0.00     0.146 A 
HETATM    5  N3  UNL     1      29.571  10.308  48.198  1.00  0.00    -0.223 NA
HETATM    6  C23 UNL     1      28.774  11.109  48.924  1.00  0.00     0.237 A 
HETATM    7  N4  UNL     1      27.667  10.548  49.458  1.00  0.00    -0.224 NA
HETATM    8  C24 UNL     1      27.397   9.251  49.261  1.00  0.00     0.137 A 
HETATM    9  C25 UNL     1      28.192   8.410  48.524  1.00  0.00     0.068 A 
ENDROOT
BRANCH   1  10
HETATM   10  C11 UNL     1      27.146   6.068  48.573  1.00  0.00    -0.027 A 
HETATM   11  C10 UNL     1      27.634   4.700  48.873  1.00  0.00     0.009 A 
HETATM   12  C9  UNL     1      26.744   3.823  49.245  1.00  0.00    -0.017 A 
HETATM   13  C8  UNL     1      25.444   4.538  49.245  1.00  0.00     0.034 A 
HETATM   14  C26 UNL     1      25.881   5.879  48.811  1.00  0.00    -0.006 A 
BRANCH  13  15
HETATM   15  C7  UNL     1      24.941   4.592  50.666  1.00  0.00     0.044 C 
BRANCH  15  16
HETATM   16  C6  UNL     1      23.477   4.184  50.752  1.00  0.00     0.123 C 
HETATM   17  C5  UNL     1      23.179   3.150  49.700  1.00  0.00     0.035 C 
HETATM   18  C4  UNL     1      23.017   1.891  50.480  1.00  0.00     0.040 C 
HETATM   19  C2  UNL     1      22.704   2.385  51.874  1.00  0.00     0.054 C 
HETATM   20  C1  UNL     1      21.233   2.322  52.182  1.00  0.00     0.045 C 
HETATM   21  C3  UNL     1      23.511   1.508  52.839  1.00  0.00     0.045 C 
HETATM   22  O1  UNL     1      23.182   3.658  51.974  1.00  0.00    -0.376 OA
ENDBRANCH  15  16
ENDBRANCH  13  15
ENDBRANCH   1  10
BRANCH   3  23
HETATM   23  C14 UNL     1      31.176   8.257  46.647  1.00  0.00     0.092 A 
HETATM   24  C15 UNL     1      31.542   6.998  45.856  1.00  0.00     0.032 A 
HETATM   25  C16 UNL     1      32.836   6.952  46.595  1.00  0.00     0.018 A 
HETATM   26  C21 UNL     1      32.457   8.188  47.394  1.00  0.00     0.032 A 
BRANCH  25  27
HETATM   27  C17 UNL     1      33.016   5.712  47.484  1.00  0.00     0.277 C 
BRANCH  27  28
HETATM   28  N2  UNL     1      34.246   5.099  47.015  1.00  0.00     0.088 N 
HETATM   29  C18 UNL     1      33.962   4.278  45.825  1.00  0.00     0.274 C 
HETATM   30  C19 UNL     1      35.052   3.350  46.317  1.00  0.00     0.060 C 
HETATM   31  C20 UNL     1      34.648   3.885  47.674  1.00  0.00     0.274 C 
ENDBRANCH  27  28
ENDBRANCH  25  27
ENDBRANCH   3  23
BRANCH   8  32
HETATM   32  N5  UNL     1      26.244   8.833  49.910  1.00  0.00    -0.383 N 
HETATM   33  H33 UNL     1      25.579   9.616  49.939  1.00  0.00     0.157 HD
HETATM   34  H34 UNL     1      25.975   7.900  50.341  1.00  0.00     0.157 HD
ENDBRANCH   8  32
TORSDOF 7
ENDMDL
MODEL 8
REMARK VINA RESULT:      -8.3      3.699      6.774
REMARK  7 active torsions:
REMARK  status: ('A' for Active; 'I' for Inactive)
REMARK    1  A    between atoms: C6_6  and  C7_7 
REMARK    2  A    between atoms: C7_7  and  C8_8 
REMARK    3  A    between atoms: C11_11  and  C12_12 
REMARK    4  A    between atoms: N1_14  and  C14_15 
REMARK    5  A    between atoms: C16_17  and  C17_18 
REMARK    6  A    between atoms: C17_18  and  N2_19 
REMARK    7  A    between atoms: C24_28  and  N5_29 
ROOT
HETATM    1  C12 UNL     1      25.728   4.431  49.670  1.00  0.00     0.007 A 
HETATM    2  C13 UNL     1      26.190   3.472  50.580  1.00  0.00     0.106 A 
HETATM    3  N1  UNL     1      25.229   2.627  50.937  1.00  0.00    -0.335 N 
HETATM    4  C22 UNL     1      24.096   2.962  50.303  1.00  0.00     0.146 A 
HETATM    5  N3  UNL     1      22.858   2.438  50.297  1.00  0.00    -0.223 NA
HETATM    6  C23 UNL     1      21.862   2.940  49.549  1.00  0.00     0.237 A 
HETATM    7  N4  UNL     1      22.153   4.015  48.786  1.00  0.00    -0.224 NA
HETATM    8  C24 UNL     1      23.385   4.541  48.790  1.00  0.00     0.137 A 
HETATM    9  C25 UNL     1      24.421   4.050  49.544  1.00  0.00     0.068 A 
ENDROOT
BRANCH   1  10
HETATM   10  C11 UNL     1      26.506   5.467  49.065  1.00  0.00    -0.027 A 
HETATM   11  C10 UNL     1      26.282   6.870  49.488  1.00  0.00     0.009 A 
HETATM   12  C9  UNL     1      27.054   7.778  48.958  1.00  0.00    -0.017 A 
HETATM   13  C8  UNL     1      27.967   7.050  48.041  1.00  0.00     0.034 A 
HETATM   14  C26 UNL     1      27.488   5.668  48.235  1.00  0.00    -0.006 A 
BRANCH  13  15
HETATM   15  C7  UNL     1      29.371   7.190  48.574  1.00  0.00     0.044 C 
BRANCH  15  16
HETATM   16  C6  UNL     1      30.277   7.891  47.571  1.00  0.00     0.123 C 
HETATM   17  C5  UNL     1      29.438   8.614  46.553  1.00  0.00     0.035 C 
HETATM   18  C4  UNL     1      29.617  10.051  46.904  1.00  0.00     0.040 C 
HETATM   19  C2  UNL     1      30.905  10.056  47.696  1.00  0.00     0.054 C 
HETATM   20  C1  UNL     1      32.079  10.499  46.867  1.00  0.00     0.045 C 
HETATM   21  C3  UNL     1      30.681  10.993  48.888  1.00  0.00     0.045 C 
HETATM   22  O1  UNL     1      31.088   8.797  48.188  1.00  0.00    -0.376 OA
ENDBRANCH  15  16
ENDBRANCH  13  15
ENDBRANCH   1  10
BRANCH   3  23
HETATM   23  C14 UNL     1      25.300   1.521  51.842  1.00  0.00     0.092 A 
HETATM   24  C15 UNL     1      25.666   2.038  53.236  1.00  0.00     0.032 A 
HETATM   25  C16 UNL     1      26.855   1.139  53.219  1.00  0.00     0.018 A 
HETATM   26  C21 UNL     1      26.499   0.646  51.825  1.00  0.00     0.032 A 
BRANCH  25  27
HETATM   27  C17 UNL     1      28.206   1.870  53.255  1.00  0.00     0.277 C 
BRANCH  27  28
HETATM   28  N2  UNL     1      29.071   1.004  54.035  1.00  0.00     0.088 N 
HETATM   29  C18 UNL     1      29.829   0.123  53.130  1.00  0.00     0.274 C 
HETATM   30  C19 UNL     1      29.739  -0.924  54.219  1.00  0.00     0.060 C 
HETATM   31  C20 UNL     1      28.467  -0.184  54.577  1.00  0.00     0.274 C 
ENDBRANCH  27  28
ENDBRANCH  25  27
ENDBRANCH   3  23
BRANCH   8  32
HETATM   32  N5  UNL     1      23.519   5.616  47.923  1.00  0.00    -0.383 N 
HETATM   33  H33 UNL     1      23.143   5.348  47.005  1.00  0.00     0.157 HD
HETATM   34  H34 UNL     1      23.918   6.590  48.062  1.00  0.00     0.157 HD
ENDBRANCH   8  32
TORSDOF 7
ENDMDL
MODEL 9
REMARK VINA RESULT:      -8.1      4.001      9.092
REMARK  7 active torsions:
REMARK  status: ('A' for Active; 'I' for Inactive)
REMARK    1  A    between atoms: C6_6  and  C7_7 
REMARK    2  A    between atoms: C7_7  and  C8_8 
REMARK    3  A    between atoms: C11_11  and  C12_12 
REMARK    4  A    between atoms: N1_14  and  C14_15 
REMARK    5  A    between atoms: C16_17  and  C17_18 
REMARK    6  A    between atoms: C17_18  and  N2_19 
REMARK    7  A    between atoms: C24_28  and  N5_29 
ROOT
HETATM    1  C12 UNL     1      20.104   0.975  51.963  1.00  0.00     0.007 A 
HETATM    2  C13 UNL     1      21.210   1.670  51.456  1.00  0.00     0.106 A 
HETATM    3  N1  UNL     1      22.339   1.305  52.055  1.00  0.00    -0.335 N 
HETATM    4  C22 UNL     1      22.062   0.367  52.973  1.00  0.00     0.146 A 
HETATM    5  N3  UNL     1      22.826  -0.334  53.829  1.00  0.00    -0.223 NA
HETATM    6  C23 UNL     1      22.321  -1.259  54.661  1.00  0.00     0.237 A 
HETATM    7  N4  UNL     1      20.987  -1.465  54.609  1.00  0.00    -0.224 NA
HETATM    8  C24 UNL     1      20.222  -0.767  53.759  1.00  0.00     0.137 A 
HETATM    9  C25 UNL     1      20.710   0.184  52.899  1.00  0.00     0.068 A 
ENDROOT
BRANCH   1  10
HETATM   10  C11 UNL     1      18.750   1.106  51.523  1.00  0.00    -0.027 A 
HETATM   11  C10 UNL     1      18.106  -0.040  50.838  1.00  0.00     0.009 A 
HETATM   12  C9  UNL     1      16.852   0.097  50.508  1.00  0.00    -0.017 A 
HETATM   13  C8  UNL     1      16.458   1.454  50.963  1.00  0.00     0.034 A 
HETATM   14  C26 UNL     1      17.731   1.914  51.549  1.00  0.00    -0.006 A 
BRANCH  13  15
HETATM   15  C7  UNL     1      15.417   1.298  52.043  1.00  0.00     0.044 C 
BRANCH  15  16
HETATM   16  C6  UNL     1      14.914   2.651  52.527  1.00  0.00     0.123 C 
HETATM   17  C5  UNL     1      14.488   3.482  51.347  1.00  0.00     0.035 C 
HETATM   18  C4  UNL     1      13.001   3.498  51.445  1.00  0.00     0.040 C 
HETATM   19  C2  UNL     1      12.747   3.163  52.898  1.00  0.00     0.054 C 
HETATM   20  C1  UNL     1      12.440   4.386  53.717  1.00  0.00     0.045 C 
HETATM   21  C3  UNL     1      11.577   2.173  52.919  1.00  0.00     0.045 C 
HETATM   22  O1  UNL     1      13.849   2.510  53.366  1.00  0.00    -0.376 OA
ENDBRANCH  15  16
ENDBRANCH  13  15
ENDBRANCH   1  10
BRANCH   3  23
HETATM   23  C14 UNL     1      23.669   1.780  51.826  1.00  0.00     0.092 A 
HETATM   24  C15 UNL     1      23.947   2.956  52.766  1.00  0.00     0.032 A 
HETATM   25  C16 UNL     1      24.241   3.797  51.571  1.00  0.00     0.018 A 
HETATM   26  C21 UNL     1      23.940   2.632  50.641  1.00  0.00     0.032 A 
BRANCH  25  27
HETATM   27  C17 UNL     1      23.274   4.973  51.369  1.00  0.00     0.277 C 
BRANCH  27  28
HETATM   28  N2  UNL     1      24.119   6.153  51.399  1.00  0.00     0.088 N 
HETATM   29  C18 UNL     1      23.393   7.293  50.814  1.00  0.00     0.274 C 
HETATM   30  C19 UNL     1      24.735   7.767  50.298  1.00  0.00     0.060 C 
HETATM   31  C20 UNL     1      25.066   6.290  50.325  1.00  0.00     0.274 C 
ENDBRANCH  27  28
ENDBRANCH  25  27
ENDBRANCH   3  23
BRANCH   8  32
HETATM   32  N5  UNL     1      18.884  -1.130  53.810  1.00  0.00    -0.383 N 
HETATM   33  H33 UNL     1      18.369  -0.595  53.099  1.00  0.00     0.157 HD
HETATM   34  H34 UNL     1      18.363  -1.822  54.424  1.00  0.00     0.157 HD
ENDBRANCH   8  32
TORSDOF 7
ENDMDL
