MODEL 1
REMARK VINA RESULT:      -9.3      0.000      0.000
REMARK  5 active torsions:
REMARK  status: ('A' for Active; 'I' for Inactive)
REMARK    1  A    between atoms: O1_2  and  C2_3 
REMARK    2  A    between atoms: C6_9  and  N3_10 
REMARK    3  A    between atoms: N3_10  and  C7_11 
REMARK    4  A    between atoms: N4_22  and  C16_23 
REMARK    5  A    between atoms: C16_23  and  C18_25 
ROOT
HETATM    1  C2  UNL     1      22.965   0.188  53.473  1.00  0.00     0.096 A 
HETATM    2  C3  UNL     1      21.708   0.474  53.632  1.00  0.00     0.071 A 
HETATM    3  C4  UNL     1      21.402   1.426  52.692  1.00  0.00     0.075 A 
HETATM    4  N1  UNL     1      20.128   1.862  52.703  1.00  0.00    -0.241 NA
HETATM    5  C5  UNL     1      19.745   2.802  51.820  1.00  0.00     0.236 A 
HETATM    6  N2  UNL     1      20.643   3.261  50.971  1.00  0.00    -0.224 NA
HETATM    7  C6  UNL     1      21.909   2.871  50.909  1.00  0.00     0.142 A 
HETATM    8  C13 UNL     1      22.350   1.917  51.787  1.00  0.00     0.041 A 
HETATM    9  C14 UNL     1      23.643   1.322  51.961  1.00  0.00     0.049 A 
HETATM   10  C15 UNL     1      24.203   0.274  52.912  1.00  0.00     0.063 A 
HETATM   11  N4  UNL     1      25.420   0.362  52.357  1.00  0.00    -0.381 N 
HETATM   12  H11 UNL     1      25.958   0.776  51.629  1.00  0.00     0.160 HD
ENDROOT
BRANCH   1  13
HETATM   13  O1  UNL     1      23.531  -0.807  54.350  1.00  0.00    -0.354 OA
HETATM   14  C1  UNL     1      22.808  -1.415  55.358  1.00  0.00     0.210 C 
ENDBRANCH   1  13
BRANCH  11  15
HETATM   15  C16 UNL     1      26.511  -0.412  52.896  1.00  0.00     0.102 C 
HETATM   16  C17 UNL     1      26.656  -1.796  52.322  1.00  0.00     0.034 C 
BRANCH  15  17
HETATM   17  C18 UNL     1      27.814   0.299  53.018  1.00  0.00     0.133 C 
HETATM   18  C19 UNL     1      28.801  -0.561  53.801  1.00  0.00     0.208 C 
HETATM   19  O2  UNL     1      29.738   0.397  54.255  1.00  0.00    -0.302 OA
HETATM   20  C20 UNL     1      29.086   1.639  54.323  1.00  0.00     0.361 C 
HETATM   21  O3  UNL     1      29.803   2.403  55.037  1.00  0.00    -0.239 OA
HETATM   22  N5  UNL     1      27.852   1.594  53.567  1.00  0.00    -0.328 N 
HETATM   23  H19 UNL     1      27.468   2.568  53.728  1.00  0.00     0.165 HD
ENDBRANCH  15  17
ENDBRANCH  11  15
BRANCH   7  24
HETATM   24  N3  UNL     1      22.894   3.319  50.017  1.00  0.00    -0.340 N 
HETATM   25  H6  UNL     1      23.296   3.036  49.113  1.00  0.00     0.167 HD
BRANCH  24  26
HETATM   26  C7  UNL     1      23.690   4.504  50.230  1.00  0.00     0.035 A 
HETATM   27  C8  UNL     1      23.358   5.555  51.034  1.00  0.00     0.032 A 
HETATM   28  C9  UNL     1      24.229   6.611  51.068  1.00  0.00     0.046 A 
HETATM   29  C10 UNL     1      25.366   6.595  50.332  1.00  0.00     0.138 A 
HETATM   30  F1  UNL     1      26.197   7.658  50.382  1.00  0.00    -0.204 F 
HETATM   31  C11 UNL     1      25.637   5.513  49.553  1.00  0.00     0.074 A 
HETATM   32 CL1  UNL     1      27.155   5.591  48.617  1.00  0.00    -0.081 Cl
HETATM   33  C12 UNL     1      24.829   4.339  49.411  1.00  0.00     0.056 A 
ENDBRANCH  24  26
ENDBRANCH   7  24
TORSDOF 5
ENDMDL
MODEL 2
REMARK VINA RESULT:      -9.0      1.801      2.506
REMARK  5 active torsions:
REMARK  status: ('A' for Active; 'I' for Inactive)
REMARK    1  A    between atoms: O1_2  and  C2_3 
REMARK    2  A    between atoms: C6_9  and  N3_10 
REMARK    3  A    between atoms: N3_10  and  C7_11 
REMARK    4  A    between atoms: N4_22  and  C16_23 
REMARK    5  A    between atoms: C16_23  and  C18_25 
ROOT
HETATM    1  C2  UNL     1      22.507   1.693  52.643  1.00  0.00     0.096 A 
HETATM    2  C3  UNL     1      21.402   2.190  52.178  1.00  0.00     0.071 A 
HETATM    3  C4  UNL     1      21.691   3.466  51.760  1.00  0.00     0.075 A 
HETATM    4  N1  UNL     1      20.655   4.156  51.247  1.00  0.00    -0.241 NA
HETATM    5  C5  UNL     1      20.850   5.418  50.822  1.00  0.00     0.236 A 
HETATM    6  N2  UNL     1      22.060   5.929  50.926  1.00  0.00    -0.224 NA
HETATM    7  C6  UNL     1      23.119   5.301  51.419  1.00  0.00     0.142 A 
HETATM    8  C13 UNL     1      22.974   4.015  51.867  1.00  0.00     0.041 A 
HETATM    9  C14 UNL     1      23.919   3.109  52.451  1.00  0.00     0.049 A 
HETATM   10  C15 UNL     1      23.827   1.684  52.976  1.00  0.00     0.063 A 
HETATM   11  N4  UNL     1      25.128   1.678  53.304  1.00  0.00    -0.381 N 
HETATM   12  H11 UNL     1      25.980   2.190  53.272  1.00  0.00     0.160 HD
ENDROOT
BRANCH   1  13
HETATM   13  O1  UNL     1      22.464   0.341  53.143  1.00  0.00    -0.354 OA
HETATM   14  C1  UNL     1      21.684  -0.034  54.219  1.00  0.00     0.210 C 
ENDBRANCH   1  13
BRANCH  11  15
HETATM   15  C16 UNL     1      25.698   0.524  53.955  1.00  0.00     0.102 C 
HETATM   16  C17 UNL     1      25.335  -0.801  53.337  1.00  0.00     0.034 C 
BRANCH  15  17
HETATM   17  C18 UNL     1      27.143   0.620  54.299  1.00  0.00     0.133 C 
HETATM   18  C19 UNL     1      27.874   1.437  53.237  1.00  0.00     0.208 C 
HETATM   19  O2  UNL     1      29.215   1.018  53.409  1.00  0.00    -0.302 OA
HETATM   20  C20 UNL     1      29.197  -0.270  53.969  1.00  0.00     0.361 C 
HETATM   21  O3  UNL     1      30.351  -0.768  53.806  1.00  0.00    -0.239 OA
HETATM   22  N5  UNL     1      27.887  -0.554  54.517  1.00  0.00    -0.328 N 
HETATM   23  H19 UNL     1      28.016  -1.544  54.872  1.00  0.00     0.165 HD
ENDBRANCH  15  17
ENDBRANCH  11  15
BRANCH   7  24
HETATM   24  N3  UNL     1      24.425   5.799  51.535  1.00  0.00    -0.340 N 
HETATM   25  H6  UNL     1      25.035   6.188  52.267  1.00  0.00     0.167 HD
BRANCH  24  26
HETATM   26  C7  UNL     1      25.357   5.870  50.435  1.00  0.00     0.035 A 
HETATM   27  C8  UNL     1      25.884   4.805  49.765  1.00  0.00     0.032 A 
HETATM   28  C9  UNL     1      26.790   5.080  48.777  1.00  0.00     0.046 A 
HETATM   29  C10 UNL     1      27.135   6.359  48.487  1.00  0.00     0.138 A 
HETATM   30  F1  UNL     1      28.038   6.592  47.513  1.00  0.00    -0.204 F 
HETATM   31  C11 UNL     1      26.567   7.374  49.194  1.00  0.00     0.074 A 
HETATM   32 CL1  UNL     1      27.090   9.020  48.743  1.00  0.00    -0.081 Cl
HETATM   33  C12 UNL     1      25.610   7.248  50.252  1.00  0.00     0.056 A 
ENDBRANCH  24  26
ENDBRANCH   7  24
TORSDOF 5
ENDMDL
MODEL 3
REMARK VINA RESULT:      -8.9      4.129      6.762
REMARK  5 active torsions:
REMARK  status: ('A' for Active; 'I' for Inactive)
REMARK    1  A    between atoms: O1_2  and  C2_3 
REMARK    2  A    between atoms: C6_9  and  N3_10 
REMARK    3  A    between atoms: N3_10  and  C7_11 
REMARK    4  A    between atoms: N4_22  and  C16_23 
REMARK    5  A    between atoms: C16_23  and  C18_25 
ROOT
HETATM    1  C2  UNL     1      23.552   3.316  49.530  1.00  0.00     0.096 A 
HETATM    2  C3  UNL     1      22.481   2.584  49.476  1.00  0.00     0.071 A 
HETATM    3  C4  UNL     1      22.510   1.765  50.578  1.00  0.00     0.075 A 
HETATM    4  N1  UNL     1      21.473   0.915  50.695  1.00  0.00    -0.241 NA
HETATM    5  C5  UNL     1      21.428   0.071  51.742  1.00  0.00     0.236 A 
HETATM    6  N2  UNL     1      22.412   0.113  52.618  1.00  0.00    -0.224 NA
HETATM    7  C6  UNL     1      23.458   0.927  52.559  1.00  0.00     0.142 A 
HETATM    8  C13 UNL     1      23.551   1.805  51.512  1.00  0.00     0.041 A 
HETATM    9  C14 UNL     1      24.555   2.777  51.184  1.00  0.00     0.049 A 
HETATM   10  C15 UNL     1      24.728   3.770  50.044  1.00  0.00     0.063 A 
HETATM   11  N4  UNL     1      25.886   4.214  50.554  1.00  0.00    -0.381 N 
HETATM   12  H11 UNL     1      26.520   4.150  51.318  1.00  0.00     0.160 HD
ENDROOT
BRANCH   1  13
HETATM   13  O1  UNL     1      23.749   4.276  48.472  1.00  0.00    -0.354 OA
HETATM   14  C1  UNL     1      22.708   4.972  47.889  1.00  0.00     0.210 C 
ENDBRANCH   1  13
BRANCH  11  15
HETATM   15  C16 UNL     1      26.645   5.215  49.844  1.00  0.00     0.102 C 
HETATM   16  C17 UNL     1      27.311   4.733  48.583  1.00  0.00     0.034 C 
BRANCH  15  17
HETATM   17  C18 UNL     1      25.977   6.535  49.674  1.00  0.00     0.133 C 
HETATM   18  C19 UNL     1      26.198   7.046  48.253  1.00  0.00     0.208 C 
HETATM   19  O2  UNL     1      25.980   8.436  48.398  1.00  0.00    -0.302 OA
HETATM   20  C20 UNL     1      26.255   8.780  49.732  1.00  0.00     0.361 C 
HETATM   21  O3  UNL     1      26.392  10.039  49.777  1.00  0.00    -0.239 OA
HETATM   22  N5  UNL     1      26.283   7.589  50.555  1.00  0.00    -0.328 N 
HETATM   23  H19 UNL     1      26.521   7.993  51.505  1.00  0.00     0.165 HD
ENDBRANCH  15  17
ENDBRANCH  11  15
BRANCH   7  24
HETATM   24  N3  UNL     1      24.518   1.018  53.472  1.00  0.00    -0.340 N 
HETATM   25  H6  UNL     1      24.725   1.490  54.363  1.00  0.00     0.167 HD
BRANCH  24  26
HETATM   26  C7  UNL     1      25.773   0.323  53.315  1.00  0.00     0.035 A 
HETATM   27  C8  UNL     1      25.944  -0.892  52.717  1.00  0.00     0.032 A 
HETATM   28  C9  UNL     1      27.212  -1.406  52.708  1.00  0.00     0.046 A 
HETATM   29  C10 UNL     1      28.241  -0.726  53.268  1.00  0.00     0.138 A 
HETATM   30  F1  UNL     1      29.476  -1.269  53.249  1.00  0.00    -0.204 F 
HETATM   31  C11 UNL     1      28.000   0.483  53.846  1.00  0.00     0.074 A 
HETATM   32 CL1  UNL     1      29.418   1.297  54.562  1.00  0.00    -0.081 Cl
HETATM   33  C12 UNL     1      26.736   1.149  53.936  1.00  0.00     0.056 A 
ENDBRANCH  24  26
ENDBRANCH   7  24
TORSDOF 5
ENDMDL
MODEL 4
REMARK VINA RESULT:      -8.8      4.094      6.658
REMARK  5 active torsions:
REMARK  status: ('A' for Active; 'I' for Inactive)
REMARK    1  A    between atoms: O1_2  and  C2_3 
REMARK    2  A    between atoms: C6_9  and  N3_10 
REMARK    3  A    between atoms: N3_10  and  C7_11 
REMARK    4  A    between atoms: N4_22  and  C16_23 
REMARK    5  A    between atoms: C16_23  and  C18_25 
ROOT
HETATM    1  C2  UNL     1      23.199   5.659  49.720  1.00  0.00     0.096 A 
HETATM    2  C3  UNL     1      22.067   5.049  49.900  1.00  0.00     0.071 A 
HETATM    3  C4  UNL     1      22.268   4.141  50.911  1.00  0.00     0.075 A 
HETATM    4  N1  UNL     1      21.196   3.396  51.242  1.00  0.00    -0.241 NA
HETATM    5  C5  UNL     1      21.309   2.476  52.217  1.00  0.00     0.236 A 
HETATM    6  N2  UNL     1      22.476   2.344  52.815  1.00  0.00    -0.224 NA
HETATM    7  C6  UNL     1      23.565   3.047  52.537  1.00  0.00     0.142 A 
HETATM    8  C13 UNL     1      23.504   3.995  51.551  1.00  0.00     0.041 A 
HETATM    9  C14 UNL     1      24.506   4.882  51.032  1.00  0.00     0.049 A 
HETATM   10  C15 UNL     1      24.511   5.944  49.942  1.00  0.00     0.063 A 
HETATM   11  N4  UNL     1      25.805   6.222  50.164  1.00  0.00    -0.381 N 
HETATM   12  H11 UNL     1      26.595   6.029  50.737  1.00  0.00     0.160 HD
ENDROOT
BRANCH   1  13
HETATM   13  O1  UNL     1      23.244   6.678  48.701  1.00  0.00    -0.354 OA
HETATM   14  C1  UNL     1      23.165   6.392  47.352  1.00  0.00     0.210 C 
ENDBRANCH   1  13
BRANCH  11  15
HETATM   15  C16 UNL     1      26.480   7.194  49.341  1.00  0.00     0.102 C 
HETATM   16  C17 UNL     1      26.771   8.509  50.015  1.00  0.00     0.034 C 
BRANCH  15  17
HETATM   17  C18 UNL     1      27.635   6.686  48.550  1.00  0.00     0.133 C 
HETATM   18  C19 UNL     1      27.623   5.160  48.541  1.00  0.00     0.208 C 
HETATM   19  O2  UNL     1      28.968   4.852  48.229  1.00  0.00    -0.302 OA
HETATM   20  C20 UNL     1      29.766   5.930  48.647  1.00  0.00     0.361 C 
HETATM   21  O3  UNL     1      30.964   5.520  48.685  1.00  0.00    -0.239 OA
HETATM   22  N5  UNL     1      28.940   7.097  48.881  1.00  0.00    -0.328 N 
HETATM   23  H19 UNL     1      29.658   7.803  49.208  1.00  0.00     0.165 HD
ENDBRANCH  15  17
ENDBRANCH  11  15
BRANCH   7  24
HETATM   24  N3  UNL     1      24.821   2.951  53.154  1.00  0.00    -0.340 N 
HETATM   25  H6  UNL     1      25.395   3.493  53.814  1.00  0.00     0.167 HD
BRANCH  24  26
HETATM   26  C7  UNL     1      25.732   1.851  52.950  1.00  0.00     0.035 A 
HETATM   27  C8  UNL     1      25.524   0.784  52.125  1.00  0.00     0.032 A 
HETATM   28  C9  UNL     1      26.493  -0.183  52.104  1.00  0.00     0.046 A 
HETATM   29  C10 UNL     1      27.604  -0.069  52.871  1.00  0.00     0.138 A 
HETATM   30  F1  UNL     1      28.533  -1.046  52.831  1.00  0.00    -0.204 F 
HETATM   31  C11 UNL     1      27.749   1.024  53.669  1.00  0.00     0.074 A 
HETATM   32 CL1  UNL     1      29.242   1.079  54.645  1.00  0.00    -0.081 Cl
HETATM   33  C12 UNL     1      26.828   2.113  53.801  1.00  0.00     0.056 A 
ENDBRANCH  24  26
ENDBRANCH   7  24
TORSDOF 5
ENDMDL
MODEL 5
REMARK VINA RESULT:      -8.8      4.088      6.694
REMARK  5 active torsions:
REMARK  status: ('A' for Active; 'I' for Inactive)
REMARK    1  A    between atoms: O1_2  and  C2_3 
REMARK    2  A    between atoms: C6_9  and  N3_10 
REMARK    3  A    between atoms: N3_10  and  C7_11 
REMARK    4  A    between atoms: N4_22  and  C16_23 
REMARK    5  A    between atoms: C16_23  and  C18_25 
ROOT
HETATM    1  C2  UNL     1      23.692   4.228  49.425  1.00  0.00     0.096 A 
HETATM    2  C3  UNL     1      22.786   3.305  49.537  1.00  0.00     0.071 A 
HETATM    3  C4  UNL     1      23.106   2.577  50.657  1.00  0.00     0.075 A 
HETATM    4  N1  UNL     1      22.275   1.555  50.939  1.00  0.00    -0.241 NA
HETATM    5  C5  UNL     1      22.521   0.785  52.015  1.00  0.00     0.236 A 
HETATM    6  N2  UNL     1      23.574   1.068  52.755  1.00  0.00    -0.224 NA
HETATM    7  C6  UNL     1      24.425   2.059  52.531  1.00  0.00     0.142 A 
HETATM    8  C13 UNL     1      24.221   2.872  51.448  1.00  0.00     0.041 A 
HETATM    9  C14 UNL     1      24.970   3.993  50.957  1.00  0.00     0.049 A 
HETATM   10  C15 UNL     1      24.810   4.927  49.766  1.00  0.00     0.063 A 
HETATM   11  N4  UNL     1      25.911   5.613  50.106  1.00  0.00    -0.381 N 
HETATM   12  H11 UNL     1      26.631   5.718  50.784  1.00  0.00     0.160 HD
ENDROOT
BRANCH   1  13
HETATM   13  O1  UNL     1      23.572   5.139  48.313  1.00  0.00    -0.354 OA
HETATM   14  C1  UNL     1      22.529   5.082  47.409  1.00  0.00     0.210 C 
ENDBRANCH   1  13
BRANCH  11  15
HETATM   15  C16 UNL     1      26.370   6.692  49.266  1.00  0.00     0.102 C 
HETATM   16  C17 UNL     1      26.377   8.049  49.919  1.00  0.00     0.034 C 
BRANCH  15  17
HETATM   17  C18 UNL     1      27.608   6.424  48.483  1.00  0.00     0.133 C 
HETATM   18  C19 UNL     1      27.941   4.936  48.536  1.00  0.00     0.208 C 
HETATM   19  O2  UNL     1      29.320   4.926  48.222  1.00  0.00    -0.302 OA
HETATM   20  C20 UNL     1      29.854   6.174  48.585  1.00  0.00     0.361 C 
HETATM   21  O3  UNL     1      31.115   6.047  48.625  1.00  0.00    -0.239 OA
HETATM   22  N5  UNL     1      28.787   7.133  48.781  1.00  0.00    -0.328 N 
HETATM   23  H19 UNL     1      29.328   7.997  49.069  1.00  0.00     0.165 HD
ENDBRANCH  15  17
ENDBRANCH  11  15
BRANCH   7  24
HETATM   24  N3  UNL     1      25.548   2.406  53.297  1.00  0.00    -0.340 N 
HETATM   25  H6  UNL     1      25.839   3.161  53.934  1.00  0.00     0.167 HD
BRANCH  24  26
HETATM   26  C7  UNL     1      26.751   1.611  53.361  1.00  0.00     0.035 A 
HETATM   27  C8  UNL     1      28.001   2.077  53.653  1.00  0.00     0.032 A 
HETATM   28  C9  UNL     1      29.024   1.169  53.619  1.00  0.00     0.046 A 
HETATM   29  C10 UNL     1      28.791  -0.130  53.311  1.00  0.00     0.138 A 
HETATM   30  F1  UNL     1      29.826  -0.994  53.278  1.00  0.00    -0.204 F 
HETATM   31  C11 UNL     1      27.519  -0.527  53.034  1.00  0.00     0.074 A 
HETATM   32 CL1  UNL     1      27.315  -2.254  52.633  1.00  0.00    -0.081 Cl
HETATM   33  C12 UNL     1      26.349   0.299  53.027  1.00  0.00     0.056 A 
ENDBRANCH  24  26
ENDBRANCH   7  24
TORSDOF 5
ENDMDL
MODEL 6
REMARK VINA RESULT:      -8.7      3.632      6.436
REMARK  5 active torsions:
REMARK  status: ('A' for Active; 'I' for Inactive)
REMARK    1  A    between atoms: O1_2  and  C2_3 
REMARK    2  A    between atoms: C6_9  and  N3_10 
REMARK    3  A    between atoms: N3_10  and  C7_11 
REMARK    4  A    between atoms: N4_22  and  C16_23 
REMARK    5  A    between atoms: C16_23  and  C18_25 
ROOT
HETATM    1  C2  UNL     1      21.315   2.098  51.671  1.00  0.00     0.096 A 
HETATM    2  C3  UNL     1      20.750   1.587  52.723  1.00  0.00     0.071 A 
HETATM    3  C4  UNL     1      21.672   0.741  53.290  1.00  0.00     0.075 A 
HETATM    4  N1  UNL     1      21.264   0.102  54.402  1.00  0.00    -0.241 NA
HETATM    5  C5  UNL     1      22.102  -0.753  55.016  1.00  0.00     0.236 A 
HETATM    6  N2  UNL     1      23.301  -0.928  54.498  1.00  0.00    -0.224 NA
HETATM    7  C6  UNL     1      23.762  -0.328  53.409  1.00  0.00     0.142 A 
HETATM    8  C13 UNL     1      22.947   0.550  52.745  1.00  0.00     0.041 A 
HETATM    9  C14 UNL     1      23.164   1.323  51.556  1.00  0.00     0.049 A 
HETATM   10  C15 UNL     1      22.309   2.301  50.764  1.00  0.00     0.063 A 
HETATM   11  N4  UNL     1      23.291   2.499  49.872  1.00  0.00    -0.381 N 
HETATM   12  H11 UNL     1      24.235   2.289  49.636  1.00  0.00     0.160 HD
ENDROOT
BRANCH   1  13
HETATM   13  O1  UNL     1      20.540   3.037  50.898  1.00  0.00    -0.354 OA
HETATM   14  C1  UNL     1      19.259   3.417  51.247  1.00  0.00     0.210 C 
ENDBRANCH   1  13
BRANCH  11  15
HETATM   15  C16 UNL     1      23.065   3.359  48.736  1.00  0.00     0.102 C 
HETATM   16  C17 UNL     1      21.979   2.904  47.798  1.00  0.00     0.034 C 
BRANCH  15  17
HETATM   17  C18 UNL     1      22.997   4.817  49.030  1.00  0.00     0.133 C 
HETATM   18  C19 UNL     1      23.989   5.169  50.135  1.00  0.00     0.208 C 
HETATM   19  O2  UNL     1      23.465   6.386  50.630  1.00  0.00    -0.302 OA
HETATM   20  C20 UNL     1      22.087   6.406  50.360  1.00  0.00     0.361 C 
HETATM   21  O3  UNL     1      21.572   7.307  51.087  1.00  0.00    -0.239 OA
HETATM   22  N5  UNL     1      21.762   5.402  49.367  1.00  0.00    -0.328 N 
HETATM   23  H19 UNL     1      20.712   5.515  49.288  1.00  0.00     0.165 HD
ENDBRANCH  15  17
ENDBRANCH  11  15
BRANCH   7  24
HETATM   24  N3  UNL     1      25.031  -0.472  52.830  1.00  0.00    -0.340 N 
HETATM   25  H6  UNL     1      25.468  -0.997  52.060  1.00  0.00     0.167 HD
BRANCH  24  26
HETATM   26  C7  UNL     1      26.205   0.232  53.287  1.00  0.00     0.035 A 
HETATM   27  C8  UNL     1      26.261   1.552  53.631  1.00  0.00     0.032 A 
HETATM   28  C9  UNL     1      27.484   2.046  53.997  1.00  0.00     0.046 A 
HETATM   29  C10 UNL     1      28.578   1.247  54.017  1.00  0.00     0.138 A 
HETATM   30  F1  UNL     1      29.769   1.771  54.374  1.00  0.00    -0.204 F 
HETATM   31  C11 UNL     1      28.450  -0.061  53.665  1.00  0.00     0.074 A 
HETATM   32 CL1  UNL     1      29.949  -1.029  53.715  1.00  0.00    -0.081 Cl
HETATM   33  C12 UNL     1      27.246  -0.722  53.258  1.00  0.00     0.056 A 
ENDBRANCH  24  26
ENDBRANCH   7  24
TORSDOF 5
ENDMDL
MODEL 7
REMARK VINA RESULT:      -8.6      4.021      6.767
REMARK  5 active torsions:
REMARK  status: ('A' for Active; 'I' for Inactive)
REMARK    1  A    between atoms: O1_2  and  C2_3 
REMARK    2  A    between atoms: C6_9  and  N3_10 
REMARK    3  A    between atoms: N3_10  and  C7_11 
REMARK    4  A    between atoms: N4_22  and  C16_23 
REMARK    5  A    between atoms: C16_23  and  C18_25 
ROOT
HETATM    1  C2  UNL     1      22.263   5.451  50.921  1.00  0.00     0.096 A 
HETATM    2  C3  UNL     1      21.193   5.065  51.548  1.00  0.00     0.071 A 
HETATM    3  C4  UNL     1      21.403   3.757  51.909  1.00  0.00     0.075 A 
HETATM    4  N1  UNL     1      20.388   3.170  52.572  1.00  0.00    -0.241 NA
HETATM    5  C5  UNL     1      20.507   1.886  52.956  1.00  0.00     0.236 A 
HETATM    6  N2  UNL     1      21.625   1.251  52.665  1.00  0.00    -0.224 NA
HETATM    7  C6  UNL     1      22.658   1.773  52.019  1.00  0.00     0.142 A 
HETATM    8  C13 UNL     1      22.587   3.076  51.605  1.00  0.00     0.041 A 
HETATM    9  C14 UNL     1      23.526   3.889  50.886  1.00  0.00     0.049 A 
HETATM   10  C15 UNL     1      23.510   5.327  50.389  1.00  0.00     0.063 A 
HETATM   11  N4  UNL     1      24.739   5.202  49.866  1.00  0.00    -0.381 N 
HETATM   12  H11 UNL     1      25.525   4.601  49.764  1.00  0.00     0.160 HD
ENDROOT
BRANCH   1  13
HETATM   13  O1  UNL     1      22.291   6.810  50.440  1.00  0.00    -0.354 OA
HETATM   14  C1  UNL     1      21.152   7.581  50.308  1.00  0.00     0.210 C 
ENDBRANCH   1  13
BRANCH  11  15
HETATM   15  C16 UNL     1      25.325   6.302  49.141  1.00  0.00     0.102 C 
HETATM   16  C17 UNL     1      24.494   6.829  48.001  1.00  0.00     0.034 C 
BRANCH  15  17
HETATM   17  C18 UNL     1      25.913   7.388  49.973  1.00  0.00     0.133 C 
HETATM   18  C19 UNL     1      25.073   8.655  49.839  1.00  0.00     0.208 C 
HETATM   19  O2  UNL     1      25.986   9.662  50.230  1.00  0.00    -0.302 OA
HETATM   20  C20 UNL     1      27.285   9.188  49.983  1.00  0.00     0.361 C 
HETATM   21  O3  UNL     1      28.063  10.188  50.006  1.00  0.00    -0.239 OA
HETATM   22  N5  UNL     1      27.260   7.752  49.791  1.00  0.00    -0.328 N 
HETATM   23  H19 UNL     1      28.280   7.547  49.592  1.00  0.00     0.165 HD
ENDBRANCH  15  17
ENDBRANCH  11  15
BRANCH   7  24
HETATM   24  N3  UNL     1      23.869   1.142  51.701  1.00  0.00    -0.340 N 
HETATM   25  H6  UNL     1      24.364   0.810  50.861  1.00  0.00     0.167 HD
BRANCH  24  26
HETATM   26  C7  UNL     1      24.859   0.765  52.682  1.00  0.00     0.035 A 
HETATM   27  C8  UNL     1      24.743  -0.254  53.582  1.00  0.00     0.032 A 
HETATM   28  C9  UNL     1      25.777  -0.423  54.463  1.00  0.00     0.046 A 
HETATM   29  C10 UNL     1      26.860   0.391  54.428  1.00  0.00     0.138 A 
HETATM   30  F1  UNL     1      27.855   0.200  55.319  1.00  0.00    -0.204 F 
HETATM   31  C11 UNL     1      26.911   1.386  53.501  1.00  0.00     0.074 A 
HETATM   32 CL1  UNL     1      28.374   2.408  53.540  1.00  0.00    -0.081 Cl
HETATM   33  C12 UNL     1      25.915   1.690  52.518  1.00  0.00     0.056 A 
ENDBRANCH  24  26
ENDBRANCH   7  24
TORSDOF 5
ENDMDL
MODEL 8
REMARK VINA RESULT:      -8.6      4.293      7.115
REMARK  5 active torsions:
REMARK  status: ('A' for Active; 'I' for Inactive)
REMARK    1  A    between atoms: O1_2  and  C2_3 
REMARK    2  A    between atoms: C6_9  and  N3_10 
REMARK    3  A    between atoms: N3_10  and  C7_11 
REMARK    4  A    between atoms: N4_22  and  C16_23 
REMARK    5  A    between atoms: C16_23  and  C18_25 
ROOT
HETATM    1  C2  UNL     1      20.315   0.566  52.574  1.00  0.00     0.096 A 
HETATM    2  C3  UNL     1      20.287  -0.255  53.579  1.00  0.00     0.071 A 
HETATM    3  C4  UNL     1      21.592  -0.450  53.961  1.00  0.00     0.075 A 
HETATM    4  N1  UNL     1      21.772  -1.289  54.999  1.00  0.00    -0.241 NA
HETATM    5  C5  UNL     1      23.020  -1.543  55.431  1.00  0.00     0.236 A 
HETATM    6  N2  UNL     1      24.025  -0.951  54.816  1.00  0.00    -0.224 NA
HETATM    7  C6  UNL     1      23.912  -0.116  53.792  1.00  0.00     0.142 A 
HETATM    8  C13 UNL     1      22.663   0.175  53.312  1.00  0.00     0.041 A 
HETATM    9  C14 UNL     1      22.242   1.016  52.230  1.00  0.00     0.049 A 
HETATM   10  C15 UNL     1      20.886   1.375  51.639  1.00  0.00     0.063 A 
HETATM   11  N4  UNL     1      21.452   2.171  50.720  1.00  0.00    -0.381 N 
HETATM   12  H11 UNL     1      22.306   2.565  50.396  1.00  0.00     0.160 HD
ENDROOT
BRANCH   1  13
HETATM   13  O1  UNL     1      19.049   0.938  51.991  1.00  0.00    -0.354 OA
HETATM   14  C1  UNL     1      18.223   0.031  51.355  1.00  0.00     0.210 C 
ENDBRANCH   1  13
BRANCH  11  15
HETATM   15  C16 UNL     1      20.628   2.823  49.732  1.00  0.00     0.102 C 
HETATM   16  C17 UNL     1      20.405   4.295  49.958  1.00  0.00     0.034 C 
BRANCH  15  17
HETATM   17  C18 UNL     1      20.940   2.501  48.312  1.00  0.00     0.133 C 
HETATM   18  C19 UNL     1      22.413   2.127  48.178  1.00  0.00     0.208 C 
HETATM   19  O2  UNL     1      22.655   2.352  46.803  1.00  0.00    -0.302 OA
HETATM   20  C20 UNL     1      21.732   3.309  46.352  1.00  0.00     0.361 C 
HETATM   21  O3  UNL     1      22.158   3.753  45.244  1.00  0.00    -0.239 OA
HETATM   22  N5  UNL     1      20.648   3.440  47.305  1.00  0.00    -0.328 N 
HETATM   23  H19 UNL     1      20.060   4.196  46.854  1.00  0.00     0.165 HD
ENDBRANCH  15  17
ENDBRANCH  11  15
BRANCH   7  24
HETATM   24  N3  UNL     1      24.948   0.546  53.117  1.00  0.00    -0.340 N 
HETATM   25  H6  UNL     1      25.061   1.357  52.493  1.00  0.00     0.167 HD
BRANCH  24  26
HETATM   26  C7  UNL     1      26.332   0.144  53.182  1.00  0.00     0.035 A 
HETATM   27  C8  UNL     1      26.828  -1.076  52.823  1.00  0.00     0.032 A 
HETATM   28  C9  UNL     1      28.169  -1.278  53.003  1.00  0.00     0.046 A 
HETATM   29  C10 UNL     1      28.957  -0.299  53.511  1.00  0.00     0.138 A 
HETATM   30  F1  UNL     1      30.274  -0.538  53.683  1.00  0.00    -0.204 F 
HETATM   31  C11 UNL     1      28.397   0.895  53.845  1.00  0.00     0.074 A 
HETATM   32 CL1  UNL     1      29.515   2.116  54.513  1.00  0.00    -0.081 Cl
HETATM   33  C12 UNL     1      27.017   1.257  53.719  1.00  0.00     0.056 A 
ENDBRANCH  24  26
ENDBRANCH   7  24
TORSDOF 5
ENDMDL
MODEL 9
REMARK VINA RESULT:      -8.3      5.825      8.459
REMARK  5 active torsions:
REMARK  status: ('A' for Active; 'I' for Inactive)
REMARK    1  A    between atoms: O1_2  and  C2_3 
REMARK    2  A    between atoms: C6_9  and  N3_10 
REMARK    3  A    between atoms: N3_10  and  C7_11 
REMARK    4  A    between atoms: N4_22  and  C16_23 
REMARK    5  A    between atoms: C16_23  and  C18_25 
ROOT
HETATM    1  C2  UNL     1      26.194   6.603  48.334  1.00  0.00     0.096 A 
HETATM    2  C3  UNL     1      26.584   7.606  47.607  1.00  0.00     0.071 A 
HETATM    3  C4  UNL     1      27.931   7.439  47.401  1.00  0.00     0.075 A 
HETATM    4  N1  UNL     1      28.527   8.396  46.664  1.00  0.00    -0.241 NA
HETATM    5  C5  UNL     1      29.848   8.314  46.422  1.00  0.00     0.236 A 
HETATM    6  N2  UNL     1      30.509   7.289  46.920  1.00  0.00    -0.224 NA
HETATM    7  C6  UNL     1      29.981   6.315  47.649  1.00  0.00     0.142 A 
HETATM    8  C13 UNL     1      28.640   6.352  47.926  1.00  0.00     0.041 A 
HETATM    9  C14 UNL     1      27.810   5.463  48.686  1.00  0.00     0.049 A 
HETATM   10  C15 UNL     1      26.330   5.447  49.040  1.00  0.00     0.063 A 
HETATM   11  N4  UNL     1      26.468   4.307  49.734  1.00  0.00    -0.381 N 
HETATM   12  H11 UNL     1      27.097   3.583  49.998  1.00  0.00     0.160 HD
ENDROOT
BRANCH   1  13
HETATM   13  O1  UNL     1      24.797   6.547  48.685  1.00  0.00    -0.354 OA
HETATM   14  C1  UNL     1      24.248   7.307  49.700  1.00  0.00     0.210 C 
ENDBRANCH   1  13
BRANCH  11  15
HETATM   15  C16 UNL     1      25.333   3.748  50.426  1.00  0.00     0.102 C 
HETATM   16  C17 UNL     1      24.153   3.416  49.552  1.00  0.00     0.034 C 
BRANCH  15  17
HETATM   17  C18 UNL     1      25.638   2.674  51.412  1.00  0.00     0.133 C 
HETATM   18  C19 UNL     1      24.643   2.736  52.567  1.00  0.00     0.208 C 
HETATM   19  O2  UNL     1      25.336   2.054  53.595  1.00  0.00    -0.302 OA
HETATM   20  C20 UNL     1      26.712   2.168  53.338  1.00  0.00     0.361 C 
HETATM   21  O3  UNL     1      27.322   1.867  54.407  1.00  0.00    -0.239 OA
HETATM   22  N5  UNL     1      26.928   2.585  51.967  1.00  0.00    -0.328 N 
HETATM   23  H19 UNL     1      27.984   2.652  51.930  1.00  0.00     0.165 HD
ENDBRANCH  15  17
ENDBRANCH  11  15
BRANCH   7  24
HETATM   24  N3  UNL     1      30.640   5.201  48.186  1.00  0.00    -0.340 N 
HETATM   25  H6  UNL     1      30.502   4.519  48.945  1.00  0.00     0.167 HD
BRANCH  24  26
HETATM   26  C7  UNL     1      31.887   4.684  47.675  1.00  0.00     0.035 A 
HETATM   27  C8  UNL     1      32.021   3.774  46.666  1.00  0.00     0.032 A 
HETATM   28  C9  UNL     1      33.293   3.374  46.356  1.00  0.00     0.046 A 
HETATM   29  C10 UNL     1      34.360   3.870  47.028  1.00  0.00     0.138 A 
HETATM   30  F1  UNL     1      35.598   3.445  46.702  1.00  0.00    -0.204 F 
HETATM   31  C11 UNL     1      34.154   4.777  48.022  1.00  0.00     0.074 A 
HETATM   32 CL1  UNL     1      35.621   5.365  48.851  1.00  0.00    -0.081 Cl
HETATM   33  C12 UNL     1      32.892   5.290  48.461  1.00  0.00     0.056 A 
ENDBRANCH  24  26
ENDBRANCH   7  24
TORSDOF 5
ENDMDL
