MODEL 1
REMARK VINA RESULT:      -7.1      0.000      0.000
REMARK  3 active torsions:
REMARK  status: ('A' for Active; 'I' for Inactive)
REMARK    1  A    between atoms: C2_3  and  C3_4 
REMARK    2  A    between atoms: C2_3  and  C18_25 
REMARK    3  A    between atoms: C4_5  and  N1_6 
ROOT
HETATM    1  N1  UNL     1      25.740   3.886  50.134  1.00  0.00    -0.324 N 
HETATM    2  C5  UNL     1      26.705   4.551  49.331  1.00  0.00     0.212 C 
HETATM    3  N2  UNL     1      26.852   5.663  48.630  1.00  0.00    -0.237 NA
HETATM    4  C6  UNL     1      25.730   6.595  48.590  1.00  0.00     0.234 C 
HETATM    5  N3  UNL     1      24.640   6.640  49.331  1.00  0.00    -0.242 NA
HETATM    6  C7  UNL     1      24.399   5.700  50.358  1.00  0.00     0.089 C 
HETATM    7  C8  UNL     1      24.211   6.062  51.638  1.00  0.00     0.001 C 
HETATM    8  C9  UNL     1      23.607   5.119  52.311  1.00  0.00    -0.008 C 
HETATM    9  C10 UNL     1      22.263   5.223  51.780  1.00  0.00     0.068 C 
HETATM   10  C11 UNL     1      21.594   4.138  51.104  1.00  0.00    -0.031 A 
HETATM   11  C12 UNL     1      22.220   3.606  50.024  1.00  0.00     0.040 A 
HETATM   12  C13 UNL     1      22.751   2.966  48.910  1.00  0.00     0.052 A 
HETATM   13  C14 UNL     1      21.611   2.174  48.999  1.00  0.00     0.062 A 
HETATM   14 CL1  UNL     1      22.121   1.261  47.612  1.00  0.00    -0.082 Cl
HETATM   15  C15 UNL     1      20.590   2.261  49.931  1.00  0.00     0.050 A 
HETATM   16  C16 UNL     1      20.592   3.208  50.940  1.00  0.00     0.042 A 
HETATM   17 CL2  UNL     1      19.367   3.369  52.165  1.00  0.00    -0.084 Cl
HETATM   18  N4  UNL     1      23.931   3.770  48.803  1.00  0.00    -0.362 N 
HETATM   19  C17 UNL     1      24.342   4.296  50.118  1.00  0.00     0.243 C 
HETATM   20  H11 UNL     1      23.687   3.430  47.859  1.00  0.00     0.162 HD
ENDROOT
BRANCH   1  21
HETATM   21  C4  UNL     1      26.330   2.831  50.894  1.00  0.00     0.095 C 
HETATM   22  C3  UNL     1      26.666   2.457  52.109  1.00  0.00     0.025 C 
BRANCH  22  23
HETATM   23  C2  UNL     1      27.298   1.229  52.568  1.00  0.00    -0.015 C 
HETATM   24  C1  UNL     1      26.683   0.184  52.016  1.00  0.00     0.451 C 
HETATM   25  F1  UNL     1      27.307  -0.957  52.472  1.00  0.00    -0.451 F 
BRANCH  23  26
HETATM   26  C18 UNL     1      28.431   1.463  53.511  1.00  0.00     0.259 C 
HETATM   27  F2  UNL     1      28.658   2.839  53.514  1.00  0.00    -0.251 F 
ENDBRANCH  23  26
ENDBRANCH  22  23
ENDBRANCH   1  21
TORSDOF 3
ENDMDL
MODEL 2
REMARK VINA RESULT:      -6.9      6.929     10.029
REMARK  3 active torsions:
REMARK  status: ('A' for Active; 'I' for Inactive)
REMARK    1  A    between atoms: C2_3  and  C3_4 
REMARK    2  A    between atoms: C2_3  and  C18_25 
REMARK    3  A    between atoms: C4_5  and  N1_6 
ROOT
HETATM    1  N1  UNL     1      30.303   8.544  48.089  1.00  0.00    -0.324 N 
HETATM    2  C5  UNL     1      30.238   9.718  48.887  1.00  0.00     0.212 C 
HETATM    3  N2  UNL     1      30.727  10.947  48.929  1.00  0.00    -0.237 NA
HETATM    4  C6  UNL     1      31.641  11.352  47.866  1.00  0.00     0.234 C 
HETATM    5  N3  UNL     1      31.905  10.773  46.711  1.00  0.00    -0.242 NA
HETATM    6  C7  UNL     1      31.272   9.573  46.317  1.00  0.00     0.089 C 
HETATM    7  C8  UNL     1      30.550   9.474  45.190  1.00  0.00     0.001 C 
HETATM    8  C9  UNL     1      30.422   8.228  44.819  1.00  0.00    -0.008 C 
HETATM    9  C10 UNL     1      31.757   7.949  44.332  1.00  0.00     0.068 C 
HETATM   10  C11 UNL     1      32.601   6.917  44.886  1.00  0.00    -0.031 A 
HETATM   11  C12 UNL     1      32.857   6.980  46.217  1.00  0.00     0.040 A 
HETATM   12  C13 UNL     1      33.194   6.920  47.564  1.00  0.00     0.052 A 
HETATM   13  C14 UNL     1      33.869   5.760  47.196  1.00  0.00     0.062 A 
HETATM   14 CL1  UNL     1      34.385   5.524  48.839  1.00  0.00    -0.082 Cl
HETATM   15  C15 UNL     1      33.955   5.193  45.936  1.00  0.00     0.050 A 
HETATM   16  C16 UNL     1      33.341   5.757  44.831  1.00  0.00     0.042 A 
HETATM   17 CL2  UNL     1      33.374   5.099  43.221  1.00  0.00    -0.084 Cl
HETATM   18  N4  UNL     1      32.506   8.111  47.962  1.00  0.00    -0.362 N 
HETATM   19  C17 UNL     1      31.347   8.375  47.088  1.00  0.00     0.243 C 
HETATM   20  H11 UNL     1      33.304   7.972  48.601  1.00  0.00     0.162 HD
ENDROOT
BRANCH   1  21
HETATM   21  C4  UNL     1      29.254   7.632  48.417  1.00  0.00     0.095 C 
HETATM   22  C3  UNL     1      28.372   6.802  47.906  1.00  0.00     0.025 C 
BRANCH  22  23
HETATM   23  C2  UNL     1      27.379   5.969  48.569  1.00  0.00    -0.015 C 
HETATM   24  C1  UNL     1      27.800   4.705  48.579  1.00  0.00     0.451 C 
HETATM   25  F1  UNL     1      26.838   3.949  49.213  1.00  0.00    -0.451 F 
BRANCH  23  26
HETATM   26  C18 UNL     1      26.187   6.733  49.044  1.00  0.00     0.259 C 
HETATM   27  F2  UNL     1      25.095   6.228  48.338  1.00  0.00    -0.251 F 
ENDBRANCH  23  26
ENDBRANCH  22  23
ENDBRANCH   1  21
TORSDOF 3
ENDMDL
MODEL 3
REMARK VINA RESULT:      -6.9      2.863      4.945
REMARK  3 active torsions:
REMARK  status: ('A' for Active; 'I' for Inactive)
REMARK    1  A    between atoms: C2_3  and  C3_4 
REMARK    2  A    between atoms: C2_3  and  C18_25 
REMARK    3  A    between atoms: C4_5  and  N1_6 
ROOT
HETATM    1  N1  UNL     1      22.400   1.998  51.681  1.00  0.00    -0.324 N 
HETATM    2  C5  UNL     1      21.690   1.592  52.843  1.00  0.00     0.212 C 
HETATM    3  N2  UNL     1      20.449   1.416  53.266  1.00  0.00    -0.237 NA
HETATM    4  C6  UNL     1      19.365   1.693  52.329  1.00  0.00     0.234 C 
HETATM    5  N3  UNL     1      19.402   1.880  51.024  1.00  0.00    -0.242 NA
HETATM    6  C7  UNL     1      20.612   1.828  50.298  1.00  0.00     0.089 C 
HETATM    7  C8  UNL     1      20.810   0.970  49.284  1.00  0.00     0.001 C 
HETATM    8  C9  UNL     1      21.787   1.367  48.514  1.00  0.00    -0.008 C 
HETATM    9  C10 UNL     1      21.163   2.481  47.831  1.00  0.00     0.068 C 
HETATM   10  C11 UNL     1      21.665   3.832  47.901  1.00  0.00    -0.031 A 
HETATM   11  C12 UNL     1      21.801   4.375  49.137  1.00  0.00     0.040 A 
HETATM   12  C13 UNL     1      21.996   5.049  50.337  1.00  0.00     0.052 A 
HETATM   13  C14 UNL     1      22.468   6.072  49.521  1.00  0.00     0.062 A 
HETATM   14 CL1  UNL     1      22.777   7.060  50.916  1.00  0.00    -0.082 Cl
HETATM   15  C15 UNL     1      22.566   6.077  48.140  1.00  0.00     0.050 A 
HETATM   16  C16 UNL     1      22.178   4.994  47.370  1.00  0.00     0.042 A 
HETATM   17 CL2  UNL     1      22.292   4.905  45.636  1.00  0.00    -0.084 Cl
HETATM   18  N4  UNL     1      21.514   4.007  51.194  1.00  0.00    -0.362 N 
HETATM   19  C17 UNL     1      21.720   2.679  50.587  1.00  0.00     0.243 C 
HETATM   20  H11 UNL     1      21.347   4.912  51.662  1.00  0.00     0.162 HD
ENDROOT
BRANCH   1  21
HETATM   21  C4  UNL     1      23.783   1.655  51.768  1.00  0.00     0.095 C 
HETATM   22  C3  UNL     1      24.675   1.022  52.497  1.00  0.00     0.025 C 
BRANCH  22  23
HETATM   23  C2  UNL     1      26.106   0.853  52.285  1.00  0.00    -0.015 C 
HETATM   24  C1  UNL     1      26.444  -0.409  52.544  1.00  0.00     0.451 C 
HETATM   25  F1  UNL     1      27.801  -0.530  52.333  1.00  0.00    -0.451 F 
BRANCH  23  26
HETATM   26  C18 UNL     1      26.792   2.107  51.851  1.00  0.00     0.259 C 
HETATM   27  F2  UNL     1      26.792   2.088  50.457  1.00  0.00    -0.251 F 
ENDBRANCH  23  26
ENDBRANCH  22  23
ENDBRANCH   1  21
TORSDOF 3
ENDMDL
MODEL 4
REMARK VINA RESULT:      -6.9      7.974     10.878
REMARK  3 active torsions:
REMARK  status: ('A' for Active; 'I' for Inactive)
REMARK    1  A    between atoms: C2_3  and  C3_4 
REMARK    2  A    between atoms: C2_3  and  C18_25 
REMARK    3  A    between atoms: C4_5  and  N1_6 
ROOT
HETATM    1  N1  UNL     1      32.124   4.969  47.287  1.00  0.00    -0.324 N 
HETATM    2  C5  UNL     1      32.457   3.640  47.664  1.00  0.00     0.212 C 
HETATM    3  N2  UNL     1      33.518   2.888  47.909  1.00  0.00    -0.237 NA
HETATM    4  C6  UNL     1      34.833   3.509  47.788  1.00  0.00     0.234 C 
HETATM    5  N3  UNL     1      35.163   4.782  47.693  1.00  0.00    -0.242 NA
HETATM    6  C7  UNL     1      34.190   5.806  47.699  1.00  0.00     0.089 C 
HETATM    7  C8  UNL     1      34.187   6.793  48.610  1.00  0.00     0.001 C 
HETATM    8  C9  UNL     1      33.493   7.818  48.192  1.00  0.00    -0.008 C 
HETATM    9  C10 UNL     1      34.381   8.358  47.183  1.00  0.00     0.068 C 
HETATM   10  C11 UNL     1      34.012   8.491  45.795  1.00  0.00    -0.031 A 
HETATM   11  C12 UNL     1      33.605   7.366  45.155  1.00  0.00     0.040 A 
HETATM   12  C13 UNL     1      33.165   6.296  44.383  1.00  0.00     0.052 A 
HETATM   13  C14 UNL     1      33.029   7.258  43.387  1.00  0.00     0.062 A 
HETATM   14 CL1  UNL     1      32.457   6.047  42.279  1.00  0.00    -0.082 Cl
HETATM   15  C15 UNL     1      33.303   8.612  43.473  1.00  0.00     0.050 A 
HETATM   16  C16 UNL     1      33.774   9.196  44.636  1.00  0.00     0.042 A 
HETATM   17 CL2  UNL     1      34.117  10.890  44.840  1.00  0.00    -0.084 Cl
HETATM   18  N4  UNL     1      33.298   5.293  45.396  1.00  0.00    -0.362 N 
HETATM   19  C17 UNL     1      33.133   5.869  46.744  1.00  0.00     0.243 C 
HETATM   20  H11 UNL     1      33.422   4.840  44.477  1.00  0.00     0.162 HD
ENDROOT
BRANCH   1  21
HETATM   21  C4  UNL     1      30.741   5.244  47.510  1.00  0.00     0.095 C 
HETATM   22  C3  UNL     1      29.905   6.058  48.117  1.00  0.00     0.025 C 
BRANCH  22  23
HETATM   23  C2  UNL     1      28.450   6.056  48.141  1.00  0.00    -0.015 C 
HETATM   24  C1  UNL     1      28.018   4.878  48.591  1.00  0.00     0.451 C 
HETATM   25  F1  UNL     1      26.641   4.914  48.600  1.00  0.00    -0.451 F 
BRANCH  23  26
HETATM   26  C18 UNL     1      27.848   7.336  47.664  1.00  0.00     0.259 C 
HETATM   27  F2  UNL     1      28.663   7.787  46.626  1.00  0.00    -0.251 F 
ENDBRANCH  23  26
ENDBRANCH  22  23
ENDBRANCH   1  21
TORSDOF 3
ENDMDL
MODEL 5
REMARK VINA RESULT:      -6.7      2.569      3.009
REMARK  3 active torsions:
REMARK  status: ('A' for Active; 'I' for Inactive)
REMARK    1  A    between atoms: C2_3  and  C3_4 
REMARK    2  A    between atoms: C2_3  and  C18_25 
REMARK    3  A    between atoms: C4_5  and  N1_6 
ROOT
HETATM    1  N1  UNL     1      25.103   4.008  50.206  1.00  0.00    -0.324 N 
HETATM    2  C5  UNL     1      26.412   3.690  49.753  1.00  0.00     0.212 C 
HETATM    3  N2  UNL     1      27.406   4.224  49.062  1.00  0.00    -0.237 NA
HETATM    4  C6  UNL     1      27.225   5.575  48.542  1.00  0.00     0.234 C 
HETATM    5  N3  UNL     1      26.308   6.478  48.834  1.00  0.00    -0.242 NA
HETATM    6  C7  UNL     1      25.289   6.226  49.779  1.00  0.00     0.089 C 
HETATM    7  C8  UNL     1      25.112   6.990  50.869  1.00  0.00     0.001 C 
HETATM    8  C9  UNL     1      23.908   6.846  51.355  1.00  0.00    -0.008 C 
HETATM    9  C10 UNL     1      23.127   7.566  50.369  1.00  0.00     0.068 C 
HETATM   10  C11 UNL     1      22.079   6.952  49.590  1.00  0.00    -0.031 A 
HETATM   11  C12 UNL     1      22.414   5.860  48.857  1.00  0.00     0.040 A 
HETATM   12  C13 UNL     1      22.618   4.734  48.068  1.00  0.00     0.052 A 
HETATM   13  C14 UNL     1      21.257   4.848  47.805  1.00  0.00     0.062 A 
HETATM   14 CL1  UNL     1      21.325   3.450  46.777  1.00  0.00    -0.082 Cl
HETATM   15  C15 UNL     1      20.376   5.798  48.294  1.00  0.00     0.050 A 
HETATM   16  C16 UNL     1      20.782   6.805  49.153  1.00  0.00     0.042 A 
HETATM   17 CL2  UNL     1      19.739   8.020  49.836  1.00  0.00    -0.084 Cl
HETATM   18  N4  UNL     1      24.021   4.601  48.326  1.00  0.00    -0.362 N 
HETATM   19  C17 UNL     1      24.374   5.140  49.653  1.00  0.00     0.243 C 
HETATM   20  H11 UNL     1      23.828   4.210  47.390  1.00  0.00     0.162 HD
ENDROOT
BRANCH   1  21
HETATM   21  C4  UNL     1      24.664   3.096  51.213  1.00  0.00     0.095 C 
HETATM   22  C3  UNL     1      23.741   2.209  51.511  1.00  0.00     0.025 C 
BRANCH  22  23
HETATM   23  C2  UNL     1      23.573   1.401  52.710  1.00  0.00    -0.015 C 
HETATM   24  C1  UNL     1      22.274   1.254  52.965  1.00  0.00     0.451 C 
HETATM   25  F1  UNL     1      22.155   0.486  54.103  1.00  0.00    -0.451 F 
BRANCH  23  26
HETATM   26  C18 UNL     1      24.866   0.969  53.318  1.00  0.00     0.259 C 
HETATM   27  F2  UNL     1      25.248  -0.188  52.641  1.00  0.00    -0.251 F 
ENDBRANCH  23  26
ENDBRANCH  22  23
ENDBRANCH   1  21
TORSDOF 3
ENDMDL
MODEL 6
REMARK VINA RESULT:      -6.7      3.791      5.998
REMARK  3 active torsions:
REMARK  status: ('A' for Active; 'I' for Inactive)
REMARK    1  A    between atoms: C2_3  and  C3_4 
REMARK    2  A    between atoms: C2_3  and  C18_25 
REMARK    3  A    between atoms: C4_5  and  N1_6 
ROOT
HETATM    1  N1  UNL     1      22.845   5.527  49.251  1.00  0.00    -0.324 N 
HETATM    2  C5  UNL     1      22.480   6.897  49.357  1.00  0.00     0.212 C 
HETATM    3  N2  UNL     1      22.852   8.002  49.982  1.00  0.00    -0.237 NA
HETATM    4  C6  UNL     1      23.997   7.922  50.883  1.00  0.00     0.234 C 
HETATM    5  N3  UNL     1      24.898   6.969  51.024  1.00  0.00    -0.242 NA
HETATM    6  C7  UNL     1      24.866   5.792  50.242  1.00  0.00     0.089 C 
HETATM    7  C8  UNL     1      25.890   5.418  49.459  1.00  0.00     0.001 C 
HETATM    8  C9  UNL     1      25.827   4.145  49.175  1.00  0.00    -0.008 C 
HETATM    9  C10 UNL     1      26.206   3.561  50.445  1.00  0.00     0.068 C 
HETATM   10  C11 UNL     1      25.350   2.674  51.194  1.00  0.00    -0.031 A 
HETATM   11  C12 UNL     1      24.117   3.136  51.520  1.00  0.00     0.040 A 
HETATM   12  C13 UNL     1      22.828   3.481  51.913  1.00  0.00     0.052 A 
HETATM   13  C14 UNL     1      22.797   2.191  52.434  1.00  0.00     0.062 A 
HETATM   14 CL1  UNL     1      21.174   2.445  53.001  1.00  0.00    -0.082 Cl
HETATM   15  C15 UNL     1      23.800   1.237  52.395  1.00  0.00     0.050 A 
HETATM   16  C16 UNL     1      25.024   1.479  51.795  1.00  0.00     0.042 A 
HETATM   17 CL2  UNL     1      26.326   0.330  51.677  1.00  0.00    -0.084 Cl
HETATM   18  N4  UNL     1      22.841   4.811  51.382  1.00  0.00    -0.362 N 
HETATM   19  C17 UNL     1      23.743   4.914  50.220  1.00  0.00     0.243 C 
HETATM   20  H11 UNL     1      22.199   4.793  52.190  1.00  0.00     0.162 HD
ENDROOT
BRANCH   1  21
HETATM   21  C4  UNL     1      22.225   4.908  48.124  1.00  0.00     0.095 C 
HETATM   22  C3  UNL     1      21.239   5.018  47.261  1.00  0.00     0.025 C 
BRANCH  22  23
HETATM   23  C2  UNL     1      20.860   4.148  46.157  1.00  0.00    -0.015 C 
HETATM   24  C1  UNL     1      21.705   4.329  45.143  1.00  0.00     0.451 C 
HETATM   25  F1  UNL     1      21.317   3.490  44.121  1.00  0.00    -0.451 F 
BRANCH  23  26
HETATM   26  C18 UNL     1      19.658   3.312  46.448  1.00  0.00     0.259 C 
HETATM   27  F2  UNL     1      20.027   2.443  47.475  1.00  0.00    -0.251 F 
ENDBRANCH  23  26
ENDBRANCH  22  23
ENDBRANCH   1  21
TORSDOF 3
ENDMDL
MODEL 7
REMARK VINA RESULT:      -6.6      4.423      5.565
REMARK  3 active torsions:
REMARK  status: ('A' for Active; 'I' for Inactive)
REMARK    1  A    between atoms: C2_3  and  C3_4 
REMARK    2  A    between atoms: C2_3  and  C18_25 
REMARK    3  A    between atoms: C4_5  and  N1_6 
ROOT
HETATM    1  N1  UNL     1      20.647   1.075  50.251  1.00  0.00    -0.324 N 
HETATM    2  C5  UNL     1      21.484   0.918  49.113  1.00  0.00     0.212 C 
HETATM    3  N2  UNL     1      21.694   1.456  47.923  1.00  0.00    -0.237 NA
HETATM    4  C6  UNL     1      20.860   2.588  47.533  1.00  0.00     0.234 C 
HETATM    5  N3  UNL     1      20.059   3.341  48.261  1.00  0.00    -0.242 NA
HETATM    6  C7  UNL     1      19.892   3.126  49.648  1.00  0.00     0.089 C 
HETATM    7  C8  UNL     1      20.155   4.073  50.562  1.00  0.00     0.001 C 
HETATM    8  C9  UNL     1      19.552   3.819  51.692  1.00  0.00    -0.008 C 
HETATM    9  C10 UNL     1      18.179   4.124  51.345  1.00  0.00     0.068 C 
HETATM   10  C11 UNL     1      17.112   3.156  51.418  1.00  0.00    -0.031 A 
HETATM   11  C12 UNL     1      17.271   2.009  50.711  1.00  0.00     0.040 A 
HETATM   12  C13 UNL     1      17.308   0.790  50.042  1.00  0.00     0.052 A 
HETATM   13  C14 UNL     1      16.081   0.576  50.663  1.00  0.00     0.062 A 
HETATM   14 CL1  UNL     1      15.957  -0.984  49.908  1.00  0.00    -0.082 Cl
HETATM   15  C15 UNL     1      15.406   1.426  51.522  1.00  0.00     0.050 A 
HETATM   16  C16 UNL     1      15.911   2.665  51.880  1.00  0.00     0.042 A 
HETATM   17 CL2  UNL     1      15.145   3.781  52.973  1.00  0.00    -0.084 Cl
HETATM   18  N4  UNL     1      18.569   0.993  49.395  1.00  0.00    -0.362 N 
HETATM   19  C17 UNL     1      19.438   1.885  50.185  1.00  0.00     0.243 C 
HETATM   20  H11 UNL     1      18.001   0.365  48.804  1.00  0.00     0.162 HD
ENDROOT
BRANCH   1  21
HETATM   21  C4  UNL     1      21.154   0.356  51.375  1.00  0.00     0.095 C 
HETATM   22  C3  UNL     1      21.849   0.474  52.484  1.00  0.00     0.025 C 
BRANCH  22  23
HETATM   23  C2  UNL     1      22.209  -0.532  53.474  1.00  0.00    -0.015 C 
HETATM   24  C1  UNL     1      21.102  -1.116  53.931  1.00  0.00     0.451 C 
HETATM   25  F1  UNL     1      21.482  -2.059  54.862  1.00  0.00    -0.451 F 
BRANCH  23  26
HETATM   26  C18 UNL     1      23.680  -0.633  53.708  1.00  0.00     0.259 C 
HETATM   27  F2  UNL     1      24.173   0.671  53.658  1.00  0.00    -0.251 F 
ENDBRANCH  23  26
ENDBRANCH  22  23
ENDBRANCH   1  21
TORSDOF 3
ENDMDL
MODEL 8
REMARK VINA RESULT:      -6.6      3.496      4.384
REMARK  3 active torsions:
REMARK  status: ('A' for Active; 'I' for Inactive)
REMARK    1  A    between atoms: C2_3  and  C3_4 
REMARK    2  A    between atoms: C2_3  and  C18_25 
REMARK    3  A    between atoms: C4_5  and  N1_6 
ROOT
HETATM    1  N1  UNL     1      23.723   7.079  48.707  1.00  0.00    -0.324 N 
HETATM    2  C5  UNL     1      23.355   8.435  48.491  1.00  0.00     0.212 C 
HETATM    3  N2  UNL     1      22.343   9.260  48.705  1.00  0.00    -0.237 NA
HETATM    4  C6  UNL     1      21.161   8.727  49.374  1.00  0.00     0.234 C 
HETATM    5  N3  UNL     1      20.996   7.591  50.025  1.00  0.00    -0.242 NA
HETATM    6  C7  UNL     1      22.047   6.659  50.174  1.00  0.00     0.089 C 
HETATM    7  C8  UNL     1      22.488   6.255  51.376  1.00  0.00     0.001 C 
HETATM    8  C9  UNL     1      23.138   5.126  51.285  1.00  0.00    -0.008 C 
HETATM    9  C10 UNL     1      22.048   4.201  51.051  1.00  0.00     0.068 C 
HETATM   10  C11 UNL     1      21.950   3.378  49.870  1.00  0.00    -0.031 A 
HETATM   11  C12 UNL     1      21.962   4.016  48.672  1.00  0.00     0.040 A 
HETATM   12  C13 UNL     1      21.970   4.539  47.384  1.00  0.00     0.052 A 
HETATM   13  C14 UNL     1      21.898   3.204  46.997  1.00  0.00     0.062 A 
HETATM   14 CL1  UNL     1      21.898   3.676  45.324  1.00  0.00    -0.082 Cl
HETATM   15  C15 UNL     1      21.858   2.087  47.813  1.00  0.00     0.050 A 
HETATM   16  C16 UNL     1      21.884   2.181  49.194  1.00  0.00     0.042 A 
HETATM   17 CL2  UNL     1      21.865   0.830  50.291  1.00  0.00    -0.084 Cl
HETATM   18  N4  UNL     1      22.044   5.918  47.763  1.00  0.00    -0.362 N 
HETATM   19  C17 UNL     1      22.725   6.079  49.062  1.00  0.00     0.243 C 
HETATM   20  H11 UNL     1      21.561   5.860  46.853  1.00  0.00     0.162 HD
ENDROOT
BRANCH   1  21
HETATM   21  C4  UNL     1      25.126   6.884  48.525  1.00  0.00     0.095 C 
HETATM   22  C3  UNL     1      26.160   6.178  48.927  1.00  0.00     0.025 C 
BRANCH  22  23
HETATM   23  C2  UNL     1      27.552   6.238  48.507  1.00  0.00    -0.015 C 
HETATM   24  C1  UNL     1      28.054   5.004  48.469  1.00  0.00     0.451 C 
HETATM   25  F1  UNL     1      29.370   5.101  48.068  1.00  0.00    -0.451 F 
BRANCH  23  26
HETATM   26  C18 UNL     1      28.032   7.627  48.243  1.00  0.00     0.259 C 
HETATM   27  F2  UNL     1      28.011   8.286  49.471  1.00  0.00    -0.251 F 
ENDBRANCH  23  26
ENDBRANCH  22  23
ENDBRANCH   1  21
TORSDOF 3
ENDMDL
MODEL 9
REMARK VINA RESULT:      -6.5      8.582     10.605
REMARK  3 active torsions:
REMARK  status: ('A' for Active; 'I' for Inactive)
REMARK    1  A    between atoms: C2_3  and  C3_4 
REMARK    2  A    between atoms: C2_3  and  C18_25 
REMARK    3  A    between atoms: C4_5  and  N1_6 
ROOT
HETATM    1  N1  UNL     1      32.931   7.437  45.425  1.00  0.00    -0.324 N 
HETATM    2  C5  UNL     1      33.013   6.870  44.124  1.00  0.00     0.212 C 
HETATM    3  N2  UNL     1      32.789   7.188  42.860  1.00  0.00    -0.237 NA
HETATM    4  C6  UNL     1      32.297   8.532  42.574  1.00  0.00     0.234 C 
HETATM    5  N3  UNL     1      32.244   9.597  43.351  1.00  0.00    -0.242 NA
HETATM    6  C7  UNL     1      32.704   9.568  44.686  1.00  0.00     0.089 C 
HETATM    7  C8  UNL     1      33.669  10.387  45.135  1.00  0.00     0.001 C 
HETATM    8  C9  UNL     1      33.639  10.483  46.437  1.00  0.00    -0.008 C 
HETATM    9  C10 UNL     1      32.457  11.300  46.624  1.00  0.00     0.068 C 
HETATM   10  C11 UNL     1      31.305  10.864  47.376  1.00  0.00    -0.031 A 
HETATM   11  C12 UNL     1      30.717   9.705  46.984  1.00  0.00     0.040 A 
HETATM   12  C13 UNL     1      30.024   8.535  46.696  1.00  0.00     0.052 A 
HETATM   13  C14 UNL     1      29.255   8.888  47.800  1.00  0.00     0.062 A 
HETATM   14 CL1  UNL     1      28.277   7.467  47.590  1.00  0.00    -0.082 Cl
HETATM   15  C15 UNL     1      29.400   9.999  48.613  1.00  0.00     0.050 A 
HETATM   16  C16 UNL     1      30.390  10.943  48.401  1.00  0.00     0.042 A 
HETATM   17 CL2  UNL     1      30.661  12.350  49.389  1.00  0.00    -0.084 Cl
HETATM   18  N4  UNL     1      30.804   8.155  45.557  1.00  0.00    -0.362 N 
HETATM   19  C17 UNL     1      32.184   8.665  45.660  1.00  0.00     0.243 C 
HETATM   20  H11 UNL     1      29.852   7.776  45.435  1.00  0.00     0.162 HD
ENDROOT
BRANCH   1  21
HETATM   21  C4  UNL     1      33.647   6.655  46.381  1.00  0.00     0.095 C 
HETATM   22  C3  UNL     1      33.762   5.450  46.894  1.00  0.00     0.025 C 
BRANCH  22  23
HETATM   23  C2  UNL     1      34.657   4.957  47.931  1.00  0.00    -0.015 C 
HETATM   24  C1  UNL     1      35.133   5.987  48.628  1.00  0.00     0.451 C 
HETATM   25  F1  UNL     1      35.973   5.483  49.598  1.00  0.00    -0.451 F 
BRANCH  23  26
HETATM   26  C18 UNL     1      34.799   3.471  47.932  1.00  0.00     0.259 C 
HETATM   27  F2  UNL     1      35.467   3.142  46.753  1.00  0.00    -0.251 F 
ENDBRANCH  23  26
ENDBRANCH  22  23
ENDBRANCH   1  21
TORSDOF 3
ENDMDL
