MODEL 1
REMARK VINA RESULT:      -9.8      0.000      0.000
REMARK  5 active torsions:
REMARK  status: ('A' for Active; 'I' for Inactive)
REMARK    1  A    between atoms: C6_6  and  N1_7 
REMARK    2  A    between atoms: N1_7  and  C7_8 
REMARK    3  A    between atoms: N4_18  and  C15_19 
REMARK    4  A    between atoms: C15_19  and  C16_20 
REMARK    5  A    between atoms: C16_20  and  C17_21 
ROOT
HETATM    1  C7  UNL     1      24.744  -0.275  53.998  1.00  0.00     0.141 A 
HETATM    2  N2  UNL     1      25.105  -0.914  55.114  1.00  0.00    -0.224 NA
HETATM    3  C8  UNL     1      24.207  -1.537  55.894  1.00  0.00     0.236 A 
HETATM    4  N3  UNL     1      22.901  -1.541  55.579  1.00  0.00    -0.241 NA
HETATM    5  C9  UNL     1      22.434  -0.924  54.472  1.00  0.00     0.075 A 
HETATM    6  C10 UNL     1      21.094  -0.922  54.139  1.00  0.00     0.071 A 
HETATM    7  C11 UNL     1      20.647  -0.270  52.981  1.00  0.00     0.098 A 
HETATM    8  C12 UNL     1      21.605   0.365  52.196  1.00  0.00     0.068 A 
HETATM    9  C13 UNL     1      22.935   0.339  52.565  1.00  0.00     0.050 A 
HETATM   10  C14 UNL     1      23.404  -0.293  53.696  1.00  0.00     0.041 A 
HETATM   11  N4  UNL     1      21.146   1.030  51.013  1.00  0.00    -0.354 N 
HETATM   12  P1  UNL     1      19.434   1.605  50.948  1.00  0.00    -0.002 P 
HETATM   13  C23 UNL     1      18.463   0.537  52.115  1.00  0.00     0.228 C 
HETATM   14  O1  UNL     1      19.294  -0.370  52.809  1.00  0.00    -0.343 OA
HETATM   15  H28 UNL     1      18.948   1.344  49.603  1.00  0.00     0.082 HD
ENDROOT
BRANCH  11  16
HETATM   16  C15 UNL     1      22.092   1.202  49.929  1.00  0.00     0.130 C 
BRANCH  16  17
HETATM   17  C16 UNL     1      22.377   2.672  49.756  1.00  0.00     0.056 C 
BRANCH  17  18
HETATM   18  C17 UNL     1      23.743   3.029  50.357  1.00  0.00     0.225 C 
HETATM   19  N5  UNL     1      23.473   3.874  51.473  1.00  0.00     0.088 N 
HETATM   20  C18 UNL     1      23.859   5.240  51.343  1.00  0.00     0.270 C 
HETATM   21  H17 UNL     1      23.974   3.489  52.311  1.00  0.00     0.316 HD
HETATM   22  C19 UNL     1      23.558   5.846  49.989  1.00  0.00     0.030 C 
HETATM   23  C20 UNL     1      24.130   5.025  48.877  1.00  0.00     0.008 C 
HETATM   24  C21 UNL     1      24.593   3.669  49.296  1.00  0.00     0.015 C 
HETATM   25  C22 UNL     1      26.041   3.715  49.696  1.00  0.00     0.012 C 
ENDBRANCH  17  18
ENDBRANCH  16  17
ENDBRANCH  11  16
BRANCH   1  26
HETATM   26  N1  UNL     1      25.713   0.376  53.189  1.00  0.00    -0.343 N 
HETATM   27  H8  UNL     1      25.530   1.062  52.438  1.00  0.00     0.167 HD
BRANCH  26  28
HETATM   28  C6  UNL     1      27.098   0.055  53.430  1.00  0.00     0.018 A 
HETATM   29  C2  UNL     1      28.102   0.842  54.205  1.00  0.00     0.054 A 
HETATM   30  C1  UNL     1      28.446   2.155  53.567  1.00  0.00     0.020 C 
HETATM   31  C3  UNL     1      29.323  -0.026  54.069  1.00  0.00    -0.016 A 
HETATM   32  C4  UNL     1      29.097  -1.114  53.356  1.00  0.00    -0.001 A 
HETATM   33  C5  UNL     1      27.717  -1.045  52.971  1.00  0.00     0.025 A 
ENDBRANCH  26  28
ENDBRANCH   1  26
TORSDOF 5
ENDMDL
MODEL 2
REMARK VINA RESULT:      -9.0      1.367      1.814
REMARK  5 active torsions:
REMARK  status: ('A' for Active; 'I' for Inactive)
REMARK    1  A    between atoms: C6_6  and  N1_7 
REMARK    2  A    between atoms: N1_7  and  C7_8 
REMARK    3  A    between atoms: N4_18  and  C15_19 
REMARK    4  A    between atoms: C15_19  and  C16_20 
REMARK    5  A    between atoms: C16_20  and  C17_21 
ROOT
HETATM    1  C7  UNL     1      25.038   0.050  54.242  1.00  0.00     0.141 A 
HETATM    2  N2  UNL     1      25.026  -0.879  55.201  1.00  0.00    -0.224 NA
HETATM    3  C8  UNL     1      23.928  -1.602  55.473  1.00  0.00     0.236 A 
HETATM    4  N3  UNL     1      22.789  -1.416  54.784  1.00  0.00    -0.241 NA
HETATM    5  C9  UNL     1      22.697  -0.503  53.795  1.00  0.00     0.075 A 
HETATM    6  C10 UNL     1      21.533  -0.304  53.080  1.00  0.00     0.071 A 
HETATM    7  C11 UNL     1      21.475   0.656  52.060  1.00  0.00     0.098 A 
HETATM    8  C12 UNL     1      22.632   1.387  51.805  1.00  0.00     0.068 A 
HETATM    9  C13 UNL     1      23.776   1.157  52.543  1.00  0.00     0.050 A 
HETATM   10  C14 UNL     1      23.862   0.222  53.551  1.00  0.00     0.041 A 
HETATM   11  N4  UNL     1      22.571   2.366  50.761  1.00  0.00    -0.354 N 
HETATM   12  P1  UNL     1      20.967   3.080  50.331  1.00  0.00    -0.002 P 
HETATM   13  C23 UNL     1      19.678   1.835  50.815  1.00  0.00     0.228 C 
HETATM   14  O1  UNL     1      20.246   0.716  51.461  1.00  0.00    -0.343 OA
HETATM   15  H28 UNL     1      20.934   3.210  48.884  1.00  0.00     0.082 HD
ENDROOT
BRANCH  11  16
HETATM   16  C15 UNL     1      23.812   2.728  50.107  1.00  0.00     0.130 C 
BRANCH  16  17
HETATM   17  C16 UNL     1      24.322   4.015  50.701  1.00  0.00     0.056 C 
BRANCH  17  18
HETATM   18  C17 UNL     1      24.756   4.985  49.594  1.00  0.00     0.225 C 
HETATM   19  N5  UNL     1      25.802   5.776  50.151  1.00  0.00     0.088 N 
HETATM   20  C18 UNL     1      25.502   7.150  50.389  1.00  0.00     0.270 C 
HETATM   21  H17 UNL     1      26.626   5.748  49.500  1.00  0.00     0.316 HD
HETATM   22  C19 UNL     1      24.128   7.393  50.975  1.00  0.00     0.030 C 
HETATM   23  C20 UNL     1      23.055   6.750  50.155  1.00  0.00     0.008 C 
HETATM   24  C21 UNL     1      23.563   5.778  49.141  1.00  0.00     0.015 C 
HETATM   25  C22 UNL     1      23.822   6.476  47.835  1.00  0.00     0.012 C 
ENDBRANCH  17  18
ENDBRANCH  16  17
ENDBRANCH  11  16
BRANCH   1  26
HETATM   26  N1  UNL     1      26.212   0.802  53.973  1.00  0.00    -0.343 N 
HETATM   27  H8  UNL     1      26.274   1.825  53.843  1.00  0.00     0.167 HD
BRANCH  26  28
HETATM   28  C6  UNL     1      27.452   0.075  53.870  1.00  0.00     0.018 A 
HETATM   29  C2  UNL     1      28.712   0.292  54.640  1.00  0.00     0.054 A 
HETATM   30  C1  UNL     1      29.376   1.602  54.332  1.00  0.00     0.020 C 
HETATM   31  C3  UNL     1      29.599  -0.777  54.060  1.00  0.00    -0.016 A 
HETATM   32  C4  UNL     1      28.992  -1.491  53.130  1.00  0.00    -0.001 A 
HETATM   33  C5  UNL     1      27.668  -0.950  53.028  1.00  0.00     0.025 A 
ENDBRANCH  26  28
ENDBRANCH   1  26
TORSDOF 5
ENDMDL
MODEL 3
REMARK VINA RESULT:      -8.8      2.333      3.131
REMARK  5 active torsions:
REMARK  status: ('A' for Active; 'I' for Inactive)
REMARK    1  A    between atoms: C6_6  and  N1_7 
REMARK    2  A    between atoms: N1_7  and  C7_8 
REMARK    3  A    between atoms: N4_18  and  C15_19 
REMARK    4  A    between atoms: C15_19  and  C16_20 
REMARK    5  A    between atoms: C16_20  and  C17_21 
ROOT
HETATM    1  C7  UNL     1      24.585   0.708  53.207  1.00  0.00     0.141 A 
HETATM    2  N2  UNL     1      24.230  -0.300  54.007  1.00  0.00    -0.224 NA
HETATM    3  C8  UNL     1      23.061  -0.943  53.860  1.00  0.00     0.236 A 
HETATM    4  N3  UNL     1      22.195  -0.592  52.894  1.00  0.00    -0.241 NA
HETATM    5  C9  UNL     1      22.459   0.414  52.034  1.00  0.00     0.075 A 
HETATM    6  C10 UNL     1      21.577   0.784  51.038  1.00  0.00     0.071 A 
HETATM    7  C11 UNL     1      21.885   1.835  50.163  1.00  0.00     0.098 A 
HETATM    8  C12 UNL     1      23.107   2.478  50.344  1.00  0.00     0.068 A 
HETATM    9  C13 UNL     1      23.960   2.078  51.353  1.00  0.00     0.050 A 
HETATM   10  C14 UNL     1      23.684   1.049  52.227  1.00  0.00     0.041 A 
HETATM   11  N4  UNL     1      23.420   3.551  49.449  1.00  0.00    -0.354 N 
HETATM   12  P1  UNL     1      22.066   4.445  48.654  1.00  0.00    -0.002 P 
HETATM   13  C23 UNL     1      20.619   3.283  48.592  1.00  0.00     0.228 C 
HETATM   14  O1  UNL     1      20.900   2.061  49.243  1.00  0.00    -0.343 OA
HETATM   15  H28 UNL     1      22.477   4.710  47.286  1.00  0.00     0.082 HD
ENDROOT
BRANCH  11  16
HETATM   16  C15 UNL     1      24.820   3.858  49.232  1.00  0.00     0.130 C 
BRANCH  16  17
HETATM   17  C16 UNL     1      24.960   5.330  48.942  1.00  0.00     0.056 C 
BRANCH  17  18
HETATM   18  C17 UNL     1      26.358   5.825  49.334  1.00  0.00     0.225 C 
HETATM   19  N5  UNL     1      26.159   6.800  50.355  1.00  0.00     0.088 N 
HETATM   20  C18 UNL     1      26.449   8.152  50.007  1.00  0.00     0.270 C 
HETATM   21  H17 UNL     1      26.768   6.554  51.174  1.00  0.00     0.316 HD
HETATM   22  C19 UNL     1      25.971   8.555  48.629  1.00  0.00     0.030 C 
HETATM   23  C20 UNL     1      26.469   7.618  47.574  1.00  0.00     0.008 C 
HETATM   24  C21 UNL     1      27.053   6.352  48.110  1.00  0.00     0.015 C 
HETATM   25  C22 UNL     1      28.530   6.516  48.336  1.00  0.00     0.012 C 
ENDBRANCH  17  18
ENDBRANCH  16  17
ENDBRANCH  11  16
BRANCH   1  26
HETATM   26  N1  UNL     1      25.828   1.372  53.383  1.00  0.00    -0.343 N 
HETATM   27  H8  UNL     1      25.982   2.392  53.431  1.00  0.00     0.167 HD
BRANCH  26  28
HETATM   28  C6  UNL     1      27.004   0.548  53.508  1.00  0.00     0.018 A 
HETATM   29  C2  UNL     1      28.179   0.753  54.405  1.00  0.00     0.054 A 
HETATM   30  C1  UNL     1      28.985   1.969  54.055  1.00  0.00     0.020 C 
HETATM   31  C3  UNL     1      29.032  -0.434  54.049  1.00  0.00    -0.016 A 
HETATM   32  C4  UNL     1      28.478  -1.198  53.124  1.00  0.00    -0.001 A 
HETATM   33  C5  UNL     1      27.228  -0.575  52.805  1.00  0.00     0.025 A 
ENDBRANCH  26  28
ENDBRANCH   1  26
TORSDOF 5
ENDMDL
MODEL 4
REMARK VINA RESULT:      -8.7      2.270      4.844
REMARK  5 active torsions:
REMARK  status: ('A' for Active; 'I' for Inactive)
REMARK    1  A    between atoms: C6_6  and  N1_7 
REMARK    2  A    between atoms: N1_7  and  C7_8 
REMARK    3  A    between atoms: N4_18  and  C15_19 
REMARK    4  A    between atoms: C15_19  and  C16_20 
REMARK    5  A    between atoms: C16_20  and  C17_21 
ROOT
HETATM    1  C7  UNL     1      25.811   2.481  51.210  1.00  0.00     0.141 A 
HETATM    2  N2  UNL     1      27.092   2.662  51.541  1.00  0.00    -0.224 NA
HETATM    3  C8  UNL     1      27.649   2.027  52.584  1.00  0.00     0.236 A 
HETATM    4  N3  UNL     1      26.932   1.179  53.342  1.00  0.00    -0.241 NA
HETATM    5  C9  UNL     1      25.630   0.928  53.090  1.00  0.00     0.075 A 
HETATM    6  C10 UNL     1      24.884   0.059  53.862  1.00  0.00     0.071 A 
HETATM    7  C11 UNL     1      23.533  -0.177  53.570  1.00  0.00     0.098 A 
HETATM    8  C12 UNL     1      22.989   0.498  52.481  1.00  0.00     0.068 A 
HETATM    9  C13 UNL     1      23.769   1.359  51.736  1.00  0.00     0.050 A 
HETATM   10  C14 UNL     1      25.098   1.610  51.998  1.00  0.00     0.041 A 
HETATM   11  N4  UNL     1      21.609   0.255  52.185  1.00  0.00    -0.354 N 
HETATM   12  P1  UNL     1      20.516  -0.291  53.516  1.00  0.00    -0.002 P 
HETATM   13  C23 UNL     1      21.585  -1.136  54.777  1.00  0.00     0.228 C 
HETATM   14  O1  UNL     1      22.954  -1.063  54.436  1.00  0.00    -0.343 OA
HETATM   15  H28 UNL     1      19.625  -1.291  52.952  1.00  0.00     0.082 HD
ENDROOT
BRANCH  11  16
HETATM   16  C15 UNL     1      21.167   0.464  50.820  1.00  0.00     0.130 C 
BRANCH  16  17
HETATM   17  C16 UNL     1      19.906   1.289  50.834  1.00  0.00     0.056 C 
BRANCH  17  18
HETATM   18  C17 UNL     1      20.201   2.715  51.318  1.00  0.00     0.225 C 
HETATM   19  N5  UNL     1      18.936   3.363  51.427  1.00  0.00     0.088 N 
HETATM   20  C18 UNL     1      18.669   4.396  50.482  1.00  0.00     0.270 C 
HETATM   21  H17 UNL     1      18.861   3.790  52.383  1.00  0.00     0.316 HD
HETATM   22  C19 UNL     1      19.109   4.077  49.070  1.00  0.00     0.030 C 
HETATM   23  C20 UNL     1      20.548   3.671  49.018  1.00  0.00     0.008 C 
HETATM   24  C21 UNL     1      21.146   3.375  50.354  1.00  0.00     0.015 C 
HETATM   25  C22 UNL     1      21.757   4.618  50.937  1.00  0.00     0.012 C 
ENDBRANCH  17  18
ENDBRANCH  16  17
ENDBRANCH  11  16
BRANCH   1  26
HETATM   26  N1  UNL     1      25.244   3.164  50.101  1.00  0.00    -0.343 N 
HETATM   27  H8  UNL     1      24.353   2.942  49.629  1.00  0.00     0.167 HD
BRANCH  26  28
HETATM   28  C6  UNL     1      25.979   4.285  49.570  1.00  0.00     0.018 A 
HETATM   29  C2  UNL     1      25.596   5.727  49.588  1.00  0.00     0.054 A 
HETATM   30  C1  UNL     1      24.393   6.030  48.744  1.00  0.00     0.020 C 
HETATM   31  C3  UNL     1      26.771   6.352  48.885  1.00  0.00    -0.016 A 
HETATM   32  C4  UNL     1      27.677   5.462  48.520  1.00  0.00    -0.001 A 
HETATM   33  C5  UNL     1      27.170   4.193  48.953  1.00  0.00     0.025 A 
ENDBRANCH  26  28
ENDBRANCH   1  26
TORSDOF 5
ENDMDL
MODEL 5
REMARK VINA RESULT:      -8.3      3.021      5.961
REMARK  5 active torsions:
REMARK  status: ('A' for Active; 'I' for Inactive)
REMARK    1  A    between atoms: C6_6  and  N1_7 
REMARK    2  A    between atoms: N1_7  and  C7_8 
REMARK    3  A    between atoms: N4_18  and  C15_19 
REMARK    4  A    between atoms: C15_19  and  C16_20 
REMARK    5  A    between atoms: C16_20  and  C17_21 
ROOT
HETATM    1  C7  UNL     1      23.763   0.845  53.154  1.00  0.00     0.141 A 
HETATM    2  N2  UNL     1      24.189  -0.370  53.504  1.00  0.00    -0.224 NA
HETATM    3  C8  UNL     1      25.375  -0.849  53.096  1.00  0.00     0.236 A 
HETATM    4  N3  UNL     1      26.185  -0.115  52.313  1.00  0.00    -0.241 NA
HETATM    5  C9  UNL     1      25.846   1.126  51.904  1.00  0.00     0.075 A 
HETATM    6  C10 UNL     1      26.670   1.888  51.100  1.00  0.00     0.071 A 
HETATM    7  C11 UNL     1      26.284   3.173  50.695  1.00  0.00     0.098 A 
HETATM    8  C12 UNL     1      25.048   3.637  51.137  1.00  0.00     0.068 A 
HETATM    9  C13 UNL     1      24.254   2.842  51.940  1.00  0.00     0.050 A 
HETATM   10  C14 UNL     1      24.607   1.577  52.354  1.00  0.00     0.041 A 
HETATM   11  N4  UNL     1      24.656   4.950  50.722  1.00  0.00    -0.354 N 
HETATM   12  P1  UNL     1      25.355   5.627  49.199  1.00  0.00    -0.002 P 
HETATM   13  C23 UNL     1      26.984   4.777  48.932  1.00  0.00     0.228 C 
HETATM   14  O1  UNL     1      27.220   3.780  49.904  1.00  0.00    -0.343 OA
HETATM   15  H28 UNL     1      25.627   7.033  49.444  1.00  0.00     0.082 HD
ENDROOT
BRANCH  11  16
HETATM   16  C15 UNL     1      23.712   5.665  51.557  1.00  0.00     0.130 C 
BRANCH  16  17
HETATM   17  C16 UNL     1      23.046   6.739  50.737  1.00  0.00     0.056 C 
BRANCH  17  18
HETATM   18  C17 UNL     1      21.522   6.557  50.748  1.00  0.00     0.225 C 
HETATM   19  N5  UNL     1      21.285   5.255  51.278  1.00  0.00     0.088 N 
HETATM   20  C18 UNL     1      20.780   4.281  50.369  1.00  0.00     0.270 C 
HETATM   21  H17 UNL     1      20.592   5.336  52.063  1.00  0.00     0.316 HD
HETATM   22  C19 UNL     1      21.428   4.312  49.002  1.00  0.00     0.030 C 
HETATM   23  C20 UNL     1      21.379   5.678  48.396  1.00  0.00     0.008 C 
HETATM   24  C21 UNL     1      20.994   6.756  49.356  1.00  0.00     0.015 C 
HETATM   25  C22 UNL     1      19.503   6.951  49.348  1.00  0.00     0.012 C 
ENDBRANCH  17  18
ENDBRANCH  16  17
ENDBRANCH  11  16
BRANCH   1  26
HETATM   26  N1  UNL     1      22.503   1.329  53.599  1.00  0.00    -0.343 N 
HETATM   27  H8  UNL     1      22.338   2.049  54.321  1.00  0.00     0.167 HD
BRANCH  26  28
HETATM   28  C6  UNL     1      21.326   0.766  52.986  1.00  0.00     0.018 A 
HETATM   29  C2  UNL     1      20.242  -0.028  53.636  1.00  0.00     0.054 A 
HETATM   30  C1  UNL     1      20.705  -1.364  54.137  1.00  0.00     0.020 C 
HETATM   31  C3  UNL     1      19.339  -0.306  52.465  1.00  0.00    -0.016 A 
HETATM   32  C4  UNL     1      19.792   0.216  51.339  1.00  0.00    -0.001 A 
HETATM   33  C5  UNL     1      21.019   0.873  51.682  1.00  0.00     0.025 A 
ENDBRANCH  26  28
ENDBRANCH   1  26
TORSDOF 5
ENDMDL
MODEL 6
REMARK VINA RESULT:      -8.3      2.447      5.280
REMARK  5 active torsions:
REMARK  status: ('A' for Active; 'I' for Inactive)
REMARK    1  A    between atoms: C6_6  and  N1_7 
REMARK    2  A    between atoms: N1_7  and  C7_8 
REMARK    3  A    between atoms: N4_18  and  C15_19 
REMARK    4  A    between atoms: C15_19  and  C16_20 
REMARK    5  A    between atoms: C16_20  and  C17_21 
ROOT
HETATM    1  C7  UNL     1      20.731   0.321  52.968  1.00  0.00     0.141 A 
HETATM    2  N2  UNL     1      19.937  -0.633  53.462  1.00  0.00    -0.224 NA
HETATM    3  C8  UNL     1      20.420  -1.639  54.207  1.00  0.00     0.236 A 
HETATM    4  N3  UNL     1      21.733  -1.726  54.486  1.00  0.00    -0.241 NA
HETATM    5  C9  UNL     1      22.618  -0.813  54.034  1.00  0.00     0.075 A 
HETATM    6  C10 UNL     1      23.967  -0.892  54.314  1.00  0.00     0.071 A 
HETATM    7  C11 UNL     1      24.857   0.075  53.826  1.00  0.00     0.098 A 
HETATM    8  C12 UNL     1      24.321   1.105  53.058  1.00  0.00     0.068 A 
HETATM    9  C13 UNL     1      22.965   1.147  52.800  1.00  0.00     0.050 A 
HETATM   10  C14 UNL     1      22.068   0.211  53.266  1.00  0.00     0.041 A 
HETATM   11  N4  UNL     1      25.232   2.092  52.561  1.00  0.00    -0.354 N 
HETATM   12  P1  UNL     1      26.968   1.642  52.340  1.00  0.00    -0.002 P 
HETATM   13  C23 UNL     1      27.315   0.247  53.515  1.00  0.00     0.228 C 
HETATM   14  O1  UNL     1      26.151  -0.162  54.201  1.00  0.00    -0.343 OA
HETATM   15  H28 UNL     1      27.761   2.784  52.764  1.00  0.00     0.082 HD
ENDROOT
BRANCH  11  16
HETATM   16  C15 UNL     1      24.701   3.407  52.263  1.00  0.00     0.130 C 
BRANCH  16  17
HETATM   17  C16 UNL     1      24.752   3.631  50.774  1.00  0.00     0.056 C 
BRANCH  17  18
HETATM   18  C17 UNL     1      25.265   5.043  50.461  1.00  0.00     0.225 C 
HETATM   19  N5  UNL     1      24.541   5.924  51.316  1.00  0.00     0.088 N 
HETATM   20  C18 UNL     1      23.600   6.790  50.686  1.00  0.00     0.270 C 
HETATM   21  H17 UNL     1      25.227   6.532  51.827  1.00  0.00     0.316 HD
HETATM   22  C19 UNL     1      22.780   6.131  49.597  1.00  0.00     0.030 C 
HETATM   23  C20 UNL     1      23.649   5.462  48.580  1.00  0.00     0.008 C 
HETATM   24  C21 UNL     1      25.076   5.320  48.996  1.00  0.00     0.015 C 
HETATM   25  C22 UNL     1      25.869   6.516  48.548  1.00  0.00     0.012 C 
ENDBRANCH  17  18
ENDBRANCH  16  17
ENDBRANCH  11  16
BRANCH   1  26
HETATM   26  N1  UNL     1      20.196   1.376  52.182  1.00  0.00    -0.343 N 
HETATM   27  H8  UNL     1      19.448   2.033  52.457  1.00  0.00     0.167 HD
BRANCH  26  28
HETATM   28  C6  UNL     1      20.745   1.560  50.862  1.00  0.00     0.018 A 
HETATM   29  C2  UNL     1      21.134   2.839  50.198  1.00  0.00     0.054 A 
HETATM   30  C1  UNL     1      19.966   3.735  49.911  1.00  0.00     0.020 C 
HETATM   31  C3  UNL     1      21.621   2.341  48.864  1.00  0.00    -0.016 A 
HETATM   32  C4  UNL     1      21.541   1.027  48.752  1.00  0.00    -0.001 A 
HETATM   33  C5  UNL     1      20.999   0.564  49.995  1.00  0.00     0.025 A 
ENDBRANCH  26  28
ENDBRANCH   1  26
TORSDOF 5
ENDMDL
MODEL 7
REMARK VINA RESULT:      -8.3      2.247      5.847
REMARK  5 active torsions:
REMARK  status: ('A' for Active; 'I' for Inactive)
REMARK    1  A    between atoms: C6_6  and  N1_7 
REMARK    2  A    between atoms: N1_7  and  C7_8 
REMARK    3  A    between atoms: N4_18  and  C15_19 
REMARK    4  A    between atoms: C15_19  and  C16_20 
REMARK    5  A    between atoms: C16_20  and  C17_21 
ROOT
HETATM    1  C7  UNL     1      25.640   2.552  51.042  1.00  0.00     0.141 A 
HETATM    2  N2  UNL     1      26.934   2.711  51.329  1.00  0.00    -0.224 NA
HETATM    3  C8  UNL     1      27.520   2.057  52.344  1.00  0.00     0.236 A 
HETATM    4  N3  UNL     1      26.819   1.210  53.118  1.00  0.00    -0.241 NA
HETATM    5  C9  UNL     1      25.506   0.979  52.910  1.00  0.00     0.075 A 
HETATM    6  C10 UNL     1      24.776   0.111  53.698  1.00  0.00     0.071 A 
HETATM    7  C11 UNL     1      23.413  -0.104  53.453  1.00  0.00     0.098 A 
HETATM    8  C12 UNL     1      22.839   0.590  52.392  1.00  0.00     0.068 A 
HETATM    9  C13 UNL     1      23.603   1.450  51.628  1.00  0.00     0.050 A 
HETATM   10  C14 UNL     1      24.944   1.681  51.846  1.00  0.00     0.041 A 
HETATM   11  N4  UNL     1      21.446   0.370  52.143  1.00  0.00    -0.354 N 
HETATM   12  P1  UNL     1      20.394  -0.178  53.506  1.00  0.00    -0.002 P 
HETATM   13  C23 UNL     1      21.497  -1.051  54.718  1.00  0.00     0.228 C 
HETATM   14  O1  UNL     1      22.853  -0.992  54.329  1.00  0.00    -0.343 OA
HETATM   15  H28 UNL     1      19.470  -1.160  52.963  1.00  0.00     0.082 HD
ENDROOT
BRANCH  11  16
HETATM   16  C15 UNL     1      20.959   0.600  50.797  1.00  0.00     0.130 C 
BRANCH  16  17
HETATM   17  C16 UNL     1      19.697   1.422  50.866  1.00  0.00     0.056 C 
BRANCH  17  18
HETATM   18  C17 UNL     1      18.592   0.782  50.015  1.00  0.00     0.225 C 
HETATM   19  N5  UNL     1      18.275   1.734  49.002  1.00  0.00     0.088 N 
HETATM   20  C18 UNL     1      16.996   2.356  49.094  1.00  0.00     0.270 C 
HETATM   21  H17 UNL     1      18.321   1.255  48.069  1.00  0.00     0.316 HD
HETATM   22  C19 UNL     1      16.597   2.754  50.498  1.00  0.00     0.030 C 
HETATM   23  C20 UNL     1      16.695   1.602  51.448  1.00  0.00     0.008 C 
HETATM   24  C21 UNL     1      17.434   0.424  50.903  1.00  0.00     0.015 C 
HETATM   25  C22 UNL     1      16.480  -0.517  50.222  1.00  0.00     0.012 C 
ENDBRANCH  17  18
ENDBRANCH  16  17
ENDBRANCH  11  16
BRANCH   1  26
HETATM   26  N1  UNL     1      25.043   3.255  49.962  1.00  0.00    -0.343 N 
HETATM   27  H8  UNL     1      24.397   2.868  49.255  1.00  0.00     0.167 HD
BRANCH  26  28
HETATM   28  C6  UNL     1      25.364   4.654  49.828  1.00  0.00     0.018 A 
HETATM   29  C2  UNL     1      26.165   5.314  48.755  1.00  0.00     0.054 A 
HETATM   30  C1  UNL     1      27.610   4.913  48.764  1.00  0.00     0.020 C 
HETATM   31  C3  UNL     1      26.124   6.751  49.201  1.00  0.00    -0.016 A 
HETATM   32  C4  UNL     1      25.436   6.918  50.316  1.00  0.00    -0.001 A 
HETATM   33  C5  UNL     1      24.975   5.612  50.687  1.00  0.00     0.025 A 
ENDBRANCH  26  28
ENDBRANCH   1  26
TORSDOF 5
ENDMDL
MODEL 8
REMARK VINA RESULT:      -8.1      2.403      4.884
REMARK  5 active torsions:
REMARK  status: ('A' for Active; 'I' for Inactive)
REMARK    1  A    between atoms: C6_6  and  N1_7 
REMARK    2  A    between atoms: N1_7  and  C7_8 
REMARK    3  A    between atoms: N4_18  and  C15_19 
REMARK    4  A    between atoms: C15_19  and  C16_20 
REMARK    5  A    between atoms: C16_20  and  C17_21 
ROOT
HETATM    1  C7  UNL     1      25.671   2.726  50.700  1.00  0.00     0.141 A 
HETATM    2  N2  UNL     1      26.884   2.776  51.254  1.00  0.00    -0.224 NA
HETATM    3  C8  UNL     1      27.176   2.107  52.382  1.00  0.00     0.236 A 
HETATM    4  N3  UNL     1      26.248   1.358  53.001  1.00  0.00    -0.241 NA
HETATM    5  C9  UNL     1      24.991   1.242  52.521  1.00  0.00     0.075 A 
HETATM    6  C10 UNL     1      24.030   0.475  53.149  1.00  0.00     0.071 A 
HETATM    7  C11 UNL     1      22.735   0.379  52.622  1.00  0.00     0.098 A 
HETATM    8  C12 UNL     1      22.469   1.084  51.452  1.00  0.00     0.068 A 
HETATM    9  C13 UNL     1      23.458   1.840  50.856  1.00  0.00     0.050 A 
HETATM   10  C14 UNL     1      24.739   1.953  51.350  1.00  0.00     0.041 A 
HETATM   11  N4  UNL     1      21.145   0.984  50.915  1.00  0.00    -0.354 N 
HETATM   12  P1  UNL     1      19.780   0.587  52.031  1.00  0.00    -0.002 P 
HETATM   13  C23 UNL     1      20.511  -0.340  53.464  1.00  0.00     0.228 C 
HETATM   14  O1  UNL     1      21.918  -0.422  53.372  1.00  0.00    -0.343 OA
HETATM   15  H28 UNL     1      18.900  -0.324  51.319  1.00  0.00     0.082 HD
ENDROOT
BRANCH  11  16
HETATM   16  C15 UNL     1      20.978   1.210  49.493  1.00  0.00     0.130 C 
BRANCH  16  17
HETATM   17  C16 UNL     1      19.972   2.313  49.286  1.00  0.00     0.056 C 
BRANCH  17  18
HETATM   18  C17 UNL     1      20.681   3.664  49.125  1.00  0.00     0.225 C 
HETATM   19  N5  UNL     1      19.652   4.650  49.122  1.00  0.00     0.088 N 
HETATM   20  C18 UNL     1      19.417   5.320  47.885  1.00  0.00     0.270 C 
HETATM   21  H17 UNL     1      19.893   5.386  49.831  1.00  0.00     0.316 HD
HETATM   22  C19 UNL     1      19.444   4.414  46.673  1.00  0.00     0.030 C 
HETATM   23  C20 UNL     1      20.705   3.611  46.610  1.00  0.00     0.008 C 
HETATM   24  C21 UNL     1      21.507   3.637  47.870  1.00  0.00     0.015 C 
HETATM   25  C22 UNL     1      22.497   4.767  47.832  1.00  0.00     0.012 C 
ENDBRANCH  17  18
ENDBRANCH  16  17
ENDBRANCH  11  16
BRANCH   1  26
HETATM   26  N1  UNL     1      25.387   3.442  49.506  1.00  0.00    -0.343 N 
HETATM   27  H8  UNL     1      24.990   3.056  48.634  1.00  0.00     0.167 HD
BRANCH  26  28
HETATM   28  C6  UNL     1      25.679   4.853  49.498  1.00  0.00     0.018 A 
HETATM   29  C2  UNL     1      26.519   5.613  48.526  1.00  0.00     0.054 A 
HETATM   30  C1  UNL     1      27.971   5.243  48.582  1.00  0.00     0.020 C 
HETATM   31  C3  UNL     1      26.417   7.009  49.078  1.00  0.00    -0.016 A 
HETATM   32  C4  UNL     1      25.668   7.073  50.163  1.00  0.00    -0.001 A 
HETATM   33  C5  UNL     1      25.221   5.733  50.406  1.00  0.00     0.025 A 
ENDBRANCH  26  28
ENDBRANCH   1  26
TORSDOF 5
ENDMDL
MODEL 9
REMARK VINA RESULT:      -8.1      2.681      6.622
REMARK  5 active torsions:
REMARK  status: ('A' for Active; 'I' for Inactive)
REMARK    1  A    between atoms: C6_6  and  N1_7 
REMARK    2  A    between atoms: N1_7  and  C7_8 
REMARK    3  A    between atoms: N4_18  and  C15_19 
REMARK    4  A    between atoms: C15_19  and  C16_20 
REMARK    5  A    between atoms: C16_20  and  C17_21 
ROOT
HETATM    1  C7  UNL     1      18.722   0.005  52.027  1.00  0.00     0.141 A 
HETATM    2  N2  UNL     1      17.683  -0.774  52.338  1.00  0.00    -0.224 NA
HETATM    3  C8  UNL     1      17.772  -1.733  53.274  1.00  0.00     0.236 A 
HETATM    4  N3  UNL     1      18.922  -1.947  53.938  1.00  0.00    -0.241 NA
HETATM    5  C9  UNL     1      20.029  -1.213  53.697  1.00  0.00     0.075 A 
HETATM    6  C10 UNL     1      21.214  -1.424  54.373  1.00  0.00     0.071 A 
HETATM    7  C11 UNL     1      22.344  -0.643  54.095  1.00  0.00     0.098 A 
HETATM    8  C12 UNL     1      22.215   0.342  53.120  1.00  0.00     0.068 A 
HETATM    9  C13 UNL     1      21.012   0.520  52.467  1.00  0.00     0.050 A 
HETATM   10  C14 UNL     1      19.885  -0.232  52.718  1.00  0.00     0.041 A 
HETATM   11  N4  UNL     1      23.371   1.140  52.839  1.00  0.00    -0.354 N 
HETATM   12  P1  UNL     1      25.007   0.454  53.183  1.00  0.00    -0.002 P 
HETATM   13  C23 UNL     1      24.786  -0.817  54.519  1.00  0.00     0.228 C 
HETATM   14  O1  UNL     1      23.426  -0.990  54.857  1.00  0.00    -0.343 OA
HETATM   15  H28 UNL     1      25.814   1.532  53.729  1.00  0.00     0.082 HD
ENDROOT
BRANCH  11  16
HETATM   16  C15 UNL     1      23.156   2.463  52.289  1.00  0.00     0.130 C 
BRANCH  16  17
HETATM   17  C16 UNL     1      23.765   2.527  50.912  1.00  0.00     0.056 C 
BRANCH  17  18
HETATM   18  C17 UNL     1      24.855   3.606  50.856  1.00  0.00     0.225 C 
HETATM   19  N5  UNL     1      24.407   4.662  51.702  1.00  0.00     0.088 N 
HETATM   20  C18 UNL     1      24.032   5.877  51.058  1.00  0.00     0.270 C 
HETATM   21  H17 UNL     1      25.175   4.895  52.380  1.00  0.00     0.316 HD
HETATM   22  C19 UNL     1      23.230   5.685  49.789  1.00  0.00     0.030 C 
HETATM   23  C20 UNL     1      23.923   4.769  48.830  1.00  0.00     0.008 C 
HETATM   24  C21 UNL     1      25.067   4.016  49.426  1.00  0.00     0.015 C 
HETATM   25  C22 UNL     1      26.344   4.788  49.251  1.00  0.00     0.012 C 
ENDBRANCH  17  18
ENDBRANCH  16  17
ENDBRANCH  11  16
BRANCH   1  26
HETATM   26  N1  UNL     1      18.602   1.013  51.034  1.00  0.00    -0.343 N 
HETATM   27  H8  UNL     1      19.126   1.070  50.145  1.00  0.00     0.167 HD
BRANCH  26  28
HETATM   28  C6  UNL     1      17.654   2.071  51.279  1.00  0.00     0.018 A 
HETATM   29  C2  UNL     1      16.172   1.964  51.421  1.00  0.00     0.054 A 
HETATM   30  C1  UNL     1      15.484   1.548  50.154  1.00  0.00     0.020 C 
HETATM   31  C3  UNL     1      15.794   3.401  51.654  1.00  0.00    -0.016 A 
HETATM   32  C4  UNL     1      16.840   4.208  51.651  1.00  0.00    -0.001 A 
HETATM   33  C5  UNL     1      17.978   3.368  51.419  1.00  0.00     0.025 A 
ENDBRANCH  26  28
ENDBRANCH   1  26
TORSDOF 5
ENDMDL
