MODEL 1
REMARK VINA RESULT:      -9.1      0.000      0.000
REMARK  4 active torsions:
REMARK  status: ('A' for Active; 'I' for Inactive)
REMARK    1  A    between atoms: O1_1  and  C1_2 
REMARK    2  A    between atoms: C3_5  and  N1_6 
REMARK    3  A    between atoms: C4_8  and  C5_9 
REMARK    4  A    between atoms: C12_16  and  C13_17 
ROOT
HETATM    1  N1  UNL     1      26.388   1.017  52.502  1.00  0.00    -0.253 N 
HETATM    2  N2  UNL     1      26.664   1.738  51.337  1.00  0.00    -0.175 NA
HETATM    3  C4  UNL     1      25.973   2.797  51.288  1.00  0.00     0.067 A 
HETATM    4  C11 UNL     1      25.096   2.921  52.472  1.00  0.00     0.094 A 
HETATM    5  C12 UNL     1      25.350   1.649  53.240  1.00  0.00     0.150 A 
ENDROOT
BRANCH   1   6
HETATM    6  C3  UNL     1      27.196  -0.171  52.733  1.00  0.00     0.097 A 
HETATM    7  S1  UNL     1      28.713   0.331  53.422  1.00  0.00    -0.080 SA
HETATM    8  C2  UNL     1      29.426  -1.396  53.556  1.00  0.00     0.088 A 
HETATM    9  C1  UNL     1      28.342  -2.144  53.023  1.00  0.00     0.074 A 
HETATM   10  C19 UNL     1      27.223  -1.477  52.615  1.00  0.00     0.075 A 
BRANCH   9  11
HETATM   11  O1  UNL     1      28.369  -3.550  52.896  1.00  0.00    -0.360 OA
HETATM   12  H1  UNL     1      29.133  -4.031  52.476  1.00  0.00     0.217 HD
ENDBRANCH   9  11
ENDBRANCH   1   6
BRANCH   5  13
HETATM   13  C13 UNL     1      24.067   0.933  53.316  1.00  0.00    -0.033 A 
HETATM   14  C14 UNL     1      22.942   1.636  52.870  1.00  0.00     0.011 A 
HETATM   15  C15 UNL     1      21.685   1.067  52.876  1.00  0.00     0.019 A 
HETATM   16  C16 UNL     1      21.456  -0.230  53.323  1.00  0.00     0.011 A 
HETATM   17 BR1  UNL     1      19.736  -1.047  53.348  1.00  0.00    -0.051 Br
HETATM   18  C17 UNL     1      22.572  -0.930  53.767  1.00  0.00     0.019 A 
HETATM   19  C18 UNL     1      23.826  -0.368  53.762  1.00  0.00     0.011 A 
ENDBRANCH   5  13
BRANCH   3  20
HETATM   20  C5  UNL     1      25.873   3.902  50.296  1.00  0.00    -0.010 A 
HETATM   21  C6  UNL     1      26.868   4.376  49.481  1.00  0.00     0.013 A 
HETATM   22  C7  UNL     1      26.620   5.417  48.608  1.00  0.00     0.001 A 
HETATM   23  C8  UNL     1      25.373   6.004  48.533  1.00  0.00     0.000 A 
HETATM   24  C9  UNL     1      24.369   5.502  49.379  1.00  0.00     0.001 A 
HETATM   25  C10 UNL     1      24.633   4.446  50.259  1.00  0.00     0.013 A 
ENDBRANCH   3  20
TORSDOF 4
ENDMDL
MODEL 2
REMARK VINA RESULT:      -8.6      3.497      6.349
REMARK  4 active torsions:
REMARK  status: ('A' for Active; 'I' for Inactive)
REMARK    1  A    between atoms: O1_1  and  C1_2 
REMARK    2  A    between atoms: C3_5  and  N1_6 
REMARK    3  A    between atoms: C4_8  and  C5_9 
REMARK    4  A    between atoms: C12_16  and  C13_17 
ROOT
HETATM    1  N1  UNL     1      24.878   2.774  51.329  1.00  0.00    -0.253 N 
HETATM    2  N2  UNL     1      23.623   2.379  50.859  1.00  0.00    -0.175 NA
HETATM    3  C4  UNL     1      22.983   1.755  51.755  1.00  0.00     0.067 A 
HETATM    4  C11 UNL     1      23.772   1.641  52.999  1.00  0.00     0.094 A 
HETATM    5  C12 UNL     1      25.092   2.281  52.646  1.00  0.00     0.150 A 
ENDROOT
BRANCH   1   6
HETATM    6  C3  UNL     1      25.675   3.596  50.430  1.00  0.00     0.097 A 
HETATM    7  S1  UNL     1      24.782   5.051  50.092  1.00  0.00    -0.080 SA
HETATM    8  C2  UNL     1      26.078   5.793  48.960  1.00  0.00     0.088 A 
HETATM    9  C1  UNL     1      27.055   4.763  49.007  1.00  0.00     0.074 A 
HETATM   10  C19 UNL     1      26.807   3.658  49.771  1.00  0.00     0.075 A 
BRANCH   9  11
HETATM   11  O1  UNL     1      28.274   4.829  48.297  1.00  0.00    -0.360 OA
HETATM   12  H1  UNL     1      29.040   4.227  48.500  1.00  0.00     0.217 HD
ENDBRANCH   9  11
ENDBRANCH   1   6
BRANCH   5  13
HETATM   13  C13 UNL     1      26.123   1.244  52.801  1.00  0.00    -0.033 A 
HETATM   14  C14 UNL     1      27.360   1.673  53.295  1.00  0.00     0.011 A 
HETATM   15  C15 UNL     1      28.402   0.793  53.499  1.00  0.00     0.019 A 
HETATM   16  C16 UNL     1      28.292  -0.568  53.230  1.00  0.00     0.011 A 
HETATM   17 BR1  UNL     1      29.709  -1.812  53.498  1.00  0.00    -0.051 Br
HETATM   18  C17 UNL     1      27.064  -0.997  52.739  1.00  0.00     0.019 A 
HETATM   19  C18 UNL     1      26.023  -0.124  52.534  1.00  0.00     0.011 A 
ENDBRANCH   5  13
BRANCH   3  20
HETATM   20  C5  UNL     1      21.633   1.129  51.791  1.00  0.00    -0.010 A 
HETATM   21  C6  UNL     1      20.701   1.110  50.785  1.00  0.00     0.013 A 
HETATM   22  C7  UNL     1      19.483   0.486  50.973  1.00  0.00     0.001 A 
HETATM   23  C8  UNL     1      19.173  -0.130  52.168  1.00  0.00     0.000 A 
HETATM   24  C9  UNL     1      20.144  -0.097  53.184  1.00  0.00     0.001 A 
HETATM   25  C10 UNL     1      21.375   0.538  52.982  1.00  0.00     0.013 A 
ENDBRANCH   3  20
TORSDOF 4
ENDMDL
MODEL 3
REMARK VINA RESULT:      -8.6      3.513      6.341
REMARK  4 active torsions:
REMARK  status: ('A' for Active; 'I' for Inactive)
REMARK    1  A    between atoms: O1_1  and  C1_2 
REMARK    2  A    between atoms: C3_5  and  N1_6 
REMARK    3  A    between atoms: C4_8  and  C5_9 
REMARK    4  A    between atoms: C12_16  and  C13_17 
ROOT
HETATM    1  N1  UNL     1      23.697   0.722  53.278  1.00  0.00    -0.253 N 
HETATM    2  N2  UNL     1      24.716  -0.235  53.274  1.00  0.00    -0.175 NA
HETATM    3  C4  UNL     1      25.853   0.318  53.338  1.00  0.00     0.067 A 
HETATM    4  C11 UNL     1      25.732   1.790  53.388  1.00  0.00     0.094 A 
HETATM    5  C12 UNL     1      24.248   2.032  53.267  1.00  0.00     0.150 A 
ENDROOT
BRANCH   1   6
HETATM    6  C3  UNL     1      22.334   0.213  53.317  1.00  0.00     0.097 A 
HETATM    7  S1  UNL     1      22.275  -1.092  54.467  1.00  0.00    -0.080 SA
HETATM    8  C2  UNL     1      20.453  -1.455  54.227  1.00  0.00     0.088 A 
HETATM    9  C1  UNL     1      20.140  -0.474  53.249  1.00  0.00     0.074 A 
HETATM   10  C19 UNL     1      21.132   0.356  52.812  1.00  0.00     0.075 A 
BRANCH   9  11
HETATM   11  O1  UNL     1      18.846  -0.319  52.704  1.00  0.00    -0.360 OA
HETATM   12  H1  UNL     1      18.025  -0.364  53.263  1.00  0.00     0.217 HD
ENDBRANCH   9  11
ENDBRANCH   1   6
BRANCH   5  13
HETATM   13  C13 UNL     1      24.044   2.822  52.043  1.00  0.00    -0.033 A 
HETATM   14  C14 UNL     1      23.594   4.135  52.224  1.00  0.00     0.011 A 
HETATM   15  C15 UNL     1      23.380   4.979  51.155  1.00  0.00     0.019 A 
HETATM   16  C16 UNL     1      23.596   4.585  49.838  1.00  0.00     0.011 A 
HETATM   17 BR1  UNL     1      23.309   5.722  48.338  1.00  0.00    -0.051 Br
HETATM   18  C17 UNL     1      24.043   3.281  49.656  1.00  0.00     0.019 A 
HETATM   19  C18 UNL     1      24.258   2.436  50.718  1.00  0.00     0.011 A 
ENDBRANCH   5  13
BRANCH   3  20
HETATM   20  C5  UNL     1      27.242  -0.214  53.365  1.00  0.00    -0.010 A 
HETATM   21  C6  UNL     1      27.648  -1.487  53.059  1.00  0.00     0.013 A 
HETATM   22  C7  UNL     1      28.984  -1.833  53.134  1.00  0.00     0.001 A 
HETATM   23  C8  UNL     1      29.939  -0.912  53.517  1.00  0.00     0.000 A 
HETATM   24  C9  UNL     1      29.498   0.387  53.826  1.00  0.00     0.001 A 
HETATM   25  C10 UNL     1      28.142   0.724  53.746  1.00  0.00     0.013 A 
ENDBRANCH   3  20
TORSDOF 4
ENDMDL
MODEL 4
REMARK VINA RESULT:      -8.6      2.973      5.979
REMARK  4 active torsions:
REMARK  status: ('A' for Active; 'I' for Inactive)
REMARK    1  A    between atoms: O1_1  and  C1_2 
REMARK    2  A    between atoms: C3_5  and  N1_6 
REMARK    3  A    between atoms: C4_8  and  C5_9 
REMARK    4  A    between atoms: C12_16  and  C13_17 
ROOT
HETATM    1  N1  UNL     1      25.270   1.331  52.565  1.00  0.00    -0.253 N 
HETATM    2  N2  UNL     1      24.335   0.625  53.327  1.00  0.00    -0.175 NA
HETATM    3  C4  UNL     1      23.225   0.551  52.723  1.00  0.00     0.067 A 
HETATM    4  C11 UNL     1      23.279   1.239  51.415  1.00  0.00     0.094 A 
HETATM    5  C12 UNL     1      24.668   1.826  51.377  1.00  0.00     0.150 A 
ENDROOT
BRANCH   1   6
HETATM    6  C3  UNL     1      26.622   1.396  53.102  1.00  0.00     0.097 A 
HETATM    7  S1  UNL     1      27.309  -0.202  53.035  1.00  0.00    -0.080 SA
HETATM    8  C2  UNL     1      28.958   0.285  53.779  1.00  0.00     0.088 A 
HETATM    9  C1  UNL     1      28.728   1.672  53.983  1.00  0.00     0.074 A 
HETATM   10  C19 UNL     1      27.520   2.196  53.622  1.00  0.00     0.075 A 
BRANCH   9  11
HETATM   11  O1  UNL     1      29.695   2.535  54.544  1.00  0.00    -0.360 OA
HETATM   12  H1  UNL     1      30.571   2.205  54.880  1.00  0.00     0.217 HD
ENDBRANCH   9  11
ENDBRANCH   1   6
BRANCH   5  13
HETATM   13  C13 UNL     1      24.511   3.285  51.277  1.00  0.00    -0.033 A 
HETATM   14  C14 UNL     1      25.177   3.906  50.214  1.00  0.00     0.011 A 
HETATM   15  C15 UNL     1      25.095   5.267  50.005  1.00  0.00     0.019 A 
HETATM   16  C16 UNL     1      24.351   6.104  50.830  1.00  0.00     0.011 A 
HETATM   17 BR1  UNL     1      24.216   7.986  50.574  1.00  0.00    -0.051 Br
HETATM   18  C17 UNL     1      23.688   5.490  51.887  1.00  0.00     0.019 A 
HETATM   19  C18 UNL     1      23.767   4.134  52.099  1.00  0.00     0.011 A 
ENDBRANCH   5  13
BRANCH   3  20
HETATM   20  C5  UNL     1      21.918  -0.070  53.067  1.00  0.00    -0.010 A 
HETATM   21  C6  UNL     1      21.692  -1.074  53.973  1.00  0.00     0.013 A 
HETATM   22  C7  UNL     1      20.412  -1.552  54.183  1.00  0.00     0.001 A 
HETATM   23  C8  UNL     1      19.335  -1.035  53.492  1.00  0.00     0.000 A 
HETATM   24  C9  UNL     1      19.593  -0.006  52.568  1.00  0.00     0.001 A 
HETATM   25  C10 UNL     1      20.894   0.469  52.365  1.00  0.00     0.013 A 
ENDBRANCH   3  20
TORSDOF 4
ENDMDL
MODEL 5
REMARK VINA RESULT:      -8.4      3.439      6.380
REMARK  4 active torsions:
REMARK  status: ('A' for Active; 'I' for Inactive)
REMARK    1  A    between atoms: O1_1  and  C1_2 
REMARK    2  A    between atoms: C3_5  and  N1_6 
REMARK    3  A    between atoms: C4_8  and  C5_9 
REMARK    4  A    between atoms: C12_16  and  C13_17 
ROOT
HETATM    1  N1  UNL     1      23.834   1.004  53.280  1.00  0.00    -0.253 N 
HETATM    2  N2  UNL     1      24.857   0.055  53.213  1.00  0.00    -0.175 NA
HETATM    3  C4  UNL     1      25.989   0.601  53.367  1.00  0.00     0.067 A 
HETATM    4  C11 UNL     1      25.859   2.061  53.560  1.00  0.00     0.094 A 
HETATM    5  C12 UNL     1      24.378   2.311  53.416  1.00  0.00     0.150 A 
ENDROOT
BRANCH   1   6
HETATM    6  C3  UNL     1      22.472   0.491  53.224  1.00  0.00     0.097 A 
HETATM    7  S1  UNL     1      22.357  -0.857  54.320  1.00  0.00    -0.080 SA
HETATM    8  C2  UNL     1      20.552  -1.215  53.967  1.00  0.00     0.088 A 
HETATM    9  C1  UNL     1      20.289  -0.198  53.010  1.00  0.00     0.074 A 
HETATM   10  C19 UNL     1      21.300   0.651  52.660  1.00  0.00     0.075 A 
BRANCH   9  11
HETATM   11  O1  UNL     1      19.026  -0.025  52.402  1.00  0.00    -0.360 OA
HETATM   12  H1  UNL     1      18.606  -0.730  51.838  1.00  0.00     0.217 HD
ENDBRANCH   9  11
ENDBRANCH   1   6
BRANCH   5  13
HETATM   13  C13 UNL     1      24.208   3.218  52.271  1.00  0.00    -0.033 A 
HETATM   14  C14 UNL     1      24.731   2.776  51.051  1.00  0.00     0.011 A 
HETATM   15  C15 UNL     1      24.621   3.530  49.902  1.00  0.00     0.019 A 
HETATM   16  C16 UNL     1      23.987   4.768  49.880  1.00  0.00     0.011 A 
HETATM   17 BR1  UNL     1      23.818   5.837  48.313  1.00  0.00    -0.051 Br
HETATM   18  C17 UNL     1      23.466   5.209  51.091  1.00  0.00     0.019 A 
HETATM   19  C18 UNL     1      23.573   4.462  52.239  1.00  0.00     0.011 A 
ENDBRANCH   5  13
BRANCH   3  20
HETATM   20  C5  UNL     1      27.379   0.072  53.385  1.00  0.00    -0.010 A 
HETATM   21  C6  UNL     1      28.525   0.764  53.682  1.00  0.00     0.013 A 
HETATM   22  C7  UNL     1      29.752   0.130  53.653  1.00  0.00     0.001 A 
HETATM   23  C8  UNL     1      29.857  -1.208  53.328  1.00  0.00     0.000 A 
HETATM   24  C9  UNL     1      28.668  -1.895  53.027  1.00  0.00     0.001 A 
HETATM   25  C10 UNL     1      27.431  -1.242  53.060  1.00  0.00     0.013 A 
ENDBRANCH   3  20
TORSDOF 4
ENDMDL
MODEL 6
REMARK VINA RESULT:      -8.0      7.346     10.212
REMARK  4 active torsions:
REMARK  status: ('A' for Active; 'I' for Inactive)
REMARK    1  A    between atoms: O1_1  and  C1_2 
REMARK    2  A    between atoms: C3_5  and  N1_6 
REMARK    3  A    between atoms: C4_8  and  C5_9 
REMARK    4  A    between atoms: C12_16  and  C13_17 
ROOT
HETATM    1  N1  UNL     1      30.382   8.275  47.963  1.00  0.00    -0.253 N 
HETATM    2  N2  UNL     1      31.612   7.766  48.390  1.00  0.00    -0.175 NA
HETATM    3  C4  UNL     1      31.818   6.617  47.899  1.00  0.00     0.067 A 
HETATM    4  C11 UNL     1      30.691   6.188  47.044  1.00  0.00     0.094 A 
HETATM    5  C12 UNL     1      29.694   7.313  47.174  1.00  0.00     0.150 A 
ENDROOT
BRANCH   1   6
HETATM    6  C3  UNL     1      30.071   9.638  48.371  1.00  0.00     0.097 A 
HETATM    7  S1  UNL     1      31.404  10.658  47.910  1.00  0.00    -0.080 SA
HETATM    8  C2  UNL     1      30.654  12.239  48.580  1.00  0.00     0.088 A 
HETATM    9  C1  UNL     1      29.430  11.727  49.087  1.00  0.00     0.074 A 
HETATM   10  C19 UNL     1      29.174  10.392  48.959  1.00  0.00     0.075 A 
BRANCH   9  11
HETATM   11  O1  UNL     1      28.463  12.538  49.721  1.00  0.00    -0.360 OA
HETATM   12  H1  UNL     1      27.797  12.169  50.361  1.00  0.00     0.217 HD
ENDBRANCH   9  11
ENDBRANCH   1   6
BRANCH   5  13
HETATM   13  C13 UNL     1      28.473   6.736  47.756  1.00  0.00    -0.033 A 
HETATM   14  C14 UNL     1      28.581   5.428  48.242  1.00  0.00     0.011 A 
HETATM   15  C15 UNL     1      27.510   4.783  48.825  1.00  0.00     0.019 A 
HETATM   16  C16 UNL     1      26.264   5.385  48.967  1.00  0.00     0.011 A 
HETATM   17 BR1  UNL     1      24.764   4.526  49.764  1.00  0.00    -0.051 Br
HETATM   18  C17 UNL     1      26.155   6.685  48.484  1.00  0.00     0.019 A 
HETATM   19  C18 UNL     1      27.219   7.332  47.903  1.00  0.00     0.011 A 
ENDBRANCH   5  13
BRANCH   3  20
HETATM   20  C5  UNL     1      32.938   5.646  48.019  1.00  0.00    -0.010 A 
HETATM   21  C6  UNL     1      34.187   5.881  48.536  1.00  0.00     0.013 A 
HETATM   22  C7  UNL     1      35.128   4.871  48.577  1.00  0.00     0.001 A 
HETATM   23  C8  UNL     1      34.840   3.607  48.104  1.00  0.00     0.000 A 
HETATM   24  C9  UNL     1      33.553   3.391  47.578  1.00  0.00     0.001 A 
HETATM   25  C10 UNL     1      32.608   4.422  47.542  1.00  0.00     0.013 A 
ENDBRANCH   3  20
TORSDOF 4
ENDMDL
MODEL 7
REMARK VINA RESULT:      -7.8      2.106      2.713
REMARK  4 active torsions:
REMARK  status: ('A' for Active; 'I' for Inactive)
REMARK    1  A    between atoms: O1_1  and  C1_2 
REMARK    2  A    between atoms: C3_5  and  N1_6 
REMARK    3  A    between atoms: C4_8  and  C5_9 
REMARK    4  A    between atoms: C12_16  and  C13_17 
ROOT
HETATM    1  N1  UNL     1      24.147   1.544  52.171  1.00  0.00    -0.253 N 
HETATM    2  N2  UNL     1      24.283   1.959  50.844  1.00  0.00    -0.175 NA
HETATM    3  C4  UNL     1      23.327   2.719  50.509  1.00  0.00     0.067 A 
HETATM    4  C11 UNL     1      22.379   2.913  51.627  1.00  0.00     0.094 A 
HETATM    5  C12 UNL     1      22.930   2.033  52.721  1.00  0.00     0.150 A 
ENDROOT
BRANCH   1   6
HETATM    6  C3  UNL     1      25.239   0.749  52.715  1.00  0.00     0.097 A 
HETATM    7  S1  UNL     1      26.155   1.757  53.798  1.00  0.00    -0.080 SA
HETATM    8  C2  UNL     1      27.402   0.435  54.256  1.00  0.00     0.088 A 
HETATM    9  C1  UNL     1      26.909  -0.640  53.469  1.00  0.00     0.074 A 
HETATM   10  C19 UNL     1      25.802  -0.434  52.696  1.00  0.00     0.075 A 
BRANCH   9  11
HETATM   11  O1  UNL     1      27.515  -1.916  53.448  1.00  0.00    -0.360 OA
HETATM   12  H1  UNL     1      27.042  -2.723  53.111  1.00  0.00     0.217 HD
ENDBRANCH   9  11
ENDBRANCH   1   6
BRANCH   5  13
HETATM   13  C13 UNL     1      21.895   1.032  53.024  1.00  0.00    -0.033 A 
HETATM   14  C14 UNL     1      20.720   1.112  52.269  1.00  0.00     0.011 A 
HETATM   15  C15 UNL     1      19.683   0.220  52.449  1.00  0.00     0.019 A 
HETATM   16  C16 UNL     1      19.738  -0.808  53.385  1.00  0.00     0.011 A 
HETATM   17 BR1  UNL     1      18.326  -2.055  53.663  1.00  0.00    -0.051 Br
HETATM   18  C17 UNL     1      20.905  -0.889  54.137  1.00  0.00     0.019 A 
HETATM   19  C18 UNL     1      21.941  -0.003  53.961  1.00  0.00     0.011 A 
ENDBRANCH   5  13
BRANCH   3  20
HETATM   20  C5  UNL     1      22.985   3.427  49.246  1.00  0.00    -0.010 A 
HETATM   21  C6  UNL     1      23.253   4.734  48.930  1.00  0.00     0.013 A 
HETATM   22  C7  UNL     1      22.866   5.251  47.709  1.00  0.00     0.001 A 
HETATM   23  C8  UNL     1      22.206   4.472  46.780  1.00  0.00     0.000 A 
HETATM   24  C9  UNL     1      21.942   3.135  47.128  1.00  0.00     0.001 A 
HETATM   25  C10 UNL     1      22.339   2.623  48.368  1.00  0.00     0.013 A 
ENDBRANCH   3  20
TORSDOF 4
ENDMDL
MODEL 8
REMARK VINA RESULT:      -7.6      6.437      9.578
REMARK  4 active torsions:
REMARK  status: ('A' for Active; 'I' for Inactive)
REMARK    1  A    between atoms: O1_1  and  C1_2 
REMARK    2  A    between atoms: C3_5  and  N1_6 
REMARK    3  A    between atoms: C4_8  and  C5_9 
REMARK    4  A    between atoms: C12_16  and  C13_17 
ROOT
HETATM    1  N1  UNL     1      30.334   5.948  47.958  1.00  0.00    -0.253 N 
HETATM    2  N2  UNL     1      29.398   5.146  48.616  1.00  0.00    -0.175 NA
HETATM    3  C4  UNL     1      28.220   5.556  48.397  1.00  0.00     0.067 A 
HETATM    4  C11 UNL     1      28.221   6.750  47.525  1.00  0.00     0.094 A 
HETATM    5  C12 UNL     1      29.686   7.034  47.309  1.00  0.00     0.150 A 
ENDROOT
BRANCH   1   6
HETATM    6  C3  UNL     1      31.723   5.519  48.042  1.00  0.00     0.097 A 
HETATM    7  S1  UNL     1      31.902   4.073  47.091  1.00  0.00    -0.080 SA
HETATM    8  C2  UNL     1      33.728   3.855  47.446  1.00  0.00     0.088 A 
HETATM    9  C1  UNL     1      33.945   4.979  48.286  1.00  0.00     0.074 A 
HETATM   10  C19 UNL     1      32.891   5.802  48.564  1.00  0.00     0.075 A 
BRANCH   9  11
HETATM   11  O1  UNL     1      35.203   5.285  48.850  1.00  0.00    -0.360 OA
HETATM   12  H1  UNL     1      35.630   6.177  48.746  1.00  0.00     0.217 HD
ENDBRANCH   9  11
ENDBRANCH   1   6
BRANCH   5  13
HETATM   13  C13 UNL     1      29.945   8.376  47.854  1.00  0.00    -0.033 A 
HETATM   14  C14 UNL     1      29.684   9.450  46.996  1.00  0.00     0.011 A 
HETATM   15  C15 UNL     1      29.872  10.757  47.396  1.00  0.00     0.019 A 
HETATM   16  C16 UNL     1      30.329  11.089  48.668  1.00  0.00     0.011 A 
HETATM   17 BR1  UNL     1      30.602  12.879  49.255  1.00  0.00    -0.051 Br
HETATM   18  C17 UNL     1      30.588  10.022  49.522  1.00  0.00     0.019 A 
HETATM   19  C18 UNL     1      30.402   8.719  49.128  1.00  0.00     0.011 A 
ENDBRANCH   5  13
BRANCH   3  20
HETATM   20  C5  UNL     1      26.880   5.085  48.840  1.00  0.00    -0.010 A 
HETATM   21  C6  UNL     1      25.697   5.775  48.779  1.00  0.00     0.013 A 
HETATM   22  C7  UNL     1      24.527   5.200  49.236  1.00  0.00     0.001 A 
HETATM   23  C8  UNL     1      24.517   3.923  49.761  1.00  0.00     0.000 A 
HETATM   24  C9  UNL     1      25.743   3.236  49.813  1.00  0.00     0.001 A 
HETATM   25  C10 UNL     1      26.921   3.830  49.347  1.00  0.00     0.013 A 
ENDBRANCH   3  20
TORSDOF 4
ENDMDL
MODEL 9
REMARK VINA RESULT:      -7.4      4.689      7.228
REMARK  4 active torsions:
REMARK  status: ('A' for Active; 'I' for Inactive)
REMARK    1  A    between atoms: O1_1  and  C1_2 
REMARK    2  A    between atoms: C3_5  and  N1_6 
REMARK    3  A    between atoms: C4_8  and  C5_9 
REMARK    4  A    between atoms: C12_16  and  C13_17 
ROOT
HETATM    1  N1  UNL     1      21.150   1.024  51.774  1.00  0.00    -0.253 N 
HETATM    2  N2  UNL     1      22.163   0.216  52.299  1.00  0.00    -0.175 NA
HETATM    3  C4  UNL     1      23.254   0.854  52.371  1.00  0.00     0.067 A 
HETATM    4  C11 UNL     1      23.103   2.237  51.873  1.00  0.00     0.094 A 
HETATM    5  C12 UNL     1      21.671   2.293  51.401  1.00  0.00     0.150 A 
ENDROOT
BRANCH   1   6
HETATM    6  C3  UNL     1      19.815   0.443  51.737  1.00  0.00     0.097 A 
HETATM    7  S1  UNL     1      19.559  -0.419  53.227  1.00  0.00    -0.080 SA
HETATM    8  C2  UNL     1      17.826  -0.991  52.802  1.00  0.00     0.088 A 
HETATM    9  C1  UNL     1      17.691  -0.410  51.513  1.00  0.00     0.074 A 
HETATM   10  C19 UNL     1      18.733   0.314  51.008  1.00  0.00     0.075 A 
BRANCH   9  11
HETATM   11  O1  UNL     1      16.526  -0.548  50.727  1.00  0.00    -0.360 OA
HETATM   12  H1  UNL     1      15.737  -1.069  51.034  1.00  0.00     0.217 HD
ENDBRANCH   9  11
ENDBRANCH   1   6
BRANCH   5  13
HETATM   13  C13 UNL     1      21.708   2.592  49.962  1.00  0.00    -0.033 A 
HETATM   14  C14 UNL     1      20.949   3.690  49.540  1.00  0.00     0.011 A 
HETATM   15  C15 UNL     1      20.916   4.080  48.217  1.00  0.00     0.019 A 
HETATM   16  C16 UNL     1      21.628   3.414  47.225  1.00  0.00     0.011 A 
HETATM   17 BR1  UNL     1      21.604   3.922  45.390  1.00  0.00    -0.051 Br
HETATM   18  C17 UNL     1      22.383   2.323  47.642  1.00  0.00     0.019 A 
HETATM   19  C18 UNL     1      22.420   1.930  48.958  1.00  0.00     0.011 A 
ENDBRANCH   5  13
BRANCH   3  20
HETATM   20  C5  UNL     1      24.617   0.487  52.842  1.00  0.00    -0.010 A 
HETATM   21  C6  UNL     1      24.944  -0.171  54.000  1.00  0.00     0.013 A 
HETATM   22  C7  UNL     1      26.265  -0.440  54.302  1.00  0.00     0.001 A 
HETATM   23  C8  UNL     1      27.284  -0.057  53.453  1.00  0.00     0.000 A 
HETATM   24  C9  UNL     1      26.923   0.617  52.273  1.00  0.00     0.001 A 
HETATM   25  C10 UNL     1      25.581   0.883  51.978  1.00  0.00     0.013 A 
ENDBRANCH   3  20
TORSDOF 4
ENDMDL
