MODEL 1
REMARK VINA RESULT:      -7.9      0.000      0.000
REMARK  9 active torsions:
REMARK  status: ('A' for Active; 'I' for Inactive)
REMARK    1  A    between atoms: N1_2  and  C2_3 
REMARK    2  A    between atoms: C2_3  and  C12_16 
REMARK    3  A    between atoms: C3_4  and  C5_6 
REMARK    4  A    between atoms: C5_6  and  C6_7 
REMARK       I    between atoms: C6_7  and  N2_9 
REMARK    5  A    between atoms: N2_9  and  C7_10 
REMARK    6  A    between atoms: C7_10  and  C8_11 
REMARK    7  A    between atoms: C8_11  and  C9_12 
REMARK    8  A    between atoms: C9_12  and  C11_14 
REMARK    9  A    between atoms: C11_14  and  O2_15 
ROOT
HETATM    1  C2  UNL     1      22.407   2.512  51.624  1.00  0.00     0.025 C 
HETATM    2  C3  UNL     1      23.699   2.723  51.801  1.00  0.00    -0.052 C 
HETATM    3  C4  UNL     1      24.464   2.686  50.523  1.00  0.00     0.046 C 
ENDROOT
BRANCH   1   4
HETATM    4  N1  UNL     1      21.922   2.285  50.308  1.00  0.00    -0.396 N 
HETATM    5  C1  UNL     1      21.693   1.075  49.562  1.00  0.00     0.146 C 
HETATM    6  H4  UNL     1      21.718   3.197  49.865  1.00  0.00     0.158 HD
ENDBRANCH   1   4
BRANCH   1   7
HETATM    7  C12 UNL     1      21.306   2.460  52.613  1.00  0.00     0.163 A 
HETATM    8  C13 UNL     1      20.024   2.814  51.952  1.00  0.00     0.236 A 
HETATM    9  O3  UNL     1      19.915   3.947  51.415  1.00  0.00    -0.272 OA
HETATM   10  N3  UNL     1      19.138   1.710  52.085  1.00  0.00    -0.325 N 
HETATM   11  C14 UNL     1      19.765   0.639  52.798  1.00  0.00     0.048 A 
HETATM   12  H23 UNL     1      18.163   1.728  51.693  1.00  0.00     0.169 HD
HETATM   13  C15 UNL     1      19.350  -0.617  53.182  1.00  0.00    -0.032 A 
HETATM   14  C20 UNL     1      21.042   1.078  53.109  1.00  0.00    -0.009 A 
HETATM   15  C16 UNL     1      17.984  -1.085  52.847  1.00  0.00     0.050 C 
HETATM   16  C17 UNL     1      20.219  -1.430  53.878  1.00  0.00     0.051 A 
HETATM   17  C18 UNL     1      21.510  -1.038  54.216  1.00  0.00     0.117 A 
HETATM   18  F1  UNL     1      22.348  -1.858  54.905  1.00  0.00    -0.206 F 
HETATM   19  C19 UNL     1      21.883   0.239  53.808  1.00  0.00     0.052 A 
ENDBRANCH   1   7
BRANCH   2  20
HETATM   20  C5  UNL     1      24.365   2.983  53.102  1.00  0.00     0.138 C 
BRANCH  20  21
HETATM   21  C6  UNL     1      25.300   1.888  53.456  1.00  0.00     0.221 C 
HETATM   22  O1  UNL     1      26.189   2.352  54.202  1.00  0.00    -0.273 OA
HETATM   23  N2  UNL     1      25.275   0.542  53.071  1.00  0.00    -0.361 N 
HETATM   24  H10 UNL     1      24.419   0.443  52.460  1.00  0.00     0.162 HD
BRANCH  23  25
HETATM   25  C7  UNL     1      26.099  -0.593  53.322  1.00  0.00     0.123 C 
BRANCH  25  26
HETATM   26  C8  UNL     1      27.491  -0.581  52.849  1.00  0.00     0.026 C 
BRANCH  26  27
HETATM   27  C9  UNL     1      28.618  -0.652  53.791  1.00  0.00     0.007 C 
HETATM   28  C10 UNL     1      29.730  -1.568  53.400  1.00  0.00     0.012 C 
BRANCH  27  29
HETATM   29  C11 UNL     1      29.263   0.766  53.746  1.00  0.00     0.168 C 
BRANCH  29  30
HETATM   30  O2  UNL     1      28.798   1.404  54.897  1.00  0.00    -0.400 OA
HETATM   31  H21 UNL     1      27.895   1.784  54.771  1.00  0.00     0.209 HD
ENDBRANCH  29  30
ENDBRANCH  27  29
ENDBRANCH  26  27
ENDBRANCH  25  26
ENDBRANCH  23  25
ENDBRANCH  20  21
ENDBRANCH   2  20
TORSDOF 9
ENDMDL
MODEL 2
REMARK VINA RESULT:      -7.3      1.843      2.342
REMARK  9 active torsions:
REMARK  status: ('A' for Active; 'I' for Inactive)
REMARK    1  A    between atoms: N1_2  and  C2_3 
REMARK    2  A    between atoms: C2_3  and  C12_16 
REMARK    3  A    between atoms: C3_4  and  C5_6 
REMARK    4  A    between atoms: C5_6  and  C6_7 
REMARK       I    between atoms: C6_7  and  N2_9 
REMARK    5  A    between atoms: N2_9  and  C7_10 
REMARK    6  A    between atoms: C7_10  and  C8_11 
REMARK    7  A    between atoms: C8_11  and  C9_12 
REMARK    8  A    between atoms: C9_12  and  C11_14 
REMARK    9  A    between atoms: C11_14  and  O2_15 
ROOT
HETATM    1  C2  UNL     1      22.599   2.923  50.681  1.00  0.00     0.025 C 
HETATM    2  C3  UNL     1      23.610   3.504  50.058  1.00  0.00    -0.052 C 
HETATM    3  C4  UNL     1      23.499   3.405  48.575  1.00  0.00     0.046 C 
ENDROOT
BRANCH   1   4
HETATM    4  N1  UNL     1      21.579   2.305  49.907  1.00  0.00    -0.396 N 
HETATM    5  C1  UNL     1      21.467   0.986  49.341  1.00  0.00     0.146 C 
HETATM    6  H4  UNL     1      20.812   2.983  49.763  1.00  0.00     0.158 HD
ENDBRANCH   1   4
BRANCH   1   7
HETATM    7  C12 UNL     1      22.323   2.787  52.129  1.00  0.00     0.163 A 
HETATM    8  C13 UNL     1      20.863   2.901  52.373  1.00  0.00     0.236 A 
HETATM    9  O3  UNL     1      20.276   3.961  52.037  1.00  0.00    -0.272 OA
HETATM   10  N3  UNL     1      20.420   1.693  52.978  1.00  0.00    -0.325 N 
HETATM   11  C14 UNL     1      21.511   0.781  53.149  1.00  0.00     0.048 A 
HETATM   12  H23 UNL     1      19.416   1.540  53.247  1.00  0.00     0.169 HD
HETATM   13  C15 UNL     1      21.613  -0.488  53.672  1.00  0.00    -0.032 A 
HETATM   14  C20 UNL     1      22.632   1.424  52.649  1.00  0.00    -0.009 A 
HETATM   15  C16 UNL     1      20.412  -1.173  54.206  1.00  0.00     0.050 C 
HETATM   16  C17 UNL     1      22.843  -1.112  53.692  1.00  0.00     0.051 A 
HETATM   17  C18 UNL     1      23.999  -0.512  53.203  1.00  0.00     0.117 A 
HETATM   18  F1  UNL     1      25.200  -1.148  53.234  1.00  0.00    -0.206 F 
HETATM   19  C19 UNL     1      23.845   0.770  52.686  1.00  0.00     0.052 A 
ENDBRANCH   1   7
BRANCH   2  20
HETATM   20  C5  UNL     1      24.747   4.198  50.712  1.00  0.00     0.138 C 
BRANCH  20  21
HETATM   21  C6  UNL     1      25.906   3.289  50.882  1.00  0.00     0.221 C 
HETATM   22  O1  UNL     1      26.515   3.215  49.792  1.00  0.00    -0.273 OA
HETATM   23  N2  UNL     1      26.324   2.589  52.020  1.00  0.00    -0.361 N 
HETATM   24  H10 UNL     1      25.635   2.849  52.776  1.00  0.00     0.162 HD
BRANCH  23  25
HETATM   25  C7  UNL     1      27.390   1.690  52.315  1.00  0.00     0.123 C 
BRANCH  25  26
HETATM   26  C8  UNL     1      28.282   1.988  53.444  1.00  0.00     0.026 C 
BRANCH  26  27
HETATM   27  C9  UNL     1      28.533   0.997  54.501  1.00  0.00     0.007 C 
HETATM   28  C10 UNL     1      27.339   0.231  54.966  1.00  0.00     0.012 C 
BRANCH  27  29
HETATM   29  C11 UNL     1      29.435  -0.081  53.827  1.00  0.00     0.168 C 
BRANCH  29  30
HETATM   30  O2  UNL     1      28.664  -1.244  53.836  1.00  0.00    -0.400 OA
HETATM   31  H21 UNL     1      28.221  -1.388  54.708  1.00  0.00     0.209 HD
ENDBRANCH  29  30
ENDBRANCH  27  29
ENDBRANCH  26  27
ENDBRANCH  25  26
ENDBRANCH  23  25
ENDBRANCH  20  21
ENDBRANCH   2  20
TORSDOF 9
ENDMDL
MODEL 3
REMARK VINA RESULT:      -7.3      3.372      5.783
REMARK  9 active torsions:
REMARK  status: ('A' for Active; 'I' for Inactive)
REMARK    1  A    between atoms: N1_2  and  C2_3 
REMARK    2  A    between atoms: C2_3  and  C12_16 
REMARK    3  A    between atoms: C3_4  and  C5_6 
REMARK    4  A    between atoms: C5_6  and  C6_7 
REMARK       I    between atoms: C6_7  and  N2_9 
REMARK    5  A    between atoms: N2_9  and  C7_10 
REMARK    6  A    between atoms: C7_10  and  C8_11 
REMARK    7  A    between atoms: C8_11  and  C9_12 
REMARK    8  A    between atoms: C9_12  and  C11_14 
REMARK    9  A    between atoms: C11_14  and  O2_15 
ROOT
HETATM    1  C2  UNL     1      23.580   2.579  50.693  1.00  0.00     0.025 C 
HETATM    2  C3  UNL     1      22.820   1.651  51.246  1.00  0.00    -0.052 C 
HETATM    3  C4  UNL     1      21.991   0.920  50.246  1.00  0.00     0.046 C 
ENDROOT
BRANCH   1   4
HETATM    4  N1  UNL     1      23.523   2.765  49.285  1.00  0.00    -0.396 N 
HETATM    5  C1  UNL     1      22.615   3.506  48.449  1.00  0.00     0.146 C 
HETATM    6  H4  UNL     1      24.302   2.245  48.847  1.00  0.00     0.158 HD
ENDBRANCH   1   4
BRANCH   1   7
HETATM    7  C12 UNL     1      24.536   3.523  51.315  1.00  0.00     0.163 A 
HETATM    8  C13 UNL     1      25.893   3.306  50.751  1.00  0.00     0.236 A 
HETATM    9  O3  UNL     1      26.428   2.176  50.888  1.00  0.00    -0.272 OA
HETATM   10  N3  UNL     1      26.314   4.516  50.135  1.00  0.00    -0.325 N 
HETATM   11  C14 UNL     1      25.308   5.527  50.260  1.00  0.00     0.048 A 
HETATM   12  H23 UNL     1      27.250   4.605  49.665  1.00  0.00     0.169 HD
HETATM   13  C15 UNL     1      25.226   6.838  49.848  1.00  0.00    -0.032 A 
HETATM   14  C20 UNL     1      24.260   4.944  50.954  1.00  0.00    -0.009 A 
HETATM   15  C16 UNL     1      26.347   7.459  49.106  1.00  0.00     0.050 C 
HETATM   16  C17 UNL     1      24.088   7.563  50.134  1.00  0.00     0.051 A 
HETATM   17  C18 UNL     1      23.007   7.026  50.827  1.00  0.00     0.117 A 
HETATM   18  F1  UNL     1      21.896   7.762  51.096  1.00  0.00    -0.206 F 
HETATM   19  C19 UNL     1      23.138   5.699  51.222  1.00  0.00     0.052 A 
ENDBRANCH   1   7
BRANCH   2  20
HETATM   20  C5  UNL     1      22.766   1.324  52.693  1.00  0.00     0.138 C 
BRANCH  20  21
HETATM   21  C6  UNL     1      23.756   0.280  53.046  1.00  0.00     0.221 C 
HETATM   22  O1  UNL     1      23.141  -0.764  53.355  1.00  0.00    -0.273 OA
HETATM   23  N2  UNL     1      25.155   0.354  53.062  1.00  0.00    -0.361 N 
HETATM   24  H10 UNL     1      25.385   1.336  52.751  1.00  0.00     0.162 HD
BRANCH  23  25
HETATM   25  C7  UNL     1      26.208  -0.550  53.386  1.00  0.00     0.123 C 
BRANCH  25  26
HETATM   26  C8  UNL     1      27.589  -0.191  53.035  1.00  0.00     0.026 C 
BRANCH  26  27
HETATM   27  C9  UNL     1      28.665  -0.221  54.038  1.00  0.00     0.007 C 
HETATM   28  C10 UNL     1      29.902  -0.952  53.636  1.00  0.00     0.012 C 
BRANCH  27  29
HETATM   29  C11 UNL     1      29.126   1.262  54.167  1.00  0.00     0.168 C 
BRANCH  29  30
HETATM   30  O2  UNL     1      28.847   1.829  52.923  1.00  0.00    -0.400 OA
HETATM   31  H21 UNL     1      29.408   1.446  52.206  1.00  0.00     0.209 HD
ENDBRANCH  29  30
ENDBRANCH  27  29
ENDBRANCH  26  27
ENDBRANCH  25  26
ENDBRANCH  23  25
ENDBRANCH  20  21
ENDBRANCH   2  20
TORSDOF 9
ENDMDL
MODEL 4
REMARK VINA RESULT:      -7.1      2.599      6.936
REMARK  9 active torsions:
REMARK  status: ('A' for Active; 'I' for Inactive)
REMARK    1  A    between atoms: N1_2  and  C2_3 
REMARK    2  A    between atoms: C2_3  and  C12_16 
REMARK    3  A    between atoms: C3_4  and  C5_6 
REMARK    4  A    between atoms: C5_6  and  C6_7 
REMARK       I    between atoms: C6_7  and  N2_9 
REMARK    5  A    between atoms: N2_9  and  C7_10 
REMARK    6  A    between atoms: C7_10  and  C8_11 
REMARK    7  A    between atoms: C8_11  and  C9_12 
REMARK    8  A    between atoms: C9_12  and  C11_14 
REMARK    9  A    between atoms: C11_14  and  O2_15 
ROOT
HETATM    1  C2  UNL     1      23.762   0.356  53.361  1.00  0.00     0.025 C 
HETATM    2  C3  UNL     1      22.540   0.105  52.924  1.00  0.00    -0.052 C 
HETATM    3  C4  UNL     1      21.679  -0.522  53.966  1.00  0.00     0.046 C 
ENDROOT
BRANCH   1   4
HETATM    4  N1  UNL     1      24.096   0.017  54.700  1.00  0.00    -0.396 N 
HETATM    5  C1  UNL     1      24.289  -1.252  55.352  1.00  0.00     0.146 C 
HETATM    6  H4  UNL     1      24.203   0.887  55.248  1.00  0.00     0.158 HD
ENDBRANCH   1   4
BRANCH   1   7
HETATM    7  C12 UNL     1      24.919   0.958  52.661  1.00  0.00     0.163 A 
HETATM    8  C13 UNL     1      25.212   2.295  53.237  1.00  0.00     0.236 A 
HETATM    9  O3  UNL     1      24.318   3.179  53.192  1.00  0.00    -0.272 OA
HETATM   10  N3  UNL     1      26.538   2.275  53.750  1.00  0.00    -0.325 N 
HETATM   11  C14 UNL     1      27.142   0.993  53.546  1.00  0.00     0.048 A 
HETATM   12  H23 UNL     1      26.970   3.116  54.209  1.00  0.00     0.169 HD
HETATM   13  C15 UNL     1      28.378   0.469  53.849  1.00  0.00    -0.032 A 
HETATM   14  C20 UNL     1      26.190   0.216  52.905  1.00  0.00    -0.009 A 
HETATM   15  C16 UNL     1      29.394   1.301  54.535  1.00  0.00     0.050 C 
HETATM   16  C17 UNL     1      28.657  -0.838  53.508  1.00  0.00     0.051 A 
HETATM   17  C18 UNL     1      27.738  -1.661  52.865  1.00  0.00     0.117 A 
HETATM   18  F1  UNL     1      28.038  -2.947  52.538  1.00  0.00    -0.206 F 
HETATM   19  C19 UNL     1      26.505  -1.086  52.579  1.00  0.00     0.052 A 
ENDBRANCH   1   7
BRANCH   2  20
HETATM   20  C5  UNL     1      22.029   0.402  51.563  1.00  0.00     0.138 C 
BRANCH  20  21
HETATM   21  C6  UNL     1      21.289   1.686  51.535  1.00  0.00     0.221 C 
HETATM   22  O1  UNL     1      20.091   1.448  51.265  1.00  0.00    -0.273 OA
HETATM   23  N2  UNL     1      21.760   2.986  51.757  1.00  0.00    -0.361 N 
HETATM   24  H10 UNL     1      22.789   2.877  51.969  1.00  0.00     0.162 HD
BRANCH  23  25
HETATM   25  C7  UNL     1      21.174   4.285  51.750  1.00  0.00     0.123 C 
BRANCH  25  26
HETATM   26  C8  UNL     1      22.047   5.462  51.867  1.00  0.00     0.026 C 
BRANCH  26  27
HETATM   27  C9  UNL     1      22.708   6.044  50.690  1.00  0.00     0.007 C 
HETATM   28  C10 UNL     1      22.433   7.490  50.443  1.00  0.00     0.012 C 
BRANCH  27  29
HETATM   29  C11 UNL     1      24.229   6.000  51.027  1.00  0.00     0.168 C 
BRANCH  29  30
HETATM   30  O2  UNL     1      24.375   6.859  52.117  1.00  0.00    -0.400 OA
HETATM   31  H21 UNL     1      23.628   7.502  52.185  1.00  0.00     0.209 HD
ENDBRANCH  29  30
ENDBRANCH  27  29
ENDBRANCH  26  27
ENDBRANCH  25  26
ENDBRANCH  23  25
ENDBRANCH  20  21
ENDBRANCH   2  20
TORSDOF 9
ENDMDL
MODEL 5
REMARK VINA RESULT:      -7.0      3.818      5.279
REMARK  9 active torsions:
REMARK  status: ('A' for Active; 'I' for Inactive)
REMARK    1  A    between atoms: N1_2  and  C2_3 
REMARK    2  A    between atoms: C2_3  and  C12_16 
REMARK    3  A    between atoms: C3_4  and  C5_6 
REMARK    4  A    between atoms: C5_6  and  C6_7 
REMARK       I    between atoms: C6_7  and  N2_9 
REMARK    5  A    between atoms: N2_9  and  C7_10 
REMARK    6  A    between atoms: C7_10  and  C8_11 
REMARK    7  A    between atoms: C8_11  and  C9_12 
REMARK    8  A    between atoms: C9_12  and  C11_14 
REMARK    9  A    between atoms: C11_14  and  O2_15 
ROOT
HETATM    1  C2  UNL     1      22.306   3.091  50.879  1.00  0.00     0.025 C 
HETATM    2  C3  UNL     1      23.174   3.880  50.271  1.00  0.00    -0.052 C 
HETATM    3  C4  UNL     1      23.064   3.812  48.786  1.00  0.00     0.046 C 
ENDROOT
BRANCH   1   4
HETATM    4  N1  UNL     1      21.417   2.311  50.092  1.00  0.00    -0.396 N 
HETATM    5  C1  UNL     1      21.525   0.981  49.552  1.00  0.00     0.146 C 
HETATM    6  H4  UNL     1      20.560   2.860  49.912  1.00  0.00     0.158 HD
ENDBRANCH   1   4
BRANCH   1   7
HETATM    7  C12 UNL     1      22.083   2.855  52.324  1.00  0.00     0.163 A 
HETATM    8  C13 UNL     1      20.640   2.608  52.574  1.00  0.00     0.236 A 
HETATM    9  O3  UNL     1      19.813   3.505  52.268  1.00  0.00    -0.272 OA
HETATM   10  N3  UNL     1      20.506   1.313  53.146  1.00  0.00    -0.325 N 
HETATM   11  C14 UNL     1      21.785   0.686  53.290  1.00  0.00     0.048 A 
HETATM   12  H23 UNL     1      19.570   0.916  53.412  1.00  0.00     0.169 HD
HETATM   13  C15 UNL     1      22.193  -0.535  53.778  1.00  0.00    -0.032 A 
HETATM   14  C20 UNL     1      22.715   1.592  52.805  1.00  0.00    -0.009 A 
HETATM   15  C16 UNL     1      21.197  -1.502  54.294  1.00  0.00     0.050 C 
HETATM   16  C17 UNL     1      23.537  -0.845  53.778  1.00  0.00     0.051 A 
HETATM   17  C18 UNL     1      24.511   0.027  53.303  1.00  0.00     0.117 A 
HETATM   18  F1  UNL     1      25.830  -0.302  53.315  1.00  0.00    -0.206 F 
HETATM   19  C19 UNL     1      24.050   1.248  52.822  1.00  0.00     0.052 A 
ENDBRANCH   1   7
BRANCH   2  20
HETATM   20  C5  UNL     1      24.162   4.762  50.941  1.00  0.00     0.138 C 
BRANCH  20  21
HETATM   21  C6  UNL     1      25.419   4.852  50.160  1.00  0.00     0.221 C 
HETATM   22  O1  UNL     1      26.043   3.776  50.289  1.00  0.00    -0.273 OA
HETATM   23  N2  UNL     1      25.908   5.912  49.386  1.00  0.00    -0.361 N 
HETATM   24  H10 UNL     1      25.175   6.668  49.456  1.00  0.00     0.162 HD
BRANCH  23  25
HETATM   25  C7  UNL     1      27.082   6.134  48.610  1.00  0.00     0.123 C 
BRANCH  25  26
HETATM   26  C8  UNL     1      27.452   7.511  48.255  1.00  0.00     0.026 C 
BRANCH  26  27
HETATM   27  C9  UNL     1      28.198   8.367  49.190  1.00  0.00     0.007 C 
HETATM   28  C10 UNL     1      29.069   9.403  48.562  1.00  0.00     0.012 C 
BRANCH  27  29
HETATM   29  C11 UNL     1      27.103   9.191  49.931  1.00  0.00     0.168 C 
BRANCH  29  30
HETATM   30  O2  UNL     1      27.669   9.501  51.168  1.00  0.00    -0.400 OA
HETATM   31  H21 UNL     1      26.983   9.719  51.846  1.00  0.00     0.209 HD
ENDBRANCH  29  30
ENDBRANCH  27  29
ENDBRANCH  26  27
ENDBRANCH  25  26
ENDBRANCH  23  25
ENDBRANCH  20  21
ENDBRANCH   2  20
TORSDOF 9
ENDMDL
MODEL 6
REMARK VINA RESULT:      -6.7      3.367      5.891
REMARK  9 active torsions:
REMARK  status: ('A' for Active; 'I' for Inactive)
REMARK    1  A    between atoms: N1_2  and  C2_3 
REMARK    2  A    between atoms: C2_3  and  C12_16 
REMARK    3  A    between atoms: C3_4  and  C5_6 
REMARK    4  A    between atoms: C5_6  and  C6_7 
REMARK       I    between atoms: C6_7  and  N2_9 
REMARK    5  A    between atoms: N2_9  and  C7_10 
REMARK    6  A    between atoms: C7_10  and  C8_11 
REMARK    7  A    between atoms: C8_11  and  C9_12 
REMARK    8  A    between atoms: C9_12  and  C11_14 
REMARK    9  A    between atoms: C11_14  and  O2_15 
ROOT
HETATM    1  C2  UNL     1      22.289   1.955  51.956  1.00  0.00     0.025 C 
HETATM    2  C3  UNL     1      21.971   3.197  51.637  1.00  0.00    -0.052 C 
HETATM    3  C4  UNL     1      21.161   3.276  50.388  1.00  0.00     0.046 C 
ENDROOT
BRANCH   1   4
HETATM    4  N1  UNL     1      21.849   0.896  51.118  1.00  0.00    -0.396 N 
HETATM    5  C1  UNL     1      20.537   0.502  50.675  1.00  0.00     0.146 C 
HETATM    6  H4  UNL     1      22.670   0.350  50.808  1.00  0.00     0.158 HD
ENDBRANCH   1   4
BRANCH   1   7
HETATM    7  C12 UNL     1      23.077   1.437  53.098  1.00  0.00     0.163 A 
HETATM    8  C13 UNL     1      22.657   0.046  53.405  1.00  0.00     0.236 A 
HETATM    9  O3  UNL     1      21.459  -0.165  53.725  1.00  0.00    -0.272 OA
HETATM   10  N3  UNL     1      23.790  -0.800  53.258  1.00  0.00    -0.325 N 
HETATM   11  C14 UNL     1      24.942  -0.045  52.869  1.00  0.00     0.048 A 
HETATM   12  H23 UNL     1      23.736  -1.836  53.426  1.00  0.00     0.169 HD
HETATM   13  C15 UNL     1      26.251  -0.380  52.604  1.00  0.00    -0.032 A 
HETATM   14  C20 UNL     1      24.524   1.273  52.773  1.00  0.00    -0.009 A 
HETATM   15  C16 UNL     1      26.695  -1.789  52.706  1.00  0.00     0.050 C 
HETATM   16  C17 UNL     1      27.139   0.611  52.242  1.00  0.00     0.051 A 
HETATM   17  C18 UNL     1      26.772   1.949  52.132  1.00  0.00     0.117 A 
HETATM   18  F1  UNL     1      27.667   2.907  51.774  1.00  0.00    -0.206 F 
HETATM   19  C19 UNL     1      25.440   2.237  52.410  1.00  0.00     0.052 A 
ENDBRANCH   1   7
BRANCH   2  20
HETATM   20  C5  UNL     1      22.342   4.412  52.404  1.00  0.00     0.138 C 
BRANCH  20  21
HETATM   21  C6  UNL     1      23.066   5.385  51.553  1.00  0.00     0.221 C 
HETATM   22  O1  UNL     1      22.262   6.272  51.192  1.00  0.00    -0.273 OA
HETATM   23  N2  UNL     1      24.412   5.394  51.165  1.00  0.00    -0.361 N 
HETATM   24  H10 UNL     1      24.839   4.543  51.622  1.00  0.00     0.162 HD
BRANCH  23  25
HETATM   25  C7  UNL     1      25.222   6.244  50.357  1.00  0.00     0.123 C 
BRANCH  25  26
HETATM   26  C8  UNL     1      26.040   5.647  49.292  1.00  0.00     0.026 C 
BRANCH  26  27
HETATM   27  C9  UNL     1      26.838   6.483  48.383  1.00  0.00     0.007 C 
HETATM   28  C10 UNL     1      27.224   7.825  48.910  1.00  0.00     0.012 C 
BRANCH  27  29
HETATM   29  C11 UNL     1      28.194   5.728  48.240  1.00  0.00     0.168 C 
BRANCH  29  30
HETATM   30  O2  UNL     1      28.247   4.882  49.348  1.00  0.00    -0.400 OA
HETATM   31  H21 UNL     1      27.363   4.779  49.779  1.00  0.00     0.209 HD
ENDBRANCH  29  30
ENDBRANCH  27  29
ENDBRANCH  26  27
ENDBRANCH  25  26
ENDBRANCH  23  25
ENDBRANCH  20  21
ENDBRANCH   2  20
TORSDOF 9
ENDMDL
MODEL 7
REMARK VINA RESULT:      -6.6      3.816      5.125
REMARK  9 active torsions:
REMARK  status: ('A' for Active; 'I' for Inactive)
REMARK    1  A    between atoms: N1_2  and  C2_3 
REMARK    2  A    between atoms: C2_3  and  C12_16 
REMARK    3  A    between atoms: C3_4  and  C5_6 
REMARK    4  A    between atoms: C5_6  and  C6_7 
REMARK       I    between atoms: C6_7  and  N2_9 
REMARK    5  A    between atoms: N2_9  and  C7_10 
REMARK    6  A    between atoms: C7_10  and  C8_11 
REMARK    7  A    between atoms: C8_11  and  C9_12 
REMARK    8  A    between atoms: C9_12  and  C11_14 
REMARK    9  A    between atoms: C11_14  and  O2_15 
ROOT
HETATM    1  C2  UNL     1      23.227   3.304  51.000  1.00  0.00     0.025 C 
HETATM    2  C3  UNL     1      23.860   4.352  50.502  1.00  0.00    -0.052 C 
HETATM    3  C4  UNL     1      24.208   4.179  49.064  1.00  0.00     0.046 C 
ENDROOT
BRANCH   1   4
HETATM    4  N1  UNL     1      22.965   2.194  50.152  1.00  0.00    -0.396 N 
HETATM    5  C1  UNL     1      21.852   1.880  49.295  1.00  0.00     0.146 C 
HETATM    6  H4  UNL     1      23.757   1.533  50.213  1.00  0.00     0.158 HD
ENDBRANCH   1   4
BRANCH   1   7
HETATM    7  C12 UNL     1      22.715   3.061  52.367  1.00  0.00     0.163 A 
HETATM    8  C13 UNL     1      21.232   2.972  52.338  1.00  0.00     0.236 A 
HETATM    9  O3  UNL     1      20.577   3.963  51.925  1.00  0.00    -0.272 OA
HETATM   10  N3  UNL     1      20.857   1.688  52.819  1.00  0.00    -0.325 N 
HETATM   11  C14 UNL     1      22.013   0.919  53.168  1.00  0.00     0.048 A 
HETATM   12  H23 UNL     1      19.851   1.393  52.892  1.00  0.00     0.169 HD
HETATM   13  C15 UNL     1      22.191  -0.352  53.669  1.00  0.00    -0.032 A 
HETATM   14  C20 UNL     1      23.108   1.725  52.901  1.00  0.00    -0.009 A 
HETATM   15  C16 UNL     1      21.018  -1.212  53.952  1.00  0.00     0.050 C 
HETATM   16  C17 UNL     1      23.470  -0.811  53.901  1.00  0.00     0.051 A 
HETATM   17  C18 UNL     1      24.603  -0.042  53.651  1.00  0.00     0.117 A 
HETATM   18  F1  UNL     1      25.854  -0.518  53.890  1.00  0.00    -0.206 F 
HETATM   19  C19 UNL     1      24.372   1.233  53.147  1.00  0.00     0.052 A 
ENDBRANCH   1   7
BRANCH   2  20
HETATM   20  C5  UNL     1      24.203   5.590  51.245  1.00  0.00     0.138 C 
BRANCH  20  21
HETATM   21  C6  UNL     1      24.851   6.587  50.359  1.00  0.00     0.221 C 
HETATM   22  O1  UNL     1      23.979   7.390  49.962  1.00  0.00    -0.273 OA
HETATM   23  N2  UNL     1      26.194   6.692  49.975  1.00  0.00    -0.361 N 
HETATM   24  H10 UNL     1      26.686   5.897  50.465  1.00  0.00     0.162 HD
BRANCH  23  25
HETATM   25  C7  UNL     1      26.935   7.574  49.137  1.00  0.00     0.123 C 
BRANCH  25  26
HETATM   26  C8  UNL     1      27.508   7.056  47.887  1.00  0.00     0.026 C 
BRANCH  26  27
HETATM   27  C9  UNL     1      28.963   6.928  47.708  1.00  0.00     0.007 C 
HETATM   28  C10 UNL     1      29.801   7.780  48.602  1.00  0.00     0.012 C 
BRANCH  27  29
HETATM   29  C11 UNL     1      29.290   5.472  48.157  1.00  0.00     0.168 C 
BRANCH  29  30
HETATM   30  O2  UNL     1      30.048   5.622  49.320  1.00  0.00    -0.400 OA
HETATM   31  H21 UNL     1      30.737   4.919  49.405  1.00  0.00     0.209 HD
ENDBRANCH  29  30
ENDBRANCH  27  29
ENDBRANCH  26  27
ENDBRANCH  25  26
ENDBRANCH  23  25
ENDBRANCH  20  21
ENDBRANCH   2  20
TORSDOF 9
ENDMDL
MODEL 8
REMARK VINA RESULT:      -6.5      2.781      7.653
REMARK  9 active torsions:
REMARK  status: ('A' for Active; 'I' for Inactive)
REMARK    1  A    between atoms: N1_2  and  C2_3 
REMARK    2  A    between atoms: C2_3  and  C12_16 
REMARK    3  A    between atoms: C3_4  and  C5_6 
REMARK    4  A    between atoms: C5_6  and  C6_7 
REMARK       I    between atoms: C6_7  and  N2_9 
REMARK    5  A    between atoms: N2_9  and  C7_10 
REMARK    6  A    between atoms: C7_10  and  C8_11 
REMARK    7  A    between atoms: C8_11  and  C9_12 
REMARK    8  A    between atoms: C9_12  and  C11_14 
REMARK    9  A    between atoms: C11_14  and  O2_15 
ROOT
HETATM    1  C2  UNL     1      23.678   2.933  51.107  1.00  0.00     0.025 C 
HETATM    2  C3  UNL     1      22.434   2.547  50.882  1.00  0.00    -0.052 C 
HETATM    3  C4  UNL     1      21.434   3.568  51.304  1.00  0.00     0.046 C 
ENDROOT
BRANCH   1   4
HETATM    4  N1  UNL     1      23.906   4.207  51.693  1.00  0.00    -0.396 N 
HETATM    5  C1  UNL     1      23.784   4.678  53.048  1.00  0.00     0.146 C 
HETATM    6  H4  UNL     1      24.211   4.864  50.956  1.00  0.00     0.158 HD
ENDBRANCH   1   4
BRANCH   1   7
HETATM    7  C12 UNL     1      24.955   2.230  50.847  1.00  0.00     0.163 A 
HETATM    8  C13 UNL     1      25.990   3.211  50.430  1.00  0.00     0.236 A 
HETATM    9  O3  UNL     1      25.788   3.896  49.395  1.00  0.00    -0.272 OA
HETATM   10  N3  UNL     1      27.057   3.151  51.367  1.00  0.00    -0.325 N 
HETATM   11  C14 UNL     1      26.787   2.182  52.385  1.00  0.00     0.048 A 
HETATM   12  H23 UNL     1      27.910   3.759  51.278  1.00  0.00     0.169 HD
HETATM   13  C15 UNL     1      27.482   1.751  53.493  1.00  0.00    -0.032 A 
HETATM   14  C20 UNL     1      25.549   1.639  52.081  1.00  0.00    -0.009 A 
HETATM   15  C16 UNL     1      28.805   2.334  53.816  1.00  0.00     0.050 C 
HETATM   16  C17 UNL     1      26.931   0.775  54.296  1.00  0.00     0.051 A 
HETATM   17  C18 UNL     1      25.692   0.197  54.036  1.00  0.00     0.117 A 
HETATM   18  F1  UNL     1      25.171  -0.766  54.842  1.00  0.00    -0.206 F 
HETATM   19  C19 UNL     1      25.029   0.664  52.906  1.00  0.00     0.052 A 
ENDBRANCH   1   7
BRANCH   2  20
HETATM   20  C5  UNL     1      22.023   1.258  50.273  1.00  0.00     0.138 C 
BRANCH  20  21
HETATM   21  C6  UNL     1      21.006   0.570  51.103  1.00  0.00     0.221 C 
HETATM   22  O1  UNL     1      21.572   0.091  52.109  1.00  0.00    -0.273 OA
HETATM   23  N2  UNL     1      19.630   0.428  50.882  1.00  0.00    -0.361 N 
HETATM   24  H10 UNL     1      19.440   0.935  49.975  1.00  0.00     0.162 HD
BRANCH  23  25
HETATM   25  C7  UNL     1      18.558  -0.204  51.576  1.00  0.00     0.123 C 
BRANCH  25  26
HETATM   26  C8  UNL     1      17.238  -0.278  50.934  1.00  0.00     0.026 C 
BRANCH  26  27
HETATM   27  C9  UNL     1      16.101  -0.933  51.599  1.00  0.00     0.007 C 
HETATM   28  C10 UNL     1      16.452  -1.865  52.710  1.00  0.00     0.012 C 
BRANCH  27  29
HETATM   29  C11 UNL     1      15.335   0.226  52.306  1.00  0.00     0.168 C 
BRANCH  29  30
HETATM   30  O2  UNL     1      15.127  -0.229  53.608  1.00  0.00    -0.400 OA
HETATM   31  H21 UNL     1      15.576  -1.093  53.775  1.00  0.00     0.209 HD
ENDBRANCH  29  30
ENDBRANCH  27  29
ENDBRANCH  26  27
ENDBRANCH  25  26
ENDBRANCH  23  25
ENDBRANCH  20  21
ENDBRANCH   2  20
TORSDOF 9
ENDMDL
MODEL 9
REMARK VINA RESULT:      -6.5      2.502      6.652
REMARK  9 active torsions:
REMARK  status: ('A' for Active; 'I' for Inactive)
REMARK    1  A    between atoms: N1_2  and  C2_3 
REMARK    2  A    between atoms: C2_3  and  C12_16 
REMARK    3  A    between atoms: C3_4  and  C5_6 
REMARK    4  A    between atoms: C5_6  and  C6_7 
REMARK       I    between atoms: C6_7  and  N2_9 
REMARK    5  A    between atoms: N2_9  and  C7_10 
REMARK    6  A    between atoms: C7_10  and  C8_11 
REMARK    7  A    between atoms: C8_11  and  C9_12 
REMARK    8  A    between atoms: C9_12  and  C11_14 
REMARK    9  A    between atoms: C11_14  and  O2_15 
ROOT
HETATM    1  C2  UNL     1      24.171   3.822  50.655  1.00  0.00     0.025 C 
HETATM    2  C3  UNL     1      23.286   4.321  49.810  1.00  0.00    -0.052 C 
HETATM    3  C4  UNL     1      22.756   5.643  50.251  1.00  0.00     0.046 C 
ENDROOT
BRANCH   1   4
HETATM    4  N1  UNL     1      24.497   4.561  51.824  1.00  0.00    -0.396 N 
HETATM    5  C1  UNL     1      23.855   4.663  53.108  1.00  0.00     0.146 C 
HETATM    6  H4  UNL     1      25.361   5.100  51.648  1.00  0.00     0.158 HD
ENDBRANCH   1   4
BRANCH   1   7
HETATM    7  C12 UNL     1      24.925   2.549  50.603  1.00  0.00     0.163 A 
HETATM    8  C13 UNL     1      26.354   2.802  50.918  1.00  0.00     0.236 A 
HETATM    9  O3  UNL     1      27.004   3.586  50.180  1.00  0.00    -0.272 OA
HETATM   10  N3  UNL     1      26.694   2.043  52.071  1.00  0.00    -0.325 N 
HETATM   11  C14 UNL     1      25.565   1.298  52.540  1.00  0.00     0.048 A 
HETATM   12  H23 UNL     1      27.660   2.060  52.483  1.00  0.00     0.169 HD
HETATM   13  C15 UNL     1      25.371   0.431  53.592  1.00  0.00    -0.032 A 
HETATM   14  C20 UNL     1      24.521   1.596  51.677  1.00  0.00    -0.009 A 
HETATM   15  C16 UNL     1      26.487   0.116  54.513  1.00  0.00     0.050 C 
HETATM   16  C17 UNL     1      24.128  -0.135  53.777  1.00  0.00     0.051 A 
HETATM   17  C18 UNL     1      23.047   0.129  52.941  1.00  0.00     0.117 A 
HETATM   18  F1  UNL     1      21.831  -0.444  53.144  1.00  0.00    -0.206 F 
HETATM   19  C19 UNL     1      23.293   1.010  51.892  1.00  0.00     0.052 A 
ENDBRANCH   1   7
BRANCH   2  20
HETATM   20  C5  UNL     1      22.840   3.685  48.545  1.00  0.00     0.138 C 
BRANCH  20  21
HETATM   21  C6  UNL     1      21.520   3.032  48.708  1.00  0.00     0.221 C 
HETATM   22  O1  UNL     1      20.663   3.713  48.103  1.00  0.00    -0.273 OA
HETATM   23  N2  UNL     1      21.190   1.859  49.398  1.00  0.00    -0.361 N 
HETATM   24  H10 UNL     1      22.102   1.502  49.793  1.00  0.00     0.162 HD
BRANCH  23  25
HETATM   25  C7  UNL     1      19.985   1.139  49.641  1.00  0.00     0.123 C 
BRANCH  25  26
HETATM   26  C8  UNL     1      19.573   0.885  51.029  1.00  0.00     0.026 C 
BRANCH  26  27
HETATM   27  C9  UNL     1      19.212   1.988  51.933  1.00  0.00     0.007 C 
HETATM   28  C10 UNL     1      20.334   2.886  52.336  1.00  0.00     0.012 C 
BRANCH  27  29
HETATM   29  C11 UNL     1      18.279   2.904  51.085  1.00  0.00     0.168 C 
BRANCH  29  30
HETATM   30  O2  UNL     1      17.726   3.796  52.006  1.00  0.00    -0.400 OA
HETATM   31  H21 UNL     1      17.177   3.334  52.685  1.00  0.00     0.209 HD
ENDBRANCH  29  30
ENDBRANCH  27  29
ENDBRANCH  26  27
ENDBRANCH  25  26
ENDBRANCH  23  25
ENDBRANCH  20  21
ENDBRANCH   2  20
TORSDOF 9
ENDMDL
