MODEL 1
REMARK VINA RESULT:      -8.9      0.000      0.000
REMARK  1 active torsions:
REMARK  status: ('A' for Active; 'I' for Inactive)
REMARK    1  A    between atoms: C7_9  and  C8_10 
ROOT
HETATM    1  C8  UNL     1      25.248   0.354  53.194  1.00  0.00    -0.007 C 
HETATM    2  C9  UNL     1      24.903   1.496  52.554  1.00  0.00     0.019 C 
HETATM    3  C10 UNL     1      23.479   1.837  52.933  1.00  0.00     0.113 C 
HETATM    4  C11 UNL     1      22.614   0.720  52.559  1.00  0.00     0.007 C 
HETATM    5  C12 UNL     1      21.651   0.497  51.643  1.00  0.00     0.000 C 
HETATM    6  C13 UNL     1      21.416   1.726  50.779  1.00  0.00     0.055 C 
HETATM    7  C14 UNL     1      21.882   1.359  49.421  1.00  0.00     0.171 C 
HETATM    8  O1  UNL     1      22.177   2.447  48.571  1.00  0.00    -0.391 OA
HETATM    9  C15 UNL     1      23.092   3.274  49.283  1.00  0.00     0.169 C 
HETATM   10  C16 UNL     1      24.177   2.471  49.882  1.00  0.00     0.046 C 
HETATM   11  C17 UNL     1      25.064   3.222  50.882  1.00  0.00     0.121 C 
HETATM   12  N1  UNL     1      25.808   2.232  51.668  1.00  0.00    -0.392 N 
HETATM   13  N2  UNL     1      22.924  -0.448  53.350  1.00  0.00    -0.389 N 
HETATM   14  C18 UNL     1      24.304  -0.575  53.854  1.00  0.00     0.161 C 
HETATM   15  H19 UNL     1      26.805   1.972  51.703  1.00  0.00     0.159 HD
HETATM   16  H20 UNL     1      22.249  -1.238  53.601  1.00  0.00     0.159 HD
ENDROOT
BRANCH   1  17
HETATM   17  C7  UNL     1      26.681   0.045  53.277  1.00  0.00    -0.019 A 
HETATM   18  C2  UNL     1      27.356  -1.086  52.879  1.00  0.00    -0.048 A 
HETATM   19  C1  UNL     1      26.602  -2.149  52.203  1.00  0.00     0.049 C 
HETATM   20  C3  UNL     1      28.711  -1.226  53.084  1.00  0.00     0.051 A 
HETATM   21  C4  UNL     1      29.482  -0.249  53.696  1.00  0.00     0.138 A 
HETATM   22  F1  UNL     1      30.798  -0.467  53.857  1.00  0.00    -0.204 F 
HETATM   23  C5  UNL     1      28.851   0.888  54.103  1.00  0.00     0.073 A 
HETATM   24 CL1  UNL     1      29.765   2.157  54.880  1.00  0.00    -0.081 Cl
HETATM   25  C6  UNL     1      27.507   1.002  53.889  1.00  0.00     0.039 A 
ENDBRANCH   1  17
TORSDOF 1
ENDMDL
MODEL 2
REMARK VINA RESULT:      -8.3      3.703      5.152
REMARK  1 active torsions:
REMARK  status: ('A' for Active; 'I' for Inactive)
REMARK    1  A    between atoms: C7_9  and  C8_10 
ROOT
HETATM    1  C8  UNL     1      21.718   1.297  51.128  1.00  0.00    -0.007 C 
HETATM    2  C9  UNL     1      21.688   2.637  51.315  1.00  0.00     0.019 C 
HETATM    3  C10 UNL     1      21.052   3.269  50.098  1.00  0.00     0.113 C 
HETATM    4  C11 UNL     1      21.832   2.902  48.917  1.00  0.00     0.007 C 
HETATM    5  C12 UNL     1      22.641   3.538  48.047  1.00  0.00     0.000 C 
HETATM    6  C13 UNL     1      22.773   5.012  48.393  1.00  0.00     0.055 C 
HETATM    7  C14 UNL     1      24.177   5.200  48.827  1.00  0.00     0.171 C 
HETATM    8  O1  UNL     1      24.419   6.354  49.604  1.00  0.00    -0.391 OA
HETATM    9  C15 UNL     1      23.490   6.310  50.683  1.00  0.00     0.169 C 
HETATM   10  C16 UNL     1      23.466   4.973  51.309  1.00  0.00     0.046 C 
HETATM   11  C17 UNL     1      22.321   4.741  52.302  1.00  0.00     0.121 C 
HETATM   12  N1  UNL     1      22.191   3.297  52.523  1.00  0.00    -0.392 N 
HETATM   13  N2  UNL     1      21.741   1.482  48.672  1.00  0.00    -0.389 N 
HETATM   14  C18 UNL     1      21.501   0.609  49.836  1.00  0.00     0.161 C 
HETATM   15  H19 UNL     1      22.386   2.693  53.335  1.00  0.00     0.159 HD
HETATM   16  H20 UNL     1      21.839   0.997  47.724  1.00  0.00     0.159 HD
ENDROOT
BRANCH   1  17
HETATM   17  C7  UNL     1      21.938   0.464  52.317  1.00  0.00    -0.019 A 
HETATM   18  C2  UNL     1      21.020  -0.107  53.167  1.00  0.00    -0.048 A 
HETATM   19  C1  UNL     1      19.592   0.041  52.856  1.00  0.00     0.049 C 
HETATM   20  C3  UNL     1      21.412  -0.824  54.276  1.00  0.00     0.051 A 
HETATM   21  C4  UNL     1      22.744  -1.019  54.611  1.00  0.00     0.138 A 
HETATM   22  F1  UNL     1      23.040  -1.731  55.711  1.00  0.00    -0.204 F 
HETATM   23  C5  UNL     1      23.685  -0.470  53.793  1.00  0.00     0.073 A 
HETATM   24 CL1  UNL     1      25.381  -0.679  54.158  1.00  0.00    -0.081 Cl
HETATM   25  C6  UNL     1      23.270   0.236  52.700  1.00  0.00     0.039 A 
ENDBRANCH   1  17
TORSDOF 1
ENDMDL
MODEL 3
REMARK VINA RESULT:      -8.2      3.755      5.364
REMARK  1 active torsions:
REMARK  status: ('A' for Active; 'I' for Inactive)
REMARK    1  A    between atoms: C7_9  and  C8_10 
ROOT
HETATM    1  C8  UNL     1      23.609   2.980  52.201  1.00  0.00    -0.007 C 
HETATM    2  C9  UNL     1      23.693   3.168  50.863  1.00  0.00     0.019 C 
HETATM    3  C10 UNL     1      24.446   4.456  50.615  1.00  0.00     0.113 C 
HETATM    4  C11 UNL     1      23.735   5.549  51.274  1.00  0.00     0.007 C 
HETATM    5  C12 UNL     1      23.025   6.626  50.884  1.00  0.00     0.000 C 
HETATM    6  C13 UNL     1      22.942   6.712  49.369  1.00  0.00     0.055 C 
HETATM    7  C14 UNL     1      21.522   6.465  49.027  1.00  0.00     0.171 C 
HETATM    8  O1  UNL     1      21.283   6.060  47.696  1.00  0.00    -0.391 OA
HETATM    9  C15 UNL     1      22.130   4.937  47.463  1.00  0.00     0.169 C 
HETATM   10  C16 UNL     1      22.040   3.967  48.573  1.00  0.00     0.046 C 
HETATM   11  C17 UNL     1      23.098   2.857  48.551  1.00  0.00     0.121 C 
HETATM   12  N1  UNL     1      23.139   2.236  49.879  1.00  0.00    -0.392 N 
HETATM   13  N2  UNL     1      23.773   5.385  52.709  1.00  0.00    -0.389 N 
HETATM   14  C18 UNL     1      23.883   4.009  53.229  1.00  0.00     0.161 C 
HETATM   15  H19 UNL     1      22.856   1.308  50.226  1.00  0.00     0.159 HD
HETATM   16  H20 UNL     1      23.718   6.167  53.436  1.00  0.00     0.159 HD
ENDROOT
BRANCH   1  17
HETATM   17  C7  UNL     1      23.262   1.630  52.663  1.00  0.00    -0.019 A 
HETATM   18  C2  UNL     1      24.085   0.568  52.958  1.00  0.00    -0.048 A 
HETATM   19  C1  UNL     1      25.538   0.769  52.888  1.00  0.00     0.049 C 
HETATM   20  C3  UNL     1      23.577  -0.656  53.332  1.00  0.00     0.051 A 
HETATM   21  C4  UNL     1      22.216  -0.902  53.438  1.00  0.00     0.138 A 
HETATM   22  F1  UNL     1      21.804  -2.126  53.810  1.00  0.00    -0.204 F 
HETATM   23  C5  UNL     1      21.366   0.124  53.156  1.00  0.00     0.073 A 
HETATM   24 CL1  UNL     1      19.640  -0.120  53.270  1.00  0.00    -0.081 Cl
HETATM   25  C6  UNL     1      21.896   1.329  52.786  1.00  0.00     0.039 A 
ENDBRANCH   1  17
TORSDOF 1
ENDMDL
MODEL 4
REMARK VINA RESULT:      -8.2      3.423      5.103
REMARK  1 active torsions:
REMARK  status: ('A' for Active; 'I' for Inactive)
REMARK    1  A    between atoms: C7_9  and  C8_10 
ROOT
HETATM    1  C8  UNL     1      25.460   2.487  51.100  1.00  0.00    -0.007 C 
HETATM    2  C9  UNL     1      24.474   3.403  50.946  1.00  0.00     0.019 C 
HETATM    3  C10 UNL     1      24.504   3.892  49.516  1.00  0.00     0.113 C 
HETATM    4  C11 UNL     1      25.822   4.461  49.241  1.00  0.00     0.007 C 
HETATM    5  C12 UNL     1      26.324   5.689  49.009  1.00  0.00     0.000 C 
HETATM    6  C13 UNL     1      25.234   6.748  49.051  1.00  0.00     0.055 C 
HETATM    7  C14 UNL     1      25.518   7.572  50.250  1.00  0.00     0.171 C 
HETATM    8  O1  UNL     1      24.425   8.318  50.742  1.00  0.00    -0.391 OA
HETATM    9  C15 UNL     1      23.360   7.389  50.927  1.00  0.00     0.169 C 
HETATM   10  C16 UNL     1      23.827   6.182  51.636  1.00  0.00     0.046 C 
HETATM   11  C17 UNL     1      22.832   5.015  51.656  1.00  0.00     0.121 C 
HETATM   12  N1  UNL     1      23.561   3.796  52.022  1.00  0.00    -0.392 N 
HETATM   13  N2  UNL     1      26.836   3.433  49.288  1.00  0.00    -0.389 N 
HETATM   14  C18 UNL     1      26.578   2.268  50.154  1.00  0.00     0.161 C 
HETATM   15  H19 UNL     1      23.550   3.200  52.862  1.00  0.00     0.159 HD
HETATM   16  H20 UNL     1      27.765   3.439  48.759  1.00  0.00     0.159 HD
ENDROOT
BRANCH   1  17
HETATM   17  C7  UNL     1      25.380   1.614  52.277  1.00  0.00    -0.019 A 
HETATM   18  C2  UNL     1      26.264   1.470  53.320  1.00  0.00    -0.048 A 
HETATM   19  C1  UNL     1      27.449   2.337  53.359  1.00  0.00     0.049 C 
HETATM   20  C3  UNL     1      26.049   0.553  54.326  1.00  0.00     0.051 A 
HETATM   21  C4  UNL     1      24.939  -0.278  54.359  1.00  0.00     0.138 A 
HETATM   22  F1  UNL     1      24.806  -1.145  55.377  1.00  0.00    -0.204 F 
HETATM   23  C5  UNL     1      24.038  -0.165  53.344  1.00  0.00     0.073 A 
HETATM   24 CL1  UNL     1      22.618  -1.182  53.325  1.00  0.00    -0.081 Cl
HETATM   25  C6  UNL     1      24.274   0.752  52.358  1.00  0.00     0.039 A 
ENDBRANCH   1  17
TORSDOF 1
ENDMDL
MODEL 5
REMARK VINA RESULT:      -8.1      4.371      6.717
REMARK  1 active torsions:
REMARK  status: ('A' for Active; 'I' for Inactive)
REMARK    1  A    between atoms: C7_9  and  C8_10 
ROOT
HETATM    1  C8  UNL     1      24.781   5.066  49.198  1.00  0.00    -0.007 C 
HETATM    2  C9  UNL     1      25.170   3.906  49.777  1.00  0.00     0.019 C 
HETATM    3  C10 UNL     1      24.339   2.785  49.195  1.00  0.00     0.113 C 
HETATM    4  C11 UNL     1      22.927   3.069  49.442  1.00  0.00     0.007 C 
HETATM    5  C12 UNL     1      21.948   2.551  50.209  1.00  0.00     0.000 C 
HETATM    6  C13 UNL     1      22.453   1.372  51.026  1.00  0.00     0.055 C 
HETATM    7  C14 UNL     1      22.426   1.820  52.438  1.00  0.00     0.171 C 
HETATM    8  O1  UNL     1      23.248   1.084  53.319  1.00  0.00    -0.391 OA
HETATM    9  C15 UNL     1      24.552   1.087  52.745  1.00  0.00     0.169 C 
HETATM   10  C16 UNL     1      24.938   2.445  52.313  1.00  0.00     0.046 C 
HETATM   11  C17 UNL     1      26.204   2.516  51.450  1.00  0.00     0.121 C 
HETATM   12  N1  UNL     1      26.232   3.821  50.783  1.00  0.00    -0.392 N 
HETATM   13  N2  UNL     1      22.511   4.241  48.708  1.00  0.00    -0.389 N 
HETATM   14  C18 UNL     1      23.541   5.254  48.410  1.00  0.00     0.161 C 
HETATM   15  H19 UNL     1      26.833   4.651  50.895  1.00  0.00     0.159 HD
HETATM   16  H20 UNL     1      21.521   4.452  48.364  1.00  0.00     0.159 HD
ENDROOT
BRANCH   1  17
HETATM   17  C7  UNL     1      25.689   6.212  49.325  1.00  0.00    -0.019 A 
HETATM   18  C2  UNL     1      25.612   7.300  50.163  1.00  0.00    -0.048 A 
HETATM   19  C1  UNL     1      24.524   7.349  51.147  1.00  0.00     0.049 C 
HETATM   20  C3  UNL     1      26.539   8.318  50.109  1.00  0.00     0.051 A 
HETATM   21  C4  UNL     1      27.601   8.319  49.218  1.00  0.00     0.138 A 
HETATM   22  F1  UNL     1      28.459   9.353  49.231  1.00  0.00    -0.204 F 
HETATM   23  C5  UNL     1      27.714   7.257  48.371  1.00  0.00     0.073 A 
HETATM   24 CL1  UNL     1      29.031   7.197  47.225  1.00  0.00    -0.081 Cl
HETATM   25  C6  UNL     1      26.782   6.261  48.445  1.00  0.00     0.039 A 
ENDBRANCH   1  17
TORSDOF 1
ENDMDL
MODEL 6
REMARK VINA RESULT:      -8.0      3.426      5.067
REMARK  1 active torsions:
REMARK  status: ('A' for Active; 'I' for Inactive)
REMARK    1  A    between atoms: C7_9  and  C8_10 
ROOT
HETATM    1  C8  UNL     1      23.439   2.831  50.512  1.00  0.00    -0.007 C 
HETATM    2  C9  UNL     1      23.284   4.118  50.900  1.00  0.00     0.019 C 
HETATM    3  C10 UNL     1      22.208   4.743  50.043  1.00  0.00     0.113 C 
HETATM    4  C11 UNL     1      22.607   4.643  48.640  1.00  0.00     0.007 C 
HETATM    5  C12 UNL     1      22.994   5.497  47.673  1.00  0.00     0.000 C 
HETATM    6  C13 UNL     1      23.024   6.929  48.182  1.00  0.00     0.055 C 
HETATM    7  C14 UNL     1      24.453   7.322  48.194  1.00  0.00     0.171 C 
HETATM    8  O1  UNL     1      24.770   8.417  49.027  1.00  0.00    -0.391 OA
HETATM    9  C15 UNL     1      24.255   8.100  50.317  1.00  0.00     0.169 C 
HETATM   10  C16 UNL     1      24.622   6.725  50.710  1.00  0.00     0.046 C 
HETATM   11  C17 UNL     1      23.903   6.192  51.956  1.00  0.00     0.121 C 
HETATM   12  N1  UNL     1      24.054   4.734  51.984  1.00  0.00    -0.392 N 
HETATM   13  N2  UNL     1      22.640   3.261  48.222  1.00  0.00    -0.389 N 
HETATM   14  C18 UNL     1      22.914   2.247  49.257  1.00  0.00     0.161 C 
HETATM   15  H19 UNL     1      24.583   4.097  52.598  1.00  0.00     0.159 HD
HETATM   16  H20 UNL     1      22.492   2.899  47.227  1.00  0.00     0.159 HD
ENDROOT
BRANCH   1  17
HETATM   17  C7  UNL     1      24.146   1.936  51.438  1.00  0.00    -0.019 A 
HETATM   18  C2  UNL     1      25.494   1.689  51.557  1.00  0.00    -0.048 A 
HETATM   19  C1  UNL     1      26.422   2.450  50.711  1.00  0.00     0.049 C 
HETATM   20  C3  UNL     1      25.981   0.768  52.458  1.00  0.00     0.051 A 
HETATM   21  C4  UNL     1      25.157   0.035  53.300  1.00  0.00     0.138 A 
HETATM   22  F1  UNL     1      25.715  -0.844  54.150  1.00  0.00    -0.204 F 
HETATM   23  C5  UNL     1      23.815   0.252  53.214  1.00  0.00     0.073 A 
HETATM   24 CL1  UNL     1      22.723  -0.640  54.246  1.00  0.00    -0.081 Cl
HETATM   25  C6  UNL     1      23.358   1.170  52.311  1.00  0.00     0.039 A 
ENDBRANCH   1  17
TORSDOF 1
ENDMDL
MODEL 7
REMARK VINA RESULT:      -7.9      3.059      4.554
REMARK  1 active torsions:
REMARK  status: ('A' for Active; 'I' for Inactive)
REMARK    1  A    between atoms: C7_9  and  C8_10 
ROOT
HETATM    1  C8  UNL     1      23.565   3.364  51.380  1.00  0.00    -0.007 C 
HETATM    2  C9  UNL     1      23.085   3.262  50.118  1.00  0.00     0.019 C 
HETATM    3  C10 UNL     1      22.770   4.653  49.618  1.00  0.00     0.113 C 
HETATM    4  C11 UNL     1      21.799   5.267  50.521  1.00  0.00     0.007 C 
HETATM    5  C12 UNL     1      20.503   5.632  50.457  1.00  0.00     0.000 C 
HETATM    6  C13 UNL     1      19.907   5.314  49.095  1.00  0.00     0.055 C 
HETATM    7  C14 UNL     1      18.916   4.238  49.329  1.00  0.00     0.171 C 
HETATM    8  O1  UNL     1      18.565   3.483  48.190  1.00  0.00    -0.391 OA
HETATM    9  C15 UNL     1      19.789   3.018  47.626  1.00  0.00     0.169 C 
HETATM   10  C16 UNL     1      20.667   2.447  48.666  1.00  0.00     0.046 C 
HETATM   11  C17 UNL     1      22.105   2.159  48.215  1.00  0.00     0.121 C 
HETATM   12  N1  UNL     1      22.935   1.987  49.411  1.00  0.00    -0.392 N 
HETATM   13  N2  UNL     1      22.383   5.480  51.825  1.00  0.00    -0.389 N 
HETATM   14  C18 UNL     1      23.466   4.568  52.237  1.00  0.00     0.161 C 
HETATM   15  H19 UNL     1      23.404   1.168  49.826  1.00  0.00     0.159 HD
HETATM   16  H20 UNL     1      22.100   6.233  52.528  1.00  0.00     0.159 HD
ENDROOT
BRANCH   1  17
HETATM   17  C7  UNL     1      24.281   2.200  51.917  1.00  0.00    -0.019 A 
HETATM   18  C2  UNL     1      25.577   1.795  51.700  1.00  0.00    -0.048 A 
HETATM   19  C1  UNL     1      26.447   2.644  50.877  1.00  0.00     0.049 C 
HETATM   20  C3  UNL     1      26.071   0.634  52.253  1.00  0.00     0.051 A 
HETATM   21  C4  UNL     1      25.307  -0.198  53.057  1.00  0.00     0.138 A 
HETATM   22  F1  UNL     1      25.867  -1.313  53.556  1.00  0.00    -0.204 F 
HETATM   23  C5  UNL     1      24.017   0.169  53.298  1.00  0.00     0.073 A 
HETATM   24 CL1  UNL     1      23.001  -0.835  54.303  1.00  0.00    -0.081 Cl
HETATM   25  C6  UNL     1      23.551   1.325  52.737  1.00  0.00     0.039 A 
ENDBRANCH   1  17
TORSDOF 1
ENDMDL
MODEL 8
REMARK VINA RESULT:      -7.9      3.596      5.295
REMARK  1 active torsions:
REMARK  status: ('A' for Active; 'I' for Inactive)
REMARK    1  A    between atoms: C7_9  and  C8_10 
ROOT
HETATM    1  C8  UNL     1      23.216   3.289  51.818  1.00  0.00    -0.007 C 
HETATM    2  C9  UNL     1      23.311   3.255  50.468  1.00  0.00     0.019 C 
HETATM    3  C10 UNL     1      24.017   4.511  50.012  1.00  0.00     0.113 C 
HETATM    4  C11 UNL     1      23.256   5.671  50.474  1.00  0.00     0.007 C 
HETATM    5  C12 UNL     1      22.510   6.637  49.904  1.00  0.00     0.000 C 
HETATM    6  C13 UNL     1      22.445   6.466  48.395  1.00  0.00     0.055 C 
HETATM    7  C14 UNL     1      21.040   6.108  48.090  1.00  0.00     0.171 C 
HETATM    8  O1  UNL     1      20.834   5.477  46.844  1.00  0.00    -0.391 OA
HETATM    9  C15 UNL     1      21.726   4.365  46.808  1.00  0.00     0.169 C 
HETATM   10  C16 UNL     1      21.659   3.592  48.065  1.00  0.00     0.046 C 
HETATM   11  C17 UNL     1      22.759   2.537  48.237  1.00  0.00     0.121 C 
HETATM   12  N1  UNL     1      22.806   2.149  49.650  1.00  0.00    -0.392 N 
HETATM   13  N2  UNL     1      23.281   5.750  51.916  1.00  0.00    -0.389 N 
HETATM   14  C18 UNL     1      23.437   4.487  52.660  1.00  0.00     0.161 C 
HETATM   15  H19 UNL     1      22.553   1.282  50.146  1.00  0.00     0.159 HD
HETATM   16  H20 UNL     1      23.187   6.640  52.500  1.00  0.00     0.159 HD
ENDROOT
BRANCH   1  17
HETATM   17  C7  UNL     1      22.915   2.023  52.497  1.00  0.00    -0.019 A 
HETATM   18  C2  UNL     1      21.701   1.509  52.891  1.00  0.00    -0.048 A 
HETATM   19  C1  UNL     1      20.482   2.254  52.551  1.00  0.00     0.049 C 
HETATM   20  C3  UNL     1      21.611   0.314  53.571  1.00  0.00     0.051 A 
HETATM   21  C4  UNL     1      22.722  -0.446  53.901  1.00  0.00     0.138 A 
HETATM   22  F1  UNL     1      22.545  -1.600  54.566  1.00  0.00    -0.204 F 
HETATM   23  C5  UNL     1      23.943   0.028  53.527  1.00  0.00     0.073 A 
HETATM   24 CL1  UNL     1      25.384  -0.883  53.913  1.00  0.00    -0.081 Cl
HETATM   25  C6  UNL     1      24.006   1.215  52.854  1.00  0.00     0.039 A 
ENDBRANCH   1  17
TORSDOF 1
ENDMDL
MODEL 9
REMARK VINA RESULT:      -7.7      4.559      6.853
REMARK  1 active torsions:
REMARK  status: ('A' for Active; 'I' for Inactive)
REMARK    1  A    between atoms: C7_9  and  C8_10 
ROOT
HETATM    1  C8  UNL     1      23.495   2.797  50.566  1.00  0.00    -0.007 C 
HETATM    2  C9  UNL     1      22.599   2.640  51.568  1.00  0.00     0.019 C 
HETATM    3  C10 UNL     1      23.361   2.381  52.847  1.00  0.00     0.113 C 
HETATM    4  C11 UNL     1      24.188   1.190  52.668  1.00  0.00     0.007 C 
HETATM    5  C12 UNL     1      24.200  -0.070  53.145  1.00  0.00     0.000 C 
HETATM    6  C13 UNL     1      23.053  -0.303  54.115  1.00  0.00     0.055 C 
HETATM    7  C14 UNL     1      22.146  -1.263  53.442  1.00  0.00     0.171 C 
HETATM    8  O1  UNL     1      20.823  -1.289  53.935  1.00  0.00    -0.391 OA
HETATM    9  C15 UNL     1      20.356   0.057  53.899  1.00  0.00     0.169 C 
HETATM   10  C16 UNL     1      20.664   0.689  52.600  1.00  0.00     0.046 C 
HETATM   11  C17 UNL     1      20.443   2.206  52.549  1.00  0.00     0.121 C 
HETATM   12  N1  UNL     1      21.149   2.733  51.377  1.00  0.00    -0.392 N 
HETATM   13  N2  UNL     1      25.216   1.432  51.682  1.00  0.00    -0.389 N 
HETATM   14  C18 UNL     1      24.928   2.431  50.636  1.00  0.00     0.161 C 
HETATM   15  H19 UNL     1      20.823   3.131  50.484  1.00  0.00     0.159 HD
HETATM   16  H20 UNL     1      26.168   0.948  51.631  1.00  0.00     0.159 HD
ENDROOT
BRANCH   1  17
HETATM   17  C7  UNL     1      23.011   3.424  49.330  1.00  0.00    -0.019 A 
HETATM   18  C2  UNL     1      22.366   2.855  48.256  1.00  0.00    -0.048 A 
HETATM   19  C1  UNL     1      22.019   1.430  48.322  1.00  0.00     0.049 C 
HETATM   20  C3  UNL     1      22.026   3.596  47.145  1.00  0.00     0.051 A 
HETATM   21  C4  UNL     1      22.306   4.950  47.032  1.00  0.00     0.138 A 
HETATM   22  F1  UNL     1      21.940   5.597  45.912  1.00  0.00    -0.204 F 
HETATM   23  C5  UNL     1      22.943   5.551  48.075  1.00  0.00     0.073 A 
HETATM   24 CL1  UNL     1      23.324   7.254  47.996  1.00  0.00    -0.081 Cl
HETATM   25  C6  UNL     1      23.269   4.794  49.165  1.00  0.00     0.039 A 
ENDBRANCH   1  17
TORSDOF 1
ENDMDL
