MODEL 1
REMARK VINA RESULT:     -10.0      0.000      0.000
REMARK  0 active torsions:
REMARK  status: ('A' for Active; 'I' for Inactive)
ROOT
HETATM    1  C1  UNL     1      27.546   5.447  48.543  1.00  0.00     0.066 C 
HETATM    2  C2  UNL     1      26.492   4.816  49.373  1.00  0.00    -0.010 C 
HETATM    3  C3  UNL     1      25.220   5.216  49.441  1.00  0.00    -0.001 C 
HETATM    4  C4  UNL     1      24.527   6.313  48.774  1.00  0.00     0.056 C 
HETATM    5  C5  UNL     1      23.429   6.019  47.833  1.00  0.00     0.181 C 
HETATM    6  O1  UNL     1      22.384   5.308  48.353  1.00  0.00    -0.333 OA
HETATM    7  C6  UNL     1      22.262   4.053  48.857  1.00  0.00     0.178 A 
HETATM    8  N1  UNL     1      22.293   3.411  47.674  1.00  0.00    -0.217 NA
HETATM    9  C7  UNL     1      22.209   2.080  47.507  1.00  0.00     0.236 A 
HETATM   10  N2  UNL     1      22.084   1.358  48.627  1.00  0.00    -0.241 NA
HETATM   11  C8  UNL     1      22.048   1.934  49.816  1.00  0.00     0.073 A 
HETATM   12  C9  UNL     1      21.937   1.166  50.981  1.00  0.00     0.039 A 
HETATM   13  C10 UNL     1      21.909   1.673  52.284  1.00  0.00    -0.056 A 
HETATM   14  C11 UNL     1      21.994   3.039  52.416  1.00  0.00     0.008 A 
HETATM   15  C12 UNL     1      22.102   3.797  51.276  1.00  0.00     0.019 A 
HETATM   16  C13 UNL     1      22.133   3.295  49.996  1.00  0.00     0.046 A 
HETATM   17  C14 UNL     1      21.842   0.586  53.315  1.00  0.00     0.040 C 
HETATM   18  C15 UNL     1      23.038  -0.353  53.083  1.00  0.00     0.024 C 
HETATM   19  C16 UNL     1      24.251   0.544  53.254  1.00  0.00     0.123 C 
HETATM   20  N3  UNL     1      25.473  -0.087  52.823  1.00  0.00    -0.382 N 
HETATM   21  C17 UNL     1      26.068  -1.405  52.770  1.00  0.00     0.123 C 
HETATM   22  C18 UNL     1      27.462  -1.128  53.318  1.00  0.00     0.026 C 
HETATM   23  C19 UNL     1      27.780   0.235  52.681  1.00  0.00     0.061 C 
HETATM   24  C20 UNL     1      26.466   0.758  52.255  1.00  0.00     0.043 C 
HETATM   25  C21 UNL     1      26.069   1.743  51.534  1.00  0.00     0.130 A 
HETATM   26  F1  UNL     1      24.947   2.307  51.083  1.00  0.00    -0.335 F 
HETATM   27  C22 UNL     1      26.418   2.879  50.737  1.00  0.00     0.489 A 
HETATM   28  N4  UNL     1      27.063   3.762  50.126  1.00  0.00    -0.384 NA
ENDROOT
TORSDOF 0
ENDMDL
MODEL 2
REMARK VINA RESULT:      -9.1      2.280      5.177
REMARK  0 active torsions:
REMARK  status: ('A' for Active; 'I' for Inactive)
ROOT
HETATM    1  C1  UNL     1      20.792  -1.516  54.208  1.00  0.00     0.066 C 
HETATM    2  C2  UNL     1      21.529  -0.689  53.223  1.00  0.00    -0.010 C 
HETATM    3  C3  UNL     1      20.979  -0.038  52.195  1.00  0.00    -0.001 C 
HETATM    4  C4  UNL     1      19.592   0.052  51.754  1.00  0.00     0.056 C 
HETATM    5  C5  UNL     1      18.903   1.358  51.766  1.00  0.00     0.181 C 
HETATM    6  O1  UNL     1      19.495   2.339  51.021  1.00  0.00    -0.333 OA
HETATM    7  C6  UNL     1      20.685   2.988  51.098  1.00  0.00     0.178 A 
HETATM    8  N1  UNL     1      20.360   3.778  52.138  1.00  0.00    -0.217 NA
HETATM    9  C7  UNL     1      21.168   4.689  52.707  1.00  0.00     0.236 A 
HETATM   10  N2  UNL     1      22.391   4.799  52.175  1.00  0.00    -0.241 NA
HETATM   11  C8  UNL     1      22.766   4.049  51.152  1.00  0.00     0.073 A 
HETATM   12  C9  UNL     1      24.054   4.159  50.618  1.00  0.00     0.039 A 
HETATM   13  C10 UNL     1      24.555   3.402  49.553  1.00  0.00    -0.056 A 
HETATM   14  C11 UNL     1      23.699   2.483  48.995  1.00  0.00     0.008 A 
HETATM   15  C12 UNL     1      22.433   2.372  49.515  1.00  0.00     0.019 A 
HETATM   16  C13 UNL     1      21.945   3.115  50.564  1.00  0.00     0.046 A 
HETATM   17  C14 UNL     1      25.991   3.719  49.257  1.00  0.00     0.040 C 
HETATM   18  C15 UNL     1      26.793   3.503  50.552  1.00  0.00     0.024 C 
HETATM   19  C16 UNL     1      26.572   2.038  50.883  1.00  0.00     0.123 C 
HETATM   20  N3  UNL     1      27.032   1.693  52.205  1.00  0.00    -0.382 N 
HETATM   21  C17 UNL     1      28.073   2.068  53.137  1.00  0.00     0.123 C 
HETATM   22  C18 UNL     1      28.584   0.703  53.581  1.00  0.00     0.026 C 
HETATM   23  C19 UNL     1      27.277  -0.102  53.677  1.00  0.00     0.061 C 
HETATM   24  C20 UNL     1      26.302   0.686  52.896  1.00  0.00     0.043 C 
HETATM   25  C21 UNL     1      25.030   0.650  52.727  1.00  0.00     0.130 A 
HETATM   26  F1  UNL     1      24.056   1.285  52.071  1.00  0.00    -0.335 F 
HETATM   27  C22 UNL     1      23.784   0.017  53.034  1.00  0.00     0.489 A 
HETATM   28  N4  UNL     1      22.914  -0.748  53.512  1.00  0.00    -0.384 NA
ENDROOT
TORSDOF 0
ENDMDL
MODEL 3
REMARK VINA RESULT:      -9.0      2.648      7.106
REMARK  0 active torsions:
REMARK  status: ('A' for Active; 'I' for Inactive)
ROOT
HETATM    1  C1  UNL     1      20.642  -2.035  54.229  1.00  0.00     0.066 C 
HETATM    2  C2  UNL     1      21.563  -0.957  53.795  1.00  0.00    -0.010 C 
HETATM    3  C3  UNL     1      22.625  -0.525  54.480  1.00  0.00    -0.001 C 
HETATM    4  C4  UNL     1      23.164  -0.944  55.769  1.00  0.00     0.056 C 
HETATM    5  C5  UNL     1      24.510  -1.546  55.838  1.00  0.00     0.181 C 
HETATM    6  O1  UNL     1      25.525  -0.770  55.352  1.00  0.00    -0.333 OA
HETATM    7  C6  UNL     1      25.827  -0.282  54.121  1.00  0.00     0.178 A 
HETATM    8  N1  UNL     1      26.277  -1.441  53.605  1.00  0.00    -0.217 NA
HETATM    9  C7  UNL     1      26.742  -1.610  52.355  1.00  0.00     0.236 A 
HETATM   10  N2  UNL     1      26.746  -0.517  51.581  1.00  0.00    -0.241 NA
HETATM   11  C8  UNL     1      26.315   0.648  52.034  1.00  0.00     0.073 A 
HETATM   12  C9  UNL     1      26.306   1.778  51.209  1.00  0.00     0.039 A 
HETATM   13  C10 UNL     1      25.855   3.048  51.583  1.00  0.00    -0.056 A 
HETATM   14  C11 UNL     1      25.390   3.183  52.870  1.00  0.00     0.008 A 
HETATM   15  C12 UNL     1      25.399   2.077  53.684  1.00  0.00     0.019 A 
HETATM   16  C13 UNL     1      25.839   0.828  53.312  1.00  0.00     0.046 A 
HETATM   17  C14 UNL     1      25.923   4.030  50.452  1.00  0.00     0.040 C 
HETATM   18  C15 UNL     1      25.114   3.448  49.279  1.00  0.00     0.024 C 
HETATM   19  C16 UNL     1      23.711   3.294  49.839  1.00  0.00     0.123 C 
HETATM   20  N3  UNL     1      22.852   2.522  48.976  1.00  0.00    -0.382 N 
HETATM   21  C17 UNL     1      22.652   2.272  47.565  1.00  0.00     0.123 C 
HETATM   22  C18 UNL     1      21.140   2.413  47.447  1.00  0.00     0.026 C 
HETATM   23  C19 UNL     1      20.663   1.745  48.747  1.00  0.00     0.061 C 
HETATM   24  C20 UNL     1      21.864   1.718  49.608  1.00  0.00     0.043 C 
HETATM   25  C21 UNL     1      22.171   1.161  50.723  1.00  0.00     0.130 A 
HETATM   26  F1  UNL     1      23.189   1.057  51.580  1.00  0.00    -0.335 F 
HETATM   27  C22 UNL     1      21.768   0.326  51.812  1.00  0.00     0.489 A 
HETATM   28  N4  UNL     1      21.103  -0.421  52.568  1.00  0.00    -0.384 NA
ENDROOT
TORSDOF 0
ENDMDL
MODEL 4
REMARK VINA RESULT:      -8.9      2.273      2.539
REMARK  0 active torsions:
REMARK  status: ('A' for Active; 'I' for Inactive)
ROOT
HETATM    1  C1  UNL     1      23.807   7.198  50.691  1.00  0.00     0.066 C 
HETATM    2  C2  UNL     1      23.189   5.940  51.172  1.00  0.00    -0.010 C 
HETATM    3  C3  UNL     1      21.898   5.618  51.051  1.00  0.00    -0.001 C 
HETATM    4  C4  UNL     1      20.784   6.348  50.458  1.00  0.00     0.056 C 
HETATM    5  C5  UNL     1      20.090   5.792  49.279  1.00  0.00     0.181 C 
HETATM    6  O1  UNL     1      19.547   4.549  49.450  1.00  0.00    -0.333 OA
HETATM    7  C6  UNL     1      20.073   3.321  49.696  1.00  0.00     0.178 A 
HETATM    8  N1  UNL     1      20.536   3.102  48.451  1.00  0.00    -0.217 NA
HETATM    9  C7  UNL     1      21.187   2.000  48.044  1.00  0.00     0.236 A 
HETATM   10  N2  UNL     1      21.377   1.057  48.975  1.00  0.00    -0.241 NA
HETATM   11  C8  UNL     1      20.945   1.217  50.214  1.00  0.00     0.073 A 
HETATM   12  C9  UNL     1      21.168   0.233  51.183  1.00  0.00     0.039 A 
HETATM   13  C10 UNL     1      20.770   0.311  52.521  1.00  0.00    -0.056 A 
HETATM   14  C11 UNL     1      20.103   1.452  52.900  1.00  0.00     0.008 A 
HETATM   15  C12 UNL     1      19.881   2.421  51.953  1.00  0.00     0.019 A 
HETATM   16  C13 UNL     1      20.277   2.342  50.638  1.00  0.00     0.046 A 
HETATM   17  C14 UNL     1      21.210  -0.883  53.316  1.00  0.00     0.040 C 
HETATM   18  C15 UNL     1      22.736  -1.004  53.169  1.00  0.00     0.024 C 
HETATM   19  C16 UNL     1      23.267   0.303  53.732  1.00  0.00     0.123 C 
HETATM   20  N3  UNL     1      24.667   0.499  53.452  1.00  0.00    -0.382 N 
HETATM   21  C17 UNL     1      25.874  -0.282  53.294  1.00  0.00     0.123 C 
HETATM   22  C18 UNL     1      26.857   0.507  54.149  1.00  0.00     0.026 C 
HETATM   23  C19 UNL     1      26.450   1.956  53.833  1.00  0.00     0.061 C 
HETATM   24  C20 UNL     1      25.099   1.839  53.249  1.00  0.00     0.043 C 
HETATM   25  C21 UNL     1      24.297   2.638  52.642  1.00  0.00     0.130 A 
HETATM   26  F1  UNL     1      23.087   2.658  52.080  1.00  0.00    -0.335 F 
HETATM   27  C22 UNL     1      24.049   3.954  52.139  1.00  0.00     0.489 A 
HETATM   28  N4  UNL     1      24.171   5.163  51.831  1.00  0.00    -0.384 NA
ENDROOT
TORSDOF 0
ENDMDL
MODEL 5
REMARK VINA RESULT:      -8.2      5.485      9.862
REMARK  0 active torsions:
REMARK  status: ('A' for Active; 'I' for Inactive)
ROOT
HETATM    1  C1  UNL     1      26.526   4.887  49.429  1.00  0.00     0.066 C 
HETATM    2  C2  UNL     1      27.490   5.559  48.526  1.00  0.00    -0.010 C 
HETATM    3  C3  UNL     1      27.256   6.685  47.846  1.00  0.00    -0.001 C 
HETATM    4  C4  UNL     1      26.071   7.533  47.783  1.00  0.00     0.056 C 
HETATM    5  C5  UNL     1      26.140   8.924  48.272  1.00  0.00     0.181 C 
HETATM    6  O1  UNL     1      27.078   9.713  47.666  1.00  0.00    -0.333 OA
HETATM    7  C6  UNL     1      28.434   9.685  47.612  1.00  0.00     0.178 A 
HETATM    8  N1  UNL     1      28.646  10.147  48.858  1.00  0.00    -0.217 NA
HETATM    9  C7  UNL     1      29.849  10.351  49.421  1.00  0.00     0.236 A 
HETATM   10  N2  UNL     1      30.908  10.060  48.655  1.00  0.00    -0.241 NA
HETATM   11  C8  UNL     1      30.761   9.602  47.423  1.00  0.00     0.073 A 
HETATM   12  C9  UNL     1      31.876   9.283  46.640  1.00  0.00     0.039 A 
HETATM   13  C10 UNL     1      31.830   8.777  45.338  1.00  0.00    -0.056 A 
HETATM   14  C11 UNL     1      30.582   8.585  44.794  1.00  0.00     0.008 A 
HETATM   15  C12 UNL     1      29.485   8.898  45.558  1.00  0.00     0.019 A 
HETATM   16  C13 UNL     1      29.533   9.393  46.841  1.00  0.00     0.046 A 
HETATM   17  C14 UNL     1      33.197   8.484  44.793  1.00  0.00     0.040 C 
HETATM   18  C15 UNL     1      33.891   7.518  45.769  1.00  0.00     0.024 C 
HETATM   19  C16 UNL     1      32.991   6.295  45.781  1.00  0.00     0.123 C 
HETATM   20  N3  UNL     1      33.328   5.369  46.833  1.00  0.00    -0.382 N 
HETATM   21  C17 UNL     1      34.493   4.903  47.552  1.00  0.00     0.123 C 
HETATM   22  C18 UNL     1      34.282   3.394  47.520  1.00  0.00     0.026 C 
HETATM   23  C19 UNL     1      32.762   3.289  47.727  1.00  0.00     0.061 C 
HETATM   24  C20 UNL     1      32.254   4.640  47.414  1.00  0.00     0.043 C 
HETATM   25  C21 UNL     1      31.128   5.243  47.549  1.00  0.00     0.130 A 
HETATM   26  F1  UNL     1      30.555   6.425  47.316  1.00  0.00    -0.335 F 
HETATM   27  C22 UNL     1      29.766   5.183  47.982  1.00  0.00     0.489 A 
HETATM   28  N4  UNL     1      28.674   4.788  48.454  1.00  0.00    -0.384 NA
ENDROOT
TORSDOF 0
ENDMDL
MODEL 6
REMARK VINA RESULT:      -8.2      2.333      5.929
REMARK  0 active torsions:
REMARK  status: ('A' for Active; 'I' for Inactive)
ROOT
HETATM    1  C1  UNL     1      26.337   1.652  53.772  1.00  0.00     0.066 C 
HETATM    2  C2  UNL     1      25.396   1.733  52.630  1.00  0.00    -0.010 C 
HETATM    3  C3  UNL     1      24.434   0.848  52.357  1.00  0.00    -0.001 C 
HETATM    4  C4  UNL     1      24.044  -0.379  53.043  1.00  0.00     0.056 C 
HETATM    5  C5  UNL     1      22.702  -0.483  53.650  1.00  0.00     0.181 C 
HETATM    6  O1  UNL     1      21.655  -0.300  52.791  1.00  0.00    -0.333 OA
HETATM    7  C6  UNL     1      21.219   0.753  52.054  1.00  0.00     0.178 A 
HETATM    8  N1  UNL     1      20.683   1.445  53.077  1.00  0.00    -0.217 NA
HETATM    9  C7  UNL     1      20.068   2.635  52.978  1.00  0.00     0.236 A 
HETATM   10  N2  UNL     1      19.997   3.154  51.745  1.00  0.00    -0.241 NA
HETATM   11  C8  UNL     1      20.505   2.520  50.702  1.00  0.00     0.073 A 
HETATM   12  C9  UNL     1      20.441   3.082  49.422  1.00  0.00     0.039 A 
HETATM   13  C10 UNL     1      20.962   2.505  48.259  1.00  0.00    -0.056 A 
HETATM   14  C11 UNL     1      21.581   1.285  48.400  1.00  0.00     0.008 A 
HETATM   15  C12 UNL     1      21.645   0.730  49.654  1.00  0.00     0.019 A 
HETATM   16  C13 UNL     1      21.135   1.301  50.796  1.00  0.00     0.046 A 
HETATM   17  C14 UNL     1      20.782   3.385  47.058  1.00  0.00     0.040 C 
HETATM   18  C15 UNL     1      21.431   4.744  47.375  1.00  0.00     0.024 C 
HETATM   19  C16 UNL     1      22.887   4.406  47.640  1.00  0.00     0.123 C 
HETATM   20  N3  UNL     1      23.618   5.511  48.208  1.00  0.00    -0.382 N 
HETATM   21  C17 UNL     1      23.642   6.956  48.150  1.00  0.00     0.123 C 
HETATM   22  C18 UNL     1      25.132   7.226  47.983  1.00  0.00     0.026 C 
HETATM   23  C19 UNL     1      25.745   6.164  48.911  1.00  0.00     0.061 C 
HETATM   24  C20 UNL     1      24.657   5.189  49.124  1.00  0.00     0.043 C 
HETATM   25  C21 UNL     1      24.472   4.189  49.908  1.00  0.00     0.130 A 
HETATM   26  F1  UNL     1      23.563   3.255  50.195  1.00  0.00    -0.335 F 
HETATM   27  C22 UNL     1      24.985   3.359  50.955  1.00  0.00     0.489 A 
HETATM   28  N4  UNL     1      25.718   2.864  51.843  1.00  0.00    -0.384 NA
ENDROOT
TORSDOF 0
ENDMDL
MODEL 7
REMARK VINA RESULT:      -8.1      3.493      6.176
REMARK  0 active torsions:
REMARK  status: ('A' for Active; 'I' for Inactive)
ROOT
HETATM    1  C1  UNL     1      24.111  -0.508  53.561  1.00  0.00     0.066 C 
HETATM    2  C2  UNL     1      23.013   0.357  53.067  1.00  0.00    -0.010 C 
HETATM    3  C3  UNL     1      23.158   1.603  52.609  1.00  0.00    -0.001 C 
HETATM    4  C4  UNL     1      24.347   2.436  52.466  1.00  0.00     0.056 C 
HETATM    5  C5  UNL     1      24.781   2.868  51.123  1.00  0.00     0.181 C 
HETATM    6  O1  UNL     1      23.857   3.579  50.409  1.00  0.00    -0.333 OA
HETATM    7  C6  UNL     1      22.635   3.283  49.898  1.00  0.00     0.178 A 
HETATM    8  N1  UNL     1      23.078   2.548  48.861  1.00  0.00    -0.217 NA
HETATM    9  C7  UNL     1      22.302   1.950  47.941  1.00  0.00     0.236 A 
HETATM   10  N2  UNL     1      20.982   2.116  48.093  1.00  0.00    -0.241 NA
HETATM   11  C8  UNL     1      20.490   2.828  49.093  1.00  0.00     0.073 A 
HETATM   12  C9  UNL     1      19.108   2.977  49.253  1.00  0.00     0.039 A 
HETATM   13  C10 UNL     1      18.485   3.690  50.283  1.00  0.00    -0.056 A 
HETATM   14  C11 UNL     1      19.312   4.291  51.203  1.00  0.00     0.008 A 
HETATM   15  C12 UNL     1      20.668   4.148  51.050  1.00  0.00     0.019 A 
HETATM   16  C13 UNL     1      21.277   3.443  50.038  1.00  0.00     0.046 A 
HETATM   17  C14 UNL     1      16.989   3.611  50.205  1.00  0.00     0.040 C 
HETATM   18  C15 UNL     1      16.600   2.123  50.210  1.00  0.00     0.024 C 
HETATM   19  C16 UNL     1      17.146   1.602  51.528  1.00  0.00     0.123 C 
HETATM   20  N3  UNL     1      17.111   0.164  51.612  1.00  0.00    -0.382 N 
HETATM   21  C17 UNL     1      16.299  -0.943  51.156  1.00  0.00     0.123 C 
HETATM   22  C18 UNL     1      16.162  -1.762  52.432  1.00  0.00     0.026 C 
HETATM   23  C19 UNL     1      17.566  -1.624  53.042  1.00  0.00     0.061 C 
HETATM   24  C20 UNL     1      18.156  -0.461  52.347  1.00  0.00     0.043 C 
HETATM   25  C21 UNL     1      19.327   0.059  52.278  1.00  0.00     0.130 A 
HETATM   26  F1  UNL     1      19.974   1.075  51.703  1.00  0.00    -0.335 F 
HETATM   27  C22 UNL     1      20.700   0.013  52.681  1.00  0.00     0.489 A 
HETATM   28  N4  UNL     1      21.782  -0.326  53.214  1.00  0.00    -0.384 NA
ENDROOT
TORSDOF 0
ENDMDL
MODEL 8
REMARK VINA RESULT:      -8.0      8.045     10.735
REMARK  0 active torsions:
REMARK  status: ('A' for Active; 'I' for Inactive)
ROOT
HETATM    1  C1  UNL     1      31.857  12.397  45.406  1.00  0.00     0.066 C 
HETATM    2  C2  UNL     1      32.058  11.058  46.009  1.00  0.00    -0.010 C 
HETATM    3  C3  UNL     1      31.775  10.729  47.273  1.00  0.00    -0.001 C 
HETATM    4  C4  UNL     1      31.227  11.524  48.366  1.00  0.00     0.056 C 
HETATM    5  C5  UNL     1      29.916  11.168  48.943  1.00  0.00     0.181 C 
HETATM    6  O1  UNL     1      29.822   9.901  49.448  1.00  0.00    -0.333 OA
HETATM    7  C6  UNL     1      29.893   8.663  48.894  1.00  0.00     0.178 A 
HETATM    8  N1  UNL     1      28.672   8.680  48.328  1.00  0.00    -0.217 NA
HETATM    9  C7  UNL     1      28.134   7.684  47.604  1.00  0.00     0.236 A 
HETATM   10  N2  UNL     1      28.900   6.596  47.449  1.00  0.00    -0.241 NA
HETATM   11  C8  UNL     1      30.107   6.523  47.983  1.00  0.00     0.073 A 
HETATM   12  C9  UNL     1      30.905   5.389  47.797  1.00  0.00     0.039 A 
HETATM   13  C10 UNL     1      32.199   5.219  48.300  1.00  0.00    -0.056 A 
HETATM   14  C11 UNL     1      32.714   6.258  49.039  1.00  0.00     0.008 A 
HETATM   15  C12 UNL     1      31.934   7.373  49.225  1.00  0.00     0.019 A 
HETATM   16  C13 UNL     1      30.664   7.538  48.726  1.00  0.00     0.046 A 
HETATM   17  C14 UNL     1      32.807   3.915  47.877  1.00  0.00     0.040 C 
HETATM   18  C15 UNL     1      32.770   3.861  46.340  1.00  0.00     0.024 C 
HETATM   19  C16 UNL     1      33.594   5.061  45.907  1.00  0.00     0.123 C 
HETATM   20  N3  UNL     1      33.471   5.339  44.498  1.00  0.00    -0.382 N 
HETATM   21  C17 UNL     1      33.280   4.629  43.252  1.00  0.00     0.123 C 
HETATM   22  C18 UNL     1      34.339   5.279  42.371  1.00  0.00     0.026 C 
HETATM   23  C19 UNL     1      34.247   6.750  42.809  1.00  0.00     0.061 C 
HETATM   24  C20 UNL     1      33.541   6.704  44.105  1.00  0.00     0.043 C 
HETATM   25  C21 UNL     1      33.018   7.577  44.888  1.00  0.00     0.130 A 
HETATM   26  F1  UNL     1      32.369   7.665  46.051  1.00  0.00    -0.335 F 
HETATM   27  C22 UNL     1      32.733   8.955  45.149  1.00  0.00     0.489 A 
HETATM   28  N4  UNL     1      32.651  10.202  45.051  1.00  0.00    -0.384 NA
ENDROOT
TORSDOF 0
ENDMDL
MODEL 9
REMARK VINA RESULT:      -8.0      9.179     11.911
REMARK  0 active torsions:
REMARK  status: ('A' for Active; 'I' for Inactive)
ROOT
HETATM    1  C1  UNL     1      33.941   4.708  42.725  1.00  0.00     0.066 C 
HETATM    2  C2  UNL     1      33.192   5.245  43.886  1.00  0.00    -0.010 C 
HETATM    3  C3  UNL     1      33.158   4.698  45.104  1.00  0.00    -0.001 C 
HETATM    4  C4  UNL     1      33.795   3.495  45.628  1.00  0.00     0.056 C 
HETATM    5  C5  UNL     1      34.798   3.608  46.706  1.00  0.00     0.181 C 
HETATM    6  O1  UNL     1      34.361   4.212  47.851  1.00  0.00    -0.333 OA
HETATM    7  C6  UNL     1      33.931   5.466  48.146  1.00  0.00     0.178 A 
HETATM    8  N1  UNL     1      35.143   6.050  48.133  1.00  0.00    -0.217 NA
HETATM    9  C7  UNL     1      35.385   7.351  48.367  1.00  0.00     0.236 A 
HETATM   10  N2  UNL     1      34.311   8.106  48.632  1.00  0.00    -0.241 NA
HETATM   11  C8  UNL     1      33.096   7.586  48.658  1.00  0.00     0.073 A 
HETATM   12  C9  UNL     1      31.980   8.390  48.916  1.00  0.00     0.039 A 
HETATM   13  C10 UNL     1      30.654   7.946  48.948  1.00  0.00    -0.056 A 
HETATM   14  C11 UNL     1      30.446   6.608  48.708  1.00  0.00     0.008 A 
HETATM   15  C12 UNL     1      31.538   5.816  48.455  1.00  0.00     0.019 A 
HETATM   16  C13 UNL     1      32.841   6.256  48.421  1.00  0.00     0.046 A 
HETATM   17  C14 UNL     1      29.686   9.064  49.195  1.00  0.00     0.040 C 
HETATM   18  C15 UNL     1      29.916  10.129  48.109  1.00  0.00     0.024 C 
HETATM   19  C16 UNL     1      29.644   9.395  46.808  1.00  0.00     0.123 C 
HETATM   20  N3  UNL     1      30.055  10.148  45.650  1.00  0.00    -0.382 N 
HETATM   21  C17 UNL     1      30.152  11.524  45.214  1.00  0.00     0.123 C 
HETATM   22  C18 UNL     1      29.531  11.444  43.825  1.00  0.00     0.026 C 
HETATM   23  C19 UNL     1      30.079  10.101  43.316  1.00  0.00     0.061 C 
HETATM   24  C20 UNL     1      30.534   9.403  44.537  1.00  0.00     0.043 C 
HETATM   25  C21 UNL     1      31.218   8.345  44.777  1.00  0.00     0.130 A 
HETATM   26  F1  UNL     1      31.686   7.628  45.801  1.00  0.00    -0.335 F 
HETATM   27  C22 UNL     1      31.938   7.222  44.258  1.00  0.00     0.489 A 
HETATM   28  N4  UNL     1      32.472   6.395  43.483  1.00  0.00    -0.384 NA
ENDROOT
TORSDOF 0
ENDMDL
