MODEL 1
REMARK VINA RESULT:      -6.3      0.000      0.000
REMARK  7 active torsions:
REMARK  status: ('A' for Active; 'I' for Inactive)
REMARK    1  A    between atoms: C1_2  and  N1_3 
REMARK    2  A    between atoms: C1_2  and  N3_12 
REMARK    3  A    between atoms: N1_3  and  C2_4 
REMARK    4  A    between atoms: C2_4  and  C3_5 
REMARK    5  A    between atoms: C3_5  and  N2_6 
REMARK    6  A    between atoms: N3_12  and  C8_13 
REMARK    7  A    between atoms: C11_16  and  N4_17 
ROOT
HETATM    1  S1  UNL     1      21.931   1.836  52.351  1.00  0.00    -0.041 SA
HETATM    2  C1  UNL     1      23.333   1.641  51.542  1.00  0.00     0.172 C 
ENDROOT
BRANCH   2   3
HETATM    3  N1  UNL     1      23.688   0.673  52.498  1.00  0.00    -0.365 N 
HETATM    4  H1  UNL     1      22.748   0.240  52.414  1.00  0.00     0.161 HD
BRANCH   3   5
HETATM    5  C2  UNL     1      24.511  -0.022  53.446  1.00  0.00     0.141 C 
BRANCH   5   6
HETATM    6  C3  UNL     1      25.886  -0.137  52.793  1.00  0.00     0.136 C 
BRANCH   6   7
HETATM    7  N2  UNL     1      26.916   0.563  53.464  1.00  0.00    -0.407 N 
HETATM    8  C4  UNL     1      28.187  -0.078  53.558  1.00  0.00     0.143 C 
HETATM    9  C5  UNL     1      28.817   0.484  54.843  1.00  0.00     0.187 C 
HETATM   10  O1  UNL     1      28.948   1.851  54.705  1.00  0.00    -0.388 OA
HETATM   11  C6  UNL     1      28.498   2.371  53.519  1.00  0.00     0.187 C 
HETATM   12  C7  UNL     1      27.090   1.939  53.142  1.00  0.00     0.143 C 
ENDBRANCH   6   7
ENDBRANCH   5   6
ENDBRANCH   3   5
ENDBRANCH   2   3
BRANCH   2  13
HETATM   13  N3  UNL     1      23.691   2.348  50.379  1.00  0.00    -0.333 N 
HETATM   14  H14 UNL     1      23.028   2.021  49.662  1.00  0.00     0.168 HD
BRANCH  13  15
HETATM   15  C8  UNL     1      24.658   3.296  50.041  1.00  0.00     0.034 A 
HETATM   16  C9  UNL     1      24.297   4.612  50.129  1.00  0.00     0.032 A 
HETATM   17  C10 UNL     1      25.099   5.690  49.839  1.00  0.00     0.032 A 
HETATM   18  C11 UNL     1      26.377   5.384  49.426  1.00  0.00     0.038 A 
HETATM   19  C12 UNL     1      26.852   4.097  49.302  1.00  0.00     0.032 A 
HETATM   20  C13 UNL     1      25.954   3.118  49.620  1.00  0.00     0.032 A 
BRANCH  18  21
HETATM   21  N4  UNL     1      27.241   6.466  49.119  1.00  0.00    -0.323 N 
HETATM   22 BR1  UNL     1      28.808   6.277  48.058  1.00  0.00     0.047 Br
HETATM   23  H17 UNL     1      27.080   7.443  49.448  1.00  0.00     0.174 HD
ENDBRANCH  18  21
ENDBRANCH  13  15
ENDBRANCH   2  13
TORSDOF 7
ENDMDL
MODEL 2
REMARK VINA RESULT:      -6.2      3.775      5.772
REMARK  7 active torsions:
REMARK  status: ('A' for Active; 'I' for Inactive)
REMARK    1  A    between atoms: C1_2  and  N1_3 
REMARK    2  A    between atoms: C1_2  and  N3_12 
REMARK    3  A    between atoms: N1_3  and  C2_4 
REMARK    4  A    between atoms: C2_4  and  C3_5 
REMARK    5  A    between atoms: C3_5  and  N2_6 
REMARK    6  A    between atoms: N3_12  and  C8_13 
REMARK    7  A    between atoms: C11_16  and  N4_17 
ROOT
HETATM    1  S1  UNL     1      22.798   5.126  51.742  1.00  0.00    -0.041 SA
HETATM    2  C1  UNL     1      23.445   3.638  51.910  1.00  0.00     0.172 C 
ENDROOT
BRANCH   2   3
HETATM    3  N1  UNL     1      22.239   3.116  51.411  1.00  0.00    -0.365 N 
HETATM    4  H1  UNL     1      21.994   4.045  51.018  1.00  0.00     0.161 HD
BRANCH   3   5
HETATM    5  C2  UNL     1      21.222   2.140  51.140  1.00  0.00     0.141 C 
BRANCH   5   6
HETATM    6  C3  UNL     1      21.902   0.781  51.299  1.00  0.00     0.136 C 
BRANCH   6   7
HETATM    7  N2  UNL     1      21.645   0.138  52.532  1.00  0.00    -0.407 N 
HETATM    8  C4  UNL     1      22.769  -0.159  53.359  1.00  0.00     0.143 C 
HETATM    9  C5  UNL     1      22.344  -1.394  54.171  1.00  0.00     0.187 C 
HETATM   10  O1  UNL     1      21.235  -1.065  54.922  1.00  0.00    -0.388 OA
HETATM   11  C6  UNL     1      20.780   0.220  54.772  1.00  0.00     0.187 C 
HETATM   12  C7  UNL     1      20.579   0.646  53.327  1.00  0.00     0.143 C 
ENDBRANCH   6   7
ENDBRANCH   5   6
ENDBRANCH   3   5
ENDBRANCH   2   3
BRANCH   2  13
HETATM   13  N3  UNL     1      24.738   3.379  52.399  1.00  0.00    -0.333 N 
HETATM   14  H14 UNL     1      25.119   4.307  52.631  1.00  0.00     0.168 HD
BRANCH  13  15
HETATM   15  C8  UNL     1      25.521   2.242  52.607  1.00  0.00     0.034 A 
HETATM   16  C9  UNL     1      26.018   2.049  53.867  1.00  0.00     0.032 A 
HETATM   17  C10 UNL     1      26.806   0.999  54.271  1.00  0.00     0.032 A 
HETATM   18  C11 UNL     1      27.107   0.073  53.297  1.00  0.00     0.038 A 
HETATM   19  C12 UNL     1      26.664   0.162  51.996  1.00  0.00     0.032 A 
HETATM   20  C13 UNL     1      25.888   1.254  51.725  1.00  0.00     0.032 A 
BRANCH  18  21
HETATM   21  N4  UNL     1      27.918  -1.029  53.671  1.00  0.00    -0.323 N 
HETATM   22 BR1  UNL     1      29.818  -0.986  53.620  1.00  0.00     0.047 Br
HETATM   23  H17 UNL     1      27.533  -1.940  54.002  1.00  0.00     0.174 HD
ENDBRANCH  18  21
ENDBRANCH  13  15
ENDBRANCH   2  13
TORSDOF 7
ENDMDL
MODEL 3
REMARK VINA RESULT:      -6.1      4.681      6.633
REMARK  7 active torsions:
REMARK  status: ('A' for Active; 'I' for Inactive)
REMARK    1  A    between atoms: C1_2  and  N1_3 
REMARK    2  A    between atoms: C1_2  and  N3_12 
REMARK    3  A    between atoms: N1_3  and  C2_4 
REMARK    4  A    between atoms: C2_4  and  C3_5 
REMARK    5  A    between atoms: C3_5  and  N2_6 
REMARK    6  A    between atoms: N3_12  and  C8_13 
REMARK    7  A    between atoms: C11_16  and  N4_17 
ROOT
HETATM    1  S1  UNL     1      22.887   3.537  51.383  1.00  0.00    -0.041 SA
HETATM    2  C1  UNL     1      22.910   1.915  51.214  1.00  0.00     0.172 C 
ENDROOT
BRANCH   2   3
HETATM    3  N1  UNL     1      24.304   1.971  51.384  1.00  0.00    -0.365 N 
HETATM    4  H1  UNL     1      24.407   1.076  50.868  1.00  0.00     0.161 HD
BRANCH   3   5
HETATM    5  C2  UNL     1      25.573   2.487  51.811  1.00  0.00     0.141 C 
BRANCH   5   6
HETATM    6  C3  UNL     1      26.576   1.358  51.588  1.00  0.00     0.136 C 
BRANCH   6   7
HETATM    7  N2  UNL     1      27.093   0.789  52.774  1.00  0.00    -0.407 N 
HETATM    8  C4  UNL     1      28.025   1.571  53.521  1.00  0.00     0.143 C 
HETATM    9  C5  UNL     1      28.907   0.542  54.248  1.00  0.00     0.187 C 
HETATM   10  O1  UNL     1      28.104  -0.216  55.076  1.00  0.00    -0.388 OA
HETATM   11  C6  UNL     1      26.769   0.096  55.052  1.00  0.00     0.187 C 
HETATM   12  C7  UNL     1      26.168   0.163  53.658  1.00  0.00     0.143 C 
ENDBRANCH   6   7
ENDBRANCH   5   6
ENDBRANCH   3   5
ENDBRANCH   2   3
BRANCH   2  13
HETATM   13  N3  UNL     1      21.772   1.118  50.995  1.00  0.00    -0.333 N 
HETATM   14  H14 UNL     1      21.660   1.099  49.972  1.00  0.00     0.168 HD
BRANCH  13  15
HETATM   15  C8  UNL     1      20.864   0.426  51.799  1.00  0.00     0.034 A 
HETATM   16  C9  UNL     1      19.574   0.342  51.352  1.00  0.00     0.032 A 
HETATM   17  C10 UNL     1      18.537  -0.290  51.995  1.00  0.00     0.032 A 
HETATM   18  C11 UNL     1      18.857  -0.883  53.196  1.00  0.00     0.038 A 
HETATM   19  C12 UNL     1      20.120  -0.864  53.745  1.00  0.00     0.032 A 
HETATM   20  C13 UNL     1      21.060  -0.203  53.005  1.00  0.00     0.032 A 
BRANCH  18  21
HETATM   21  N4  UNL     1      17.816  -1.549  53.893  1.00  0.00    -0.323 N 
HETATM   22 BR1  UNL     1      17.317  -3.350  53.543  1.00  0.00     0.047 Br
HETATM   23  H17 UNL     1      17.252  -1.103  54.648  1.00  0.00     0.174 HD
ENDBRANCH  18  21
ENDBRANCH  13  15
ENDBRANCH   2  13
TORSDOF 7
ENDMDL
MODEL 4
REMARK VINA RESULT:      -6.0      1.472      2.025
REMARK  7 active torsions:
REMARK  status: ('A' for Active; 'I' for Inactive)
REMARK    1  A    between atoms: C1_2  and  N1_3 
REMARK    2  A    between atoms: C1_2  and  N3_12 
REMARK    3  A    between atoms: N1_3  and  C2_4 
REMARK    4  A    between atoms: C2_4  and  C3_5 
REMARK    5  A    between atoms: C3_5  and  N2_6 
REMARK    6  A    between atoms: N3_12  and  C8_13 
REMARK    7  A    between atoms: C11_16  and  N4_17 
ROOT
HETATM    1  S1  UNL     1      21.146   3.199  51.841  1.00  0.00    -0.041 SA
HETATM    2  C1  UNL     1      22.573   2.930  51.099  1.00  0.00     0.172 C 
ENDROOT
BRANCH   2   3
HETATM    3  N1  UNL     1      22.764   1.848  51.976  1.00  0.00    -0.365 N 
HETATM    4  H1  UNL     1      21.768   1.900  52.263  1.00  0.00     0.161 HD
BRANCH   3   5
HETATM    5  C2  UNL     1      23.461   0.795  52.658  1.00  0.00     0.141 C 
BRANCH   5   6
HETATM    6  C3  UNL     1      24.799   1.393  53.085  1.00  0.00     0.136 C 
BRANCH   6   7
HETATM    7  N2  UNL     1      25.810   0.441  53.350  1.00  0.00    -0.407 N 
HETATM    8  C4  UNL     1      26.462  -0.149  52.226  1.00  0.00     0.143 C 
HETATM    9  C5  UNL     1      26.911  -1.536  52.715  1.00  0.00     0.187 C 
HETATM   10  O1  UNL     1      27.779  -1.368  53.774  1.00  0.00    -0.388 OA
HETATM   11  C6  UNL     1      28.022  -0.068  54.138  1.00  0.00     0.187 C 
HETATM   12  C7  UNL     1      26.769   0.765  54.352  1.00  0.00     0.143 C 
ENDBRANCH   6   7
ENDBRANCH   5   6
ENDBRANCH   3   5
ENDBRANCH   2   3
BRANCH   2  13
HETATM   13  N3  UNL     1      23.077   3.696  50.032  1.00  0.00    -0.333 N 
HETATM   14  H14 UNL     1      22.259   3.878  49.433  1.00  0.00     0.168 HD
BRANCH  13  15
HETATM   15  C8  UNL     1      24.325   4.202  49.663  1.00  0.00     0.034 A 
HETATM   16  C9  UNL     1      25.407   3.387  49.852  1.00  0.00     0.032 A 
HETATM   17  C10 UNL     1      26.712   3.698  49.557  1.00  0.00     0.032 A 
HETATM   18  C11 UNL     1      26.917   4.951  49.022  1.00  0.00     0.038 A 
HETATM   19  C12 UNL     1      25.906   5.856  48.787  1.00  0.00     0.032 A 
HETATM   20  C13 UNL     1      24.655   5.422  49.125  1.00  0.00     0.032 A 
BRANCH  18  21
HETATM   21  N4  UNL     1      28.250   5.314  48.700  1.00  0.00    -0.323 N 
HETATM   22 BR1  UNL     1      28.700   6.930  47.804  1.00  0.00     0.047 Br
HETATM   23  H17 UNL     1      29.079   4.725  48.932  1.00  0.00     0.174 HD
ENDBRANCH  18  21
ENDBRANCH  13  15
ENDBRANCH   2  13
TORSDOF 7
ENDMDL
MODEL 5
REMARK VINA RESULT:      -6.0      4.086      6.050
REMARK  7 active torsions:
REMARK  status: ('A' for Active; 'I' for Inactive)
REMARK    1  A    between atoms: C1_2  and  N1_3 
REMARK    2  A    between atoms: C1_2  and  N3_12 
REMARK    3  A    between atoms: N1_3  and  C2_4 
REMARK    4  A    between atoms: C2_4  and  C3_5 
REMARK    5  A    between atoms: C3_5  and  N2_6 
REMARK    6  A    between atoms: N3_12  and  C8_13 
REMARK    7  A    between atoms: C11_16  and  N4_17 
ROOT
HETATM    1  S1  UNL     1      24.129   3.613  49.924  1.00  0.00    -0.041 SA
HETATM    2  C1  UNL     1      24.017   3.061  51.455  1.00  0.00     0.172 C 
ENDROOT
BRANCH   2   3
HETATM    3  N1  UNL     1      25.422   3.067  51.503  1.00  0.00    -0.365 N 
HETATM    4  H1  UNL     1      25.423   4.105  51.478  1.00  0.00     0.161 HD
BRANCH   3   5
HETATM    5  C2  UNL     1      26.753   2.535  51.564  1.00  0.00     0.141 C 
BRANCH   5   6
HETATM    6  C3  UNL     1      26.898   1.944  52.964  1.00  0.00     0.136 C 
BRANCH   6   7
HETATM    7  N2  UNL     1      27.463   0.648  52.998  1.00  0.00    -0.407 N 
HETATM    8  C4  UNL     1      27.968   0.189  54.252  1.00  0.00     0.143 C 
HETATM    9  C5  UNL     1      29.083  -0.804  53.886  1.00  0.00     0.187 C 
HETATM   10  O1  UNL     1      28.530  -1.836  53.155  1.00  0.00    -0.388 OA
HETATM   11  C6  UNL     1      27.182  -1.737  52.922  1.00  0.00     0.187 C 
HETATM   12  C7  UNL     1      26.743  -0.398  52.354  1.00  0.00     0.143 C 
ENDBRANCH   6   7
ENDBRANCH   5   6
ENDBRANCH   3   5
ENDBRANCH   2   3
BRANCH   2  13
HETATM   13  N3  UNL     1      22.807   2.801  52.125  1.00  0.00    -0.333 N 
HETATM   14  H14 UNL     1      22.355   3.723  52.212  1.00  0.00     0.168 HD
BRANCH  13  15
HETATM   15  C8  UNL     1      22.170   1.671  52.638  1.00  0.00     0.034 A 
HETATM   16  C9  UNL     1      20.811   1.604  52.498  1.00  0.00     0.032 A 
HETATM   17  C10 UNL     1      20.003   0.582  52.935  1.00  0.00     0.032 A 
HETATM   18  C11 UNL     1      20.651  -0.456  53.568  1.00  0.00     0.038 A 
HETATM   19  C12 UNL     1      22.013  -0.499  53.766  1.00  0.00     0.032 A 
HETATM   20  C13 UNL     1      22.700   0.580  53.284  1.00  0.00     0.032 A 
BRANCH  18  21
HETATM   21  N4  UNL     1      19.856  -1.534  54.034  1.00  0.00    -0.323 N 
HETATM   22 BR1  UNL     1      18.053  -1.806  53.495  1.00  0.00     0.047 Br
HETATM   23  H17 UNL     1      20.201  -2.256  54.703  1.00  0.00     0.174 HD
ENDBRANCH  18  21
ENDBRANCH  13  15
ENDBRANCH   2  13
TORSDOF 7
ENDMDL
MODEL 6
REMARK VINA RESULT:      -5.8      3.030      4.012
REMARK  7 active torsions:
REMARK  status: ('A' for Active; 'I' for Inactive)
REMARK    1  A    between atoms: C1_2  and  N1_3 
REMARK    2  A    between atoms: C1_2  and  N3_12 
REMARK    3  A    between atoms: N1_3  and  C2_4 
REMARK    4  A    between atoms: C2_4  and  C3_5 
REMARK    5  A    between atoms: C3_5  and  N2_6 
REMARK    6  A    between atoms: N3_12  and  C8_13 
REMARK    7  A    between atoms: C11_16  and  N4_17 
ROOT
HETATM    1  S1  UNL     1      25.052   5.149  49.813  1.00  0.00    -0.041 SA
HETATM    2  C1  UNL     1      26.490   4.385  49.740  1.00  0.00     0.172 C 
ENDROOT
BRANCH   2   3
HETATM    3  N1  UNL     1      26.129   3.707  50.918  1.00  0.00    -0.365 N 
HETATM    4  H1  UNL     1      26.330   4.560  51.475  1.00  0.00     0.161 HD
BRANCH   3   5
HETATM    5  C2  UNL     1      25.681   2.624  51.746  1.00  0.00     0.141 C 
BRANCH   5   6
HETATM    6  C3  UNL     1      26.676   1.489  51.516  1.00  0.00     0.136 C 
BRANCH   6   7
HETATM    7  N2  UNL     1      27.110   0.841  52.695  1.00  0.00    -0.407 N 
HETATM    8  C4  UNL     1      28.166   1.460  53.429  1.00  0.00     0.143 C 
HETATM    9  C5  UNL     1      28.880   0.300  54.144  1.00  0.00     0.187 C 
HETATM   10  O1  UNL     1      27.976  -0.320  54.983  1.00  0.00    -0.388 OA
HETATM   11  C6  UNL     1      26.709   0.205  54.978  1.00  0.00     0.187 C 
HETATM   12  C7  UNL     1      26.108   0.372  53.592  1.00  0.00     0.143 C 
ENDBRANCH   6   7
ENDBRANCH   5   6
ENDBRANCH   3   5
ENDBRANCH   2   3
BRANCH   2  13
HETATM   13  N3  UNL     1      27.454   4.588  48.736  1.00  0.00    -0.333 N 
HETATM   14  H14 UNL     1      27.563   3.666  48.290  1.00  0.00     0.168 HD
BRANCH  13  15
HETATM   15  C8  UNL     1      28.209   5.669  48.276  1.00  0.00     0.034 A 
HETATM   16  C9  UNL     1      29.556   5.474  48.139  1.00  0.00     0.032 A 
HETATM   17  C10 UNL     1      30.466   6.408  47.706  1.00  0.00     0.032 A 
HETATM   18  C11 UNL     1      29.944   7.642  47.388  1.00  0.00     0.038 A 
HETATM   19  C12 UNL     1      28.606   7.953  47.485  1.00  0.00     0.032 A 
HETATM   20  C13 UNL     1      27.808   6.936  47.929  1.00  0.00     0.032 A 
BRANCH  18  21
HETATM   21  N4  UNL     1      30.848   8.637  46.934  1.00  0.00    -0.323 N 
HETATM   22 BR1  UNL     1      32.695   8.647  47.387  1.00  0.00     0.047 Br
HETATM   23  H17 UNL     1      30.569   9.431  46.319  1.00  0.00     0.174 HD
ENDBRANCH  18  21
ENDBRANCH  13  15
ENDBRANCH   2  13
TORSDOF 7
ENDMDL
MODEL 7
REMARK VINA RESULT:      -5.7      1.789      2.542
REMARK  7 active torsions:
REMARK  status: ('A' for Active; 'I' for Inactive)
REMARK    1  A    between atoms: C1_2  and  N1_3 
REMARK    2  A    between atoms: C1_2  and  N3_12 
REMARK    3  A    between atoms: N1_3  and  C2_4 
REMARK    4  A    between atoms: C2_4  and  C3_5 
REMARK    5  A    between atoms: C3_5  and  N2_6 
REMARK    6  A    between atoms: N3_12  and  C8_13 
REMARK    7  A    between atoms: C11_16  and  N4_17 
ROOT
HETATM    1  S1  UNL     1      22.938   2.504  49.683  1.00  0.00    -0.041 SA
HETATM    2  C1  UNL     1      24.122   3.546  50.096  1.00  0.00     0.172 C 
ENDROOT
BRANCH   2   3
HETATM    3  N1  UNL     1      24.378   2.729  51.211  1.00  0.00    -0.365 N 
HETATM    4  H1  UNL     1      23.623   2.081  50.916  1.00  0.00     0.161 HD
BRANCH   3   5
HETATM    5  C2  UNL     1      25.014   2.290  52.421  1.00  0.00     0.141 C 
BRANCH   5   6
HETATM    6  C3  UNL     1      26.493   2.135  52.077  1.00  0.00     0.136 C 
BRANCH   6   7
HETATM    7  N2  UNL     1      27.197   1.232  52.907  1.00  0.00    -0.407 N 
HETATM    8  C4  UNL     1      28.444   1.673  53.441  1.00  0.00     0.143 C 
HETATM    9  C5  UNL     1      29.263   0.387  53.642  1.00  0.00     0.187 C 
HETATM   10  O1  UNL     1      28.590  -0.427  54.531  1.00  0.00    -0.388 OA
HETATM   11  C6  UNL     1      27.400   0.067  54.999  1.00  0.00     0.187 C 
HETATM   12  C7  UNL     1      26.454   0.550  53.912  1.00  0.00     0.143 C 
ENDBRANCH   6   7
ENDBRANCH   5   6
ENDBRANCH   3   5
ENDBRANCH   2   3
BRANCH   2  13
HETATM   13  N3  UNL     1      24.460   4.701  49.368  1.00  0.00    -0.333 N 
HETATM   14  H14 UNL     1      23.556   5.136  49.135  1.00  0.00     0.168 HD
BRANCH  13  15
HETATM   15  C8  UNL     1      25.644   5.308  48.945  1.00  0.00     0.034 A 
HETATM   16  C9  UNL     1      26.780   4.547  48.976  1.00  0.00     0.032 A 
HETATM   17  C10 UNL     1      28.038   4.957  48.605  1.00  0.00     0.032 A 
HETATM   18  C11 UNL     1      28.130   6.259  48.165  1.00  0.00     0.038 A 
HETATM   19  C12 UNL     1      27.057   7.118  48.089  1.00  0.00     0.032 A 
HETATM   20  C13 UNL     1      25.863   6.585  48.488  1.00  0.00     0.032 A 
BRANCH  18  21
HETATM   21  N4  UNL     1      29.410   6.725  47.769  1.00  0.00    -0.323 N 
HETATM   22 BR1  UNL     1      30.990   5.676  47.915  1.00  0.00     0.047 Br
HETATM   23  H17 UNL     1      29.579   7.673  47.368  1.00  0.00     0.174 HD
ENDBRANCH  18  21
ENDBRANCH  13  15
ENDBRANCH   2  13
TORSDOF 7
ENDMDL
MODEL 8
REMARK VINA RESULT:      -5.7      3.928      7.189
REMARK  7 active torsions:
REMARK  status: ('A' for Active; 'I' for Inactive)
REMARK    1  A    between atoms: C1_2  and  N1_3 
REMARK    2  A    between atoms: C1_2  and  N3_12 
REMARK    3  A    between atoms: N1_3  and  C2_4 
REMARK    4  A    between atoms: C2_4  and  C3_5 
REMARK    5  A    between atoms: C3_5  and  N2_6 
REMARK    6  A    between atoms: N3_12  and  C8_13 
REMARK    7  A    between atoms: C11_16  and  N4_17 
ROOT
HETATM    1  S1  UNL     1      24.579   4.022  49.294  1.00  0.00    -0.041 SA
HETATM    2  C1  UNL     1      25.710   3.922  50.464  1.00  0.00     0.172 C 
ENDROOT
BRANCH   2   3
HETATM    3  N1  UNL     1      26.488   4.823  49.716  1.00  0.00    -0.365 N 
HETATM    4  H1  UNL     1      26.383   5.538  50.461  1.00  0.00     0.161 HD
BRANCH   3   5
HETATM    5  C2  UNL     1      27.281   5.306  48.621  1.00  0.00     0.141 C 
BRANCH   5   6
HETATM    6  C3  UNL     1      26.905   6.777  48.457  1.00  0.00     0.136 C 
BRANCH   6   7
HETATM    7  N2  UNL     1      27.910   7.688  48.856  1.00  0.00    -0.407 N 
HETATM    8  C4  UNL     1      28.939   7.979  47.912  1.00  0.00     0.143 C 
HETATM    9  C5  UNL     1      30.165   8.343  48.766  1.00  0.00     0.187 C 
HETATM   10  O1  UNL     1      29.853   9.447  49.533  1.00  0.00    -0.388 OA
HETATM   11  C6  UNL     1      28.582   9.935  49.376  1.00  0.00     0.187 C 
HETATM   12  C7  UNL     1      27.490   8.886  49.501  1.00  0.00     0.143 C 
ENDBRANCH   6   7
ENDBRANCH   5   6
ENDBRANCH   3   5
ENDBRANCH   2   3
BRANCH   2  13
HETATM   13  N3  UNL     1      25.594   3.133  51.623  1.00  0.00    -0.333 N 
HETATM   14  H14 UNL     1      24.743   3.479  52.089  1.00  0.00     0.168 HD
BRANCH  13  15
HETATM   15  C8  UNL     1      26.321   2.092  52.204  1.00  0.00     0.034 A 
HETATM   16  C9  UNL     1      25.892   0.817  51.955  1.00  0.00     0.032 A 
HETATM   17  C10 UNL     1      26.466  -0.335  52.433  1.00  0.00     0.032 A 
HETATM   18  C11 UNL     1      27.574  -0.158  53.233  1.00  0.00     0.038 A 
HETATM   19  C12 UNL     1      28.096   1.075  53.551  1.00  0.00     0.032 A 
HETATM   20  C13 UNL     1      27.431   2.140  53.012  1.00  0.00     0.032 A 
BRANCH  18  21
HETATM   21  N4  UNL     1      28.200  -1.322  53.747  1.00  0.00    -0.323 N 
HETATM   22 BR1  UNL     1      30.084  -1.586  53.722  1.00  0.00     0.047 Br
HETATM   23  H17 UNL     1      27.678  -2.115  54.177  1.00  0.00     0.174 HD
ENDBRANCH  18  21
ENDBRANCH  13  15
ENDBRANCH   2  13
TORSDOF 7
ENDMDL
MODEL 9
REMARK VINA RESULT:      -5.6      3.705      6.466
REMARK  7 active torsions:
REMARK  status: ('A' for Active; 'I' for Inactive)
REMARK    1  A    between atoms: C1_2  and  N1_3 
REMARK    2  A    between atoms: C1_2  and  N3_12 
REMARK    3  A    between atoms: N1_3  and  C2_4 
REMARK    4  A    between atoms: C2_4  and  C3_5 
REMARK    5  A    between atoms: C3_5  and  N2_6 
REMARK    6  A    between atoms: N3_12  and  C8_13 
REMARK    7  A    between atoms: C11_16  and  N4_17 
ROOT
HETATM    1  S1  UNL     1      24.337   5.342  50.141  1.00  0.00    -0.041 SA
HETATM    2  C1  UNL     1      24.514   3.800  50.643  1.00  0.00     0.172 C 
ENDROOT
BRANCH   2   3
HETATM    3  N1  UNL     1      23.558   3.434  49.680  1.00  0.00    -0.365 N 
HETATM    4  H1  UNL     1      23.124   4.375  49.746  1.00  0.00     0.161 HD
BRANCH   3   5
HETATM    5  C2  UNL     1      22.876   2.600  48.731  1.00  0.00     0.141 C 
BRANCH   5   6
HETATM    6  C3  UNL     1      22.089   1.589  49.561  1.00  0.00     0.136 C 
BRANCH   6   7
HETATM    7  N2  UNL     1      21.435   2.137  50.689  1.00  0.00    -0.407 N 
HETATM    8  C4  UNL     1      20.121   2.656  50.493  1.00  0.00     0.143 C 
HETATM    9  C5  UNL     1      19.968   3.752  51.560  1.00  0.00     0.187 C 
HETATM   10  O1  UNL     1      20.104   3.174  52.806  1.00  0.00    -0.388 OA
HETATM   11  C6  UNL     1      20.345   1.824  52.807  1.00  0.00     0.187 C 
HETATM   12  C7  UNL     1      21.487   1.392  51.902  1.00  0.00     0.143 C 
ENDBRANCH   6   7
ENDBRANCH   5   6
ENDBRANCH   3   5
ENDBRANCH   2   3
BRANCH   2  13
HETATM   13  N3  UNL     1      25.385   3.388  51.668  1.00  0.00    -0.333 N 
HETATM   14  H14 UNL     1      25.626   4.254  52.169  1.00  0.00     0.168 HD
BRANCH  13  15
HETATM   15  C8  UNL     1      25.929   2.174  52.092  1.00  0.00     0.034 A 
HETATM   16  C9  UNL     1      27.238   2.181  52.488  1.00  0.00     0.032 A 
HETATM   17  C10 UNL     1      27.953   1.097  52.934  1.00  0.00     0.032 A 
HETATM   18  C11 UNL     1      27.260  -0.093  52.977  1.00  0.00     0.038 A 
HETATM   19  C12 UNL     1      25.940  -0.222  52.605  1.00  0.00     0.032 A 
HETATM   20  C13 UNL     1      25.345   0.932  52.180  1.00  0.00     0.032 A 
BRANCH  18  21
HETATM   21  N4  UNL     1      27.958  -1.240  53.434  1.00  0.00    -0.323 N 
HETATM   22 BR1  UNL     1      29.845  -1.284  53.666  1.00  0.00     0.047 Br
HETATM   23  H17 UNL     1      27.491  -2.140  53.678  1.00  0.00     0.174 HD
ENDBRANCH  18  21
ENDBRANCH  13  15
ENDBRANCH   2  13
TORSDOF 7
ENDMDL
