MODEL 1
REMARK VINA RESULT:      -7.0      0.000      0.000
REMARK  9 active torsions:
REMARK  status: ('A' for Active; 'I' for Inactive)
REMARK    1  A    between atoms: O1_1  and  C1_2 
REMARK    2  A    between atoms: C6_7  and  N1_8 
REMARK    3  A    between atoms: N1_8  and  C7_9 
REMARK    4  A    between atoms: C7_9  and  C8_10 
REMARK    5  A    between atoms: C11_13  and  N2_14 
REMARK    6  A    between atoms: N2_14  and  C12_15 
REMARK    7  A    between atoms: N2_14  and  C14_18 
REMARK    8  A    between atoms: C12_15  and  C13_16 
REMARK    9  A    between atoms: C14_18  and  C15_19 
ROOT
HETATM    1  C8  UNL     1      23.567  -0.735  54.196  1.00  0.00    -0.040 A 
HETATM    2  C9  UNL     1      22.383  -1.129  54.880  1.00  0.00     0.011 A 
HETATM    3  C10 UNL     1      21.072  -0.997  54.364  1.00  0.00     0.030 A 
HETATM    4  C11 UNL     1      20.888  -0.440  53.075  1.00  0.00     0.030 A 
HETATM    5  C16 UNL     1      21.999  -0.012  52.298  1.00  0.00     0.030 A 
HETATM    6  C17 UNL     1      23.082  -0.254  53.027  1.00  0.00     0.011 A 
ENDROOT
BRANCH   1   7
HETATM    7  C7  UNL     1      24.912  -0.816  54.729  1.00  0.00     0.158 C 
BRANCH   7   8
HETATM    8  N1  UNL     1      25.992  -1.062  53.803  1.00  0.00    -0.383 N 
HETATM    9  H6  UNL     1      25.657  -1.887  53.280  1.00  0.00     0.160 HD
BRANCH   8  10
HETATM   10  C6  UNL     1      27.080  -0.128  53.933  1.00  0.00     0.061 A 
HETATM   11  C1  UNL     1      28.035   0.689  54.046  1.00  0.00     0.091 A 
HETATM   12  C2  UNL     1      29.298   0.944  53.965  1.00  0.00     0.039 A 
HETATM   13  C3  UNL     1      30.142  -0.087  53.569  1.00  0.00     0.003 A 
HETATM   14  C4  UNL     1      29.421  -1.280  53.321  1.00  0.00     0.002 A 
HETATM   15  C5  UNL     1      28.000  -1.259  53.502  1.00  0.00     0.032 A 
BRANCH  11  16
HETATM   16  O1  UNL     1      27.107   1.700  54.439  1.00  0.00    -0.358 OA
HETATM   17  H1  UNL     1      26.168   1.404  54.620  1.00  0.00     0.217 HD
ENDBRANCH  11  16
ENDBRANCH   8  10
ENDBRANCH   7   8
ENDBRANCH   1   7
BRANCH   4  18
HETATM   18  N2  UNL     1      19.569  -0.276  52.570  1.00  0.00    -0.379 N 
BRANCH  18  19
HETATM   19  C12 UNL     1      19.141   0.237  51.293  1.00  0.00     0.138 C 
BRANCH  19  20
HETATM   20  C13 UNL     1      18.594   1.629  51.318  1.00  0.00     0.134 C 
HETATM   21 CL1  UNL     1      19.662   2.764  52.149  1.00  0.00    -0.129 Cl
ENDBRANCH  19  20
ENDBRANCH  18  19
BRANCH  18  22
HETATM   22  C14 UNL     1      18.460  -0.634  53.415  1.00  0.00     0.138 C 
BRANCH  22  23
HETATM   23  C15 UNL     1      17.503  -1.642  52.922  1.00  0.00     0.134 C 
HETATM   24 CL2  UNL     1      17.563  -3.252  53.581  1.00  0.00    -0.129 Cl
ENDBRANCH  22  23
ENDBRANCH  18  22
ENDBRANCH   4  18
TORSDOF 9
ENDMDL
MODEL 2
REMARK VINA RESULT:      -6.9      2.294      3.442
REMARK  9 active torsions:
REMARK  status: ('A' for Active; 'I' for Inactive)
REMARK    1  A    between atoms: O1_1  and  C1_2 
REMARK    2  A    between atoms: C6_7  and  N1_8 
REMARK    3  A    between atoms: N1_8  and  C7_9 
REMARK    4  A    between atoms: C7_9  and  C8_10 
REMARK    5  A    between atoms: C11_13  and  N2_14 
REMARK    6  A    between atoms: N2_14  and  C12_15 
REMARK    7  A    between atoms: N2_14  and  C14_18 
REMARK    8  A    between atoms: C12_15  and  C13_16 
REMARK    9  A    between atoms: C14_18  and  C15_19 
ROOT
HETATM    1  C8  UNL     1      24.644   2.022  53.083  1.00  0.00    -0.040 A 
HETATM    2  C9  UNL     1      23.889   0.820  52.998  1.00  0.00     0.011 A 
HETATM    3  C10 UNL     1      22.604   0.714  52.415  1.00  0.00     0.030 A 
HETATM    4  C11 UNL     1      21.997   1.868  51.862  1.00  0.00     0.030 A 
HETATM    5  C16 UNL     1      22.660   3.126  51.888  1.00  0.00     0.030 A 
HETATM    6  C17 UNL     1      23.827   2.923  52.488  1.00  0.00     0.011 A 
ENDROOT
BRANCH   1   7
HETATM    7  C7  UNL     1      25.938   2.159  53.722  1.00  0.00     0.158 C 
BRANCH   7   8
HETATM    8  N1  UNL     1      26.376   1.095  54.593  1.00  0.00    -0.383 N 
HETATM    9  H6  UNL     1      25.518   0.864  55.117  1.00  0.00     0.160 HD
BRANCH   8  10
HETATM   10  C6  UNL     1      27.767   0.758  54.428  1.00  0.00     0.061 A 
HETATM   11  C1  UNL     1      28.984   0.461  54.282  1.00  0.00     0.091 A 
HETATM   12  C2  UNL     1      29.889  -0.346  53.835  1.00  0.00     0.039 A 
HETATM   13  C3  UNL     1      29.463  -1.485  53.163  1.00  0.00     0.003 A 
HETATM   14  C4  UNL     1      28.051  -1.549  53.094  1.00  0.00     0.002 A 
HETATM   15  C5  UNL     1      27.297  -0.488  53.694  1.00  0.00     0.032 A 
BRANCH  11  16
HETATM   16  O1  UNL     1      29.346   1.654  54.977  1.00  0.00    -0.358 OA
HETATM   17  H1  UNL     1      30.102   1.583  55.630  1.00  0.00     0.217 HD
ENDBRANCH  11  16
ENDBRANCH   8  10
ENDBRANCH   7   8
ENDBRANCH   1   7
BRANCH   4  18
HETATM   18  N2  UNL     1      20.692   1.770  51.306  1.00  0.00    -0.379 N 
BRANCH  18  19
HETATM   19  C12 UNL     1      19.440   1.500  51.966  1.00  0.00     0.138 C 
BRANCH  19  20
HETATM   20  C13 UNL     1      18.975   0.080  51.892  1.00  0.00     0.134 C 
HETATM   21 CL1  UNL     1      19.345  -0.833  53.359  1.00  0.00    -0.129 Cl
ENDBRANCH  19  20
ENDBRANCH  18  19
BRANCH  18  22
HETATM   22  C14 UNL     1      20.539   1.928  49.884  1.00  0.00     0.138 C 
BRANCH  22  23
HETATM   23  C15 UNL     1      21.370   1.095  48.994  1.00  0.00     0.134 C 
HETATM   24 CL2  UNL     1      22.376   1.877  47.808  1.00  0.00    -0.129 Cl
ENDBRANCH  22  23
ENDBRANCH  18  22
ENDBRANCH   4  18
TORSDOF 9
ENDMDL
MODEL 3
REMARK VINA RESULT:      -6.9      7.752      9.979
REMARK  9 active torsions:
REMARK  status: ('A' for Active; 'I' for Inactive)
REMARK    1  A    between atoms: O1_1  and  C1_2 
REMARK    2  A    between atoms: C6_7  and  N1_8 
REMARK    3  A    between atoms: N1_8  and  C7_9 
REMARK    4  A    between atoms: C7_9  and  C8_10 
REMARK    5  A    between atoms: C11_13  and  N2_14 
REMARK    6  A    between atoms: N2_14  and  C12_15 
REMARK    7  A    between atoms: N2_14  and  C14_18 
REMARK    8  A    between atoms: C12_15  and  C13_16 
REMARK    9  A    between atoms: C14_18  and  C15_19 
ROOT
HETATM    1  C8  UNL     1      26.762   4.308  49.297  1.00  0.00    -0.040 A 
HETATM    2  C9  UNL     1      25.860   5.400  49.163  1.00  0.00     0.011 A 
HETATM    3  C10 UNL     1      26.182   6.644  48.571  1.00  0.00     0.030 A 
HETATM    4  C11 UNL     1      27.488   6.851  48.062  1.00  0.00     0.030 A 
HETATM    5  C16 UNL     1      28.473   5.829  48.139  1.00  0.00     0.030 A 
HETATM    6  C17 UNL     1      27.894   4.793  48.735  1.00  0.00     0.011 A 
ENDROOT
BRANCH   1   7
HETATM    7  C7  UNL     1      26.464   3.046  49.946  1.00  0.00     0.158 C 
BRANCH   7   8
HETATM    8  N1  UNL     1      26.194   3.063  51.364  1.00  0.00    -0.383 N 
HETATM    9  H6  UNL     1      25.328   3.621  51.422  1.00  0.00     0.160 HD
BRANCH   8  10
HETATM   10  C6  UNL     1      27.170   2.341  52.139  1.00  0.00     0.061 A 
HETATM   11  C1  UNL     1      28.023   1.706  52.818  1.00  0.00     0.091 A 
HETATM   12  C2  UNL     1      28.452   0.590  53.305  1.00  0.00     0.039 A 
HETATM   13  C3  UNL     1      27.721  -0.560  53.028  1.00  0.00     0.003 A 
HETATM   14  C4  UNL     1      26.590  -0.274  52.228  1.00  0.00     0.002 A 
HETATM   15  C5  UNL     1      26.367   1.086  51.835  1.00  0.00     0.032 A 
BRANCH  11  16
HETATM   16  O1  UNL     1      28.724   2.926  53.055  1.00  0.00    -0.358 OA
HETATM   17  H1  UNL     1      28.543   3.681  52.421  1.00  0.00     0.217 HD
ENDBRANCH  11  16
ENDBRANCH   8  10
ENDBRANCH   7   8
ENDBRANCH   1   7
BRANCH   4  18
HETATM   18  N2  UNL     1      27.822   8.113  47.497  1.00  0.00    -0.379 N 
BRANCH  18  19
HETATM   19  C12 UNL     1      27.914   9.400  48.138  1.00  0.00     0.138 C 
BRANCH  19  20
HETATM   20  C13 UNL     1      28.633   9.406  49.451  1.00  0.00     0.134 C 
HETATM   21 CL1  UNL     1      30.319   8.898  49.304  1.00  0.00    -0.129 Cl
ENDBRANCH  19  20
ENDBRANCH  18  19
BRANCH  18  22
HETATM   22  C14 UNL     1      28.094   8.183  46.086  1.00  0.00     0.138 C 
BRANCH  22  23
HETATM   23  C15 UNL     1      29.440   8.606  45.655  1.00  0.00     0.134 C 
HETATM   24 CL2  UNL     1      30.802   7.591  46.034  1.00  0.00    -0.129 Cl
ENDBRANCH  22  23
ENDBRANCH  18  22
ENDBRANCH   4  18
TORSDOF 9
ENDMDL
MODEL 4
REMARK VINA RESULT:      -6.9      3.842      5.198
REMARK  9 active torsions:
REMARK  status: ('A' for Active; 'I' for Inactive)
REMARK    1  A    between atoms: O1_1  and  C1_2 
REMARK    2  A    between atoms: C6_7  and  N1_8 
REMARK    3  A    between atoms: N1_8  and  C7_9 
REMARK    4  A    between atoms: C7_9  and  C8_10 
REMARK    5  A    between atoms: C11_13  and  N2_14 
REMARK    6  A    between atoms: N2_14  and  C12_15 
REMARK    7  A    between atoms: N2_14  and  C14_18 
REMARK    8  A    between atoms: C12_15  and  C13_16 
REMARK    9  A    between atoms: C14_18  and  C15_19 
ROOT
HETATM    1  C8  UNL     1      23.973   1.194  52.670  1.00  0.00    -0.040 A 
HETATM    2  C9  UNL     1      24.233   2.513  53.137  1.00  0.00     0.011 A 
HETATM    3  C10 UNL     1      24.060   3.689  52.371  1.00  0.00     0.030 A 
HETATM    4  C11 UNL     1      23.593   3.584  51.038  1.00  0.00     0.030 A 
HETATM    5  C16 UNL     1      23.298   2.317  50.464  1.00  0.00     0.030 A 
HETATM    6  C17 UNL     1      23.552   1.412  51.402  1.00  0.00     0.011 A 
ENDROOT
BRANCH   1   7
HETATM    7  C7  UNL     1      24.192  -0.024  53.425  1.00  0.00     0.158 C 
BRANCH   7   8
HETATM    8  N1  UNL     1      25.392  -0.779  53.153  1.00  0.00    -0.383 N 
HETATM    9  H6  UNL     1      25.057  -1.509  52.504  1.00  0.00     0.160 HD
BRANCH   8  10
HETATM   10  C6  UNL     1      26.553  -0.274  53.839  1.00  0.00     0.061 A 
HETATM   11  C1  UNL     1      27.571   0.167  54.439  1.00  0.00     0.091 A 
HETATM   12  C2  UNL     1      28.848   0.140  54.636  1.00  0.00     0.039 A 
HETATM   13  C3  UNL     1      29.597  -0.764  53.892  1.00  0.00     0.003 A 
HETATM   14  C4  UNL     1      28.779  -1.522  53.021  1.00  0.00     0.002 A 
HETATM   15  C5  UNL     1      27.369  -1.265  53.026  1.00  0.00     0.032 A 
BRANCH  11  16
HETATM   16  O1  UNL     1      26.738   1.073  55.161  1.00  0.00    -0.358 OA
HETATM   17  H1  UNL     1      25.754   1.022  54.981  1.00  0.00     0.217 HD
ENDBRANCH  11  16
ENDBRANCH   8  10
ENDBRANCH   7   8
ENDBRANCH   1   7
BRANCH   4  18
HETATM   18  N2  UNL     1      23.451   4.763  50.255  1.00  0.00    -0.379 N 
BRANCH  18  19
HETATM   19  C12 UNL     1      22.506   5.841  50.399  1.00  0.00     0.138 C 
BRANCH  19  20
HETATM   20  C13 UNL     1      21.146   5.435  50.875  1.00  0.00     0.134 C 
HETATM   21 CL1  UNL     1      20.281   4.447  49.694  1.00  0.00    -0.129 Cl
ENDBRANCH  19  20
ENDBRANCH  18  19
BRANCH  18  22
HETATM   22  C14 UNL     1      24.331   4.952  49.133  1.00  0.00     0.138 C 
BRANCH  22  23
HETATM   23  C15 UNL     1      25.776   5.092  49.394  1.00  0.00     0.134 C 
HETATM   24 CL2  UNL     1      26.779   3.669  49.355  1.00  0.00    -0.129 Cl
ENDBRANCH  22  23
ENDBRANCH  18  22
ENDBRANCH   4  18
TORSDOF 9
ENDMDL
MODEL 5
REMARK VINA RESULT:      -6.8      7.095      9.083
REMARK  9 active torsions:
REMARK  status: ('A' for Active; 'I' for Inactive)
REMARK    1  A    between atoms: O1_1  and  C1_2 
REMARK    2  A    between atoms: C6_7  and  N1_8 
REMARK    3  A    between atoms: N1_8  and  C7_9 
REMARK    4  A    between atoms: C7_9  and  C8_10 
REMARK    5  A    between atoms: C11_13  and  N2_14 
REMARK    6  A    between atoms: N2_14  and  C12_15 
REMARK    7  A    between atoms: N2_14  and  C14_18 
REMARK    8  A    between atoms: C12_15  and  C13_16 
REMARK    9  A    between atoms: C14_18  and  C15_19 
ROOT
HETATM    1  C8  UNL     1      26.529   4.056  49.659  1.00  0.00    -0.040 A 
HETATM    2  C9  UNL     1      25.571   5.107  49.605  1.00  0.00     0.011 A 
HETATM    3  C10 UNL     1      25.771   6.349  48.958  1.00  0.00     0.030 A 
HETATM    4  C11 UNL     1      27.002   6.598  48.303  1.00  0.00     0.030 A 
HETATM    5  C16 UNL     1      28.034   5.620  48.289  1.00  0.00     0.030 A 
HETATM    6  C17 UNL     1      27.570   4.575  48.965  1.00  0.00     0.011 A 
ENDROOT
BRANCH   1   7
HETATM    7  C7  UNL     1      26.361   2.799  50.360  1.00  0.00     0.158 C 
BRANCH   7   8
HETATM    8  N1  UNL     1      25.989   2.848  51.754  1.00  0.00    -0.383 N 
HETATM    9  H6  UNL     1      25.111   3.391  51.735  1.00  0.00     0.160 HD
BRANCH   8  10
HETATM   10  C6  UNL     1      26.918   2.165  52.617  1.00  0.00     0.061 A 
HETATM   11  C1  UNL     1      27.731   1.564  53.372  1.00  0.00     0.091 A 
HETATM   12  C2  UNL     1      28.271   0.462  53.776  1.00  0.00     0.039 A 
HETATM   13  C3  UNL     1      27.854  -0.720  53.176  1.00  0.00     0.003 A 
HETATM   14  C4  UNL     1      26.868  -0.480  52.189  1.00  0.00     0.002 A 
HETATM   15  C5  UNL     1      26.459   0.874  51.959  1.00  0.00     0.032 A 
BRANCH  11  16
HETATM   16  O1  UNL     1      28.113   2.818  53.937  1.00  0.00    -0.358 OA
HETATM   17  H1  UNL     1      27.746   3.034  54.844  1.00  0.00     0.217 HD
ENDBRANCH  11  16
ENDBRANCH   8  10
ENDBRANCH   7   8
ENDBRANCH   1   7
BRANCH   4  18
HETATM   18  N2  UNL     1      27.216   7.859  47.681  1.00  0.00    -0.379 N 
BRANCH  18  19
HETATM   19  C12 UNL     1      28.317   8.774  47.837  1.00  0.00     0.138 C 
BRANCH  19  20
HETATM   20  C13 UNL     1      28.762   8.998  49.248  1.00  0.00     0.134 C 
HETATM   21 CL1  UNL     1      27.413   9.322  50.342  1.00  0.00    -0.129 Cl
ENDBRANCH  19  20
ENDBRANCH  18  19
BRANCH  18  22
HETATM   22  C14 UNL     1      26.215   8.356  46.774  1.00  0.00     0.138 C 
BRANCH  22  23
HETATM   23  C15 UNL     1      25.561   9.640  47.093  1.00  0.00     0.134 C 
HETATM   24 CL2  UNL     1      24.296   9.665  48.289  1.00  0.00    -0.129 Cl
ENDBRANCH  22  23
ENDBRANCH  18  22
ENDBRANCH   4  18
TORSDOF 9
ENDMDL
MODEL 6
REMARK VINA RESULT:      -6.8      7.385      9.461
REMARK  9 active torsions:
REMARK  status: ('A' for Active; 'I' for Inactive)
REMARK    1  A    between atoms: O1_1  and  C1_2 
REMARK    2  A    between atoms: C6_7  and  N1_8 
REMARK    3  A    between atoms: N1_8  and  C7_9 
REMARK    4  A    between atoms: C7_9  and  C8_10 
REMARK    5  A    between atoms: C11_13  and  N2_14 
REMARK    6  A    between atoms: N2_14  and  C12_15 
REMARK    7  A    between atoms: N2_14  and  C14_18 
REMARK    8  A    between atoms: C12_15  and  C13_16 
REMARK    9  A    between atoms: C14_18  and  C15_19 
ROOT
HETATM    1  C8  UNL     1      26.568   4.057  49.533  1.00  0.00    -0.040 A 
HETATM    2  C9  UNL     1      25.658   5.139  49.374  1.00  0.00     0.011 A 
HETATM    3  C10 UNL     1      25.964   6.362  48.732  1.00  0.00     0.030 A 
HETATM    4  C11 UNL     1      27.260   6.557  48.195  1.00  0.00     0.030 A 
HETATM    5  C16 UNL     1      28.252   5.544  48.293  1.00  0.00     0.030 A 
HETATM    6  C17 UNL     1      27.688   4.527  48.936  1.00  0.00     0.011 A 
ENDROOT
BRANCH   1   7
HETATM    7  C7  UNL     1      26.287   2.818  50.231  1.00  0.00     0.158 C 
BRANCH   7   8
HETATM    8  N1  UNL     1      26.161   2.867  51.668  1.00  0.00    -0.383 N 
HETATM    9  H6  UNL     1      25.274   3.379  51.800  1.00  0.00     0.160 HD
BRANCH   8  10
HETATM   10  C6  UNL     1      27.249   2.224  52.360  1.00  0.00     0.061 A 
HETATM   11  C1  UNL     1      28.200   1.659  52.965  1.00  0.00     0.091 A 
HETATM   12  C2  UNL     1      28.754   0.580  53.409  1.00  0.00     0.039 A 
HETATM   13  C3  UNL     1      28.098  -0.624  53.180  1.00  0.00     0.003 A 
HETATM   14  C4  UNL     1      26.889  -0.429  52.472  1.00  0.00     0.002 A 
HETATM   15  C5  UNL     1      26.528   0.910  52.109  1.00  0.00     0.032 A 
BRANCH  11  16
HETATM   16  O1  UNL     1      28.818   2.931  53.157  1.00  0.00    -0.358 OA
HETATM   17  H1  UNL     1      28.214   3.694  53.396  1.00  0.00     0.217 HD
ENDBRANCH  11  16
ENDBRANCH   8  10
ENDBRANCH   7   8
ENDBRANCH   1   7
BRANCH   4  18
HETATM   18  N2  UNL     1      27.578   7.799  47.580  1.00  0.00    -0.379 N 
BRANCH  18  19
HETATM   19  C12 UNL     1      26.914   8.471  46.492  1.00  0.00     0.138 C 
BRANCH  19  20
HETATM   20  C13 UNL     1      27.721   8.604  45.239  1.00  0.00     0.134 C 
HETATM   21 CL1  UNL     1      26.724   8.552  43.781  1.00  0.00    -0.129 Cl
ENDBRANCH  19  20
ENDBRANCH  18  19
BRANCH  18  22
HETATM   22  C14 UNL     1      28.729   8.523  48.049  1.00  0.00     0.138 C 
BRANCH  22  23
HETATM   23  C15 UNL     1      28.528   9.562  49.078  1.00  0.00     0.134 C 
HETATM   24 CL2  UNL     1      27.405   9.258  50.373  1.00  0.00    -0.129 Cl
ENDBRANCH  22  23
ENDBRANCH  18  22
ENDBRANCH   4  18
TORSDOF 9
ENDMDL
MODEL 7
REMARK VINA RESULT:      -6.8      1.478      2.569
REMARK  9 active torsions:
REMARK  status: ('A' for Active; 'I' for Inactive)
REMARK    1  A    between atoms: O1_1  and  C1_2 
REMARK    2  A    between atoms: C6_7  and  N1_8 
REMARK    3  A    between atoms: N1_8  and  C7_9 
REMARK    4  A    between atoms: C7_9  and  C8_10 
REMARK    5  A    between atoms: C11_13  and  N2_14 
REMARK    6  A    between atoms: N2_14  and  C12_15 
REMARK    7  A    between atoms: N2_14  and  C14_18 
REMARK    8  A    between atoms: C12_15  and  C13_16 
REMARK    9  A    between atoms: C14_18  and  C15_19 
ROOT
HETATM    1  C8  UNL     1      23.294  -0.133  53.549  1.00  0.00    -0.040 A 
HETATM    2  C9  UNL     1      22.616   0.436  52.436  1.00  0.00     0.011 A 
HETATM    3  C10 UNL     1      21.232   0.299  52.178  1.00  0.00     0.030 A 
HETATM    4  C11 UNL     1      20.432  -0.451  53.075  1.00  0.00     0.030 A 
HETATM    5  C16 UNL     1      21.000  -1.065  54.224  1.00  0.00     0.030 A 
HETATM    6  C17 UNL     1      22.295  -0.771  54.205  1.00  0.00     0.011 A 
ENDROOT
BRANCH   1   7
HETATM    7  C7  UNL     1      24.719  -0.046  53.801  1.00  0.00     0.158 C 
BRANCH   7   8
HETATM    8  N1  UNL     1      25.539   0.617  52.815  1.00  0.00    -0.383 N 
HETATM    9  H6  UNL     1      24.922   0.641  51.987  1.00  0.00     0.160 HD
BRANCH   8  10
HETATM   10  C6  UNL     1      26.841   0.986  53.309  1.00  0.00     0.061 A 
HETATM   11  C1  UNL     1      27.982   1.307  53.741  1.00  0.00     0.091 A 
HETATM   12  C2  UNL     1      29.201   0.981  54.017  1.00  0.00     0.039 A 
HETATM   13  C3  UNL     1      29.592  -0.329  53.766  1.00  0.00     0.003 A 
HETATM   14  C4  UNL     1      28.529  -1.094  53.231  1.00  0.00     0.002 A 
HETATM   15  C5  UNL     1      27.265  -0.447  53.034  1.00  0.00     0.032 A 
BRANCH  11  16
HETATM   16  O1  UNL     1      27.509   2.635  53.967  1.00  0.00    -0.358 OA
HETATM   17  H1  UNL     1      26.828   2.986  53.322  1.00  0.00     0.217 HD
ENDBRANCH  11  16
ENDBRANCH   8  10
ENDBRANCH   7   8
ENDBRANCH   1   7
BRANCH   4  18
HETATM   18  N2  UNL     1      19.046  -0.617  52.799  1.00  0.00    -0.379 N 
BRANCH  18  19
HETATM   19  C12 UNL     1      18.023  -1.220  53.614  1.00  0.00     0.138 C 
BRANCH  19  20
HETATM   20  C13 UNL     1      17.909  -2.707  53.494  1.00  0.00     0.134 C 
HETATM   21 CL1  UNL     1      16.293  -3.226  53.003  1.00  0.00    -0.129 Cl
ENDBRANCH  19  20
ENDBRANCH  18  19
BRANCH  18  22
HETATM   22  C14 UNL     1      18.539  -0.159  51.533  1.00  0.00     0.138 C 
BRANCH  22  23
HETATM   23  C15 UNL     1      17.121   0.241  51.453  1.00  0.00     0.134 C 
HETATM   24 CL2  UNL     1      16.039  -0.692  50.458  1.00  0.00    -0.129 Cl
ENDBRANCH  22  23
ENDBRANCH  18  22
ENDBRANCH   4  18
TORSDOF 9
ENDMDL
MODEL 8
REMARK VINA RESULT:      -6.8      2.001      2.557
REMARK  9 active torsions:
REMARK  status: ('A' for Active; 'I' for Inactive)
REMARK    1  A    between atoms: O1_1  and  C1_2 
REMARK    2  A    between atoms: C6_7  and  N1_8 
REMARK    3  A    between atoms: N1_8  and  C7_9 
REMARK    4  A    between atoms: C7_9  and  C8_10 
REMARK    5  A    between atoms: C11_13  and  N2_14 
REMARK    6  A    between atoms: N2_14  and  C12_15 
REMARK    7  A    between atoms: N2_14  and  C14_18 
REMARK    8  A    between atoms: C12_15  and  C13_16 
REMARK    9  A    between atoms: C14_18  and  C15_19 
ROOT
HETATM    1  C8  UNL     1      24.270  -0.141  53.133  1.00  0.00    -0.040 A 
HETATM    2  C9  UNL     1      24.138   1.155  52.562  1.00  0.00     0.011 A 
HETATM    3  C10 UNL     1      22.925   1.710  52.091  1.00  0.00     0.030 A 
HETATM    4  C11 UNL     1      21.734   0.948  52.182  1.00  0.00     0.030 A 
HETATM    5  C16 UNL     1      21.744  -0.361  52.736  1.00  0.00     0.030 A 
HETATM    6  C17 UNL     1      23.001  -0.611  53.086  1.00  0.00     0.011 A 
ENDROOT
BRANCH   1   7
HETATM    7  C7  UNL     1      25.512  -0.744  53.574  1.00  0.00     0.158 C 
BRANCH   7   8
HETATM    8  N1  UNL     1      26.246  -1.547  52.625  1.00  0.00    -0.383 N 
HETATM    9  H6  UNL     1      25.536  -1.748  51.903  1.00  0.00     0.160 HD
BRANCH   8  10
HETATM   10  C6  UNL     1      27.619  -1.766  53.003  1.00  0.00     0.061 A 
HETATM   11  C1  UNL     1      28.821  -1.955  53.335  1.00  0.00     0.091 A 
HETATM   12  C2  UNL     1      29.982  -1.477  53.638  1.00  0.00     0.039 A 
HETATM   13  C3  UNL     1      30.127  -0.095  53.651  1.00  0.00     0.003 A 
HETATM   14  C4  UNL     1      28.919   0.557  53.310  1.00  0.00     0.002 A 
HETATM   15  C5  UNL     1      27.775  -0.254  53.014  1.00  0.00     0.032 A 
BRANCH  11  16
HETATM   16  O1  UNL     1      28.594  -3.364  53.307  1.00  0.00    -0.358 OA
HETATM   17  H1  UNL     1      27.640  -3.668  53.333  1.00  0.00     0.217 HD
ENDBRANCH  11  16
ENDBRANCH   8  10
ENDBRANCH   7   8
ENDBRANCH   1   7
BRANCH   4  18
HETATM   18  N2  UNL     1      20.520   1.492  51.678  1.00  0.00    -0.379 N 
BRANCH  18  19
HETATM   19  C12 UNL     1      20.327   2.499  50.666  1.00  0.00     0.138 C 
BRANCH  19  20
HETATM   20  C13 UNL     1      20.158   1.978  49.274  1.00  0.00     0.134 C 
HETATM   21 CL1  UNL     1      21.512   0.968  48.758  1.00  0.00    -0.129 Cl
ENDBRANCH  19  20
ENDBRANCH  18  19
BRANCH  18  22
HETATM   22  C14 UNL     1      19.277   1.028  52.234  1.00  0.00     0.138 C 
BRANCH  22  23
HETATM   23  C15 UNL     1      18.582  -0.084  51.558  1.00  0.00     0.134 C 
HETATM   24 CL2  UNL     1      17.599  -1.163  52.508  1.00  0.00    -0.129 Cl
ENDBRANCH  22  23
ENDBRANCH  18  22
ENDBRANCH   4  18
TORSDOF 9
ENDMDL
MODEL 9
REMARK VINA RESULT:      -6.7      2.514      3.084
REMARK  9 active torsions:
REMARK  status: ('A' for Active; 'I' for Inactive)
REMARK    1  A    between atoms: O1_1  and  C1_2 
REMARK    2  A    between atoms: C6_7  and  N1_8 
REMARK    3  A    between atoms: N1_8  and  C7_9 
REMARK    4  A    between atoms: C7_9  and  C8_10 
REMARK    5  A    between atoms: C11_13  and  N2_14 
REMARK    6  A    between atoms: N2_14  and  C12_15 
REMARK    7  A    between atoms: N2_14  and  C14_18 
REMARK    8  A    between atoms: C12_15  and  C13_16 
REMARK    9  A    between atoms: C14_18  and  C15_19 
ROOT
HETATM    1  C8  UNL     1      24.273   2.254  53.009  1.00  0.00    -0.040 A 
HETATM    2  C9  UNL     1      23.567   3.420  52.601  1.00  0.00     0.011 A 
HETATM    3  C10 UNL     1      22.321   3.416  51.931  1.00  0.00     0.030 A 
HETATM    4  C11 UNL     1      21.702   2.178  51.630  1.00  0.00     0.030 A 
HETATM    5  C16 UNL     1      22.314   0.946  51.991  1.00  0.00     0.030 A 
HETATM    6  C17 UNL     1      23.455   1.258  52.596  1.00  0.00     0.011 A 
ENDROOT
BRANCH   1   7
HETATM    7  C7  UNL     1      25.572   2.240  53.651  1.00  0.00     0.158 C 
BRANCH   7   8
HETATM    8  N1  UNL     1      26.730   2.521  52.836  1.00  0.00    -0.383 N 
HETATM    9  H6  UNL     1      26.348   3.145  52.108  1.00  0.00     0.160 HD
BRANCH   8  10
HETATM   10  C6  UNL     1      27.929   1.872  53.304  1.00  0.00     0.061 A 
HETATM   11  C1  UNL     1      28.978   1.302  53.711  1.00  0.00     0.091 A 
HETATM   12  C2  UNL     1      29.658   0.220  53.894  1.00  0.00     0.039 A 
HETATM   13  C3  UNL     1      29.084  -0.980  53.491  1.00  0.00     0.003 A 
HETATM   14  C4  UNL     1      27.800  -0.778  52.931  1.00  0.00     0.002 A 
HETATM   15  C5  UNL     1      27.298   0.562  52.862  1.00  0.00     0.032 A 
BRANCH  11  16
HETATM   16  O1  UNL     1      29.504   2.572  54.095  1.00  0.00    -0.358 OA
HETATM   17  H1  UNL     1      30.219   2.959  53.510  1.00  0.00     0.217 HD
ENDBRANCH  11  16
ENDBRANCH   8  10
ENDBRANCH   7   8
ENDBRANCH   1   7
BRANCH   4  18
HETATM   18  N2  UNL     1      20.466   2.171  50.927  1.00  0.00    -0.379 N 
BRANCH  18  19
HETATM   19  C12 UNL     1      20.196   2.539  49.560  1.00  0.00     0.138 C 
BRANCH  19  20
HETATM   20  C13 UNL     1      20.902   1.716  48.529  1.00  0.00     0.134 C 
HETATM   21 CL1  UNL     1      22.516   2.332  48.158  1.00  0.00    -0.129 Cl
ENDBRANCH  19  20
ENDBRANCH  18  19
BRANCH  18  22
HETATM   22  C14 UNL     1      19.276   1.774  51.632  1.00  0.00     0.138 C 
BRANCH  22  23
HETATM   23  C15 UNL     1      18.699   0.448  51.337  1.00  0.00     0.134 C 
HETATM   24 CL2  UNL     1      18.538  -0.705  52.630  1.00  0.00    -0.129 Cl
ENDBRANCH  22  23
ENDBRANCH  18  22
ENDBRANCH   4  18
TORSDOF 9
ENDMDL
