MODEL 1
REMARK VINA RESULT:      -8.1      0.000      0.000
REMARK  4 active torsions:
REMARK  status: ('A' for Active; 'I' for Inactive)
REMARK    1  A    between atoms: C3_3  and  C4_4 
REMARK    2  A    between atoms: C4_4  and  N1_5 
REMARK    3  A    between atoms: N1_5  and  C5_6 
REMARK    4  A    between atoms: C10_13  and  N4_14 
ROOT
HETATM    1  C1  UNL     1      27.111   4.608  48.869  1.00  0.00     0.112 C 
HETATM    2  C2  UNL     1      26.024   5.163  49.704  1.00  0.00    -0.109 C 
HETATM    3  C3  UNL     1      25.116   5.623  50.373  1.00  0.00    -0.087 C 
ENDROOT
BRANCH   3   4
HETATM    4  C4  UNL     1      24.034   6.185  51.178  1.00  0.00     0.214 C 
BRANCH   4   5
HETATM    5  N1  UNL     1      23.957   5.442  52.409  1.00  0.00    -0.380 N 
HETATM    6  H6  UNL     1      24.300   5.881  53.274  1.00  0.00     0.160 HD
BRANCH   5   7
HETATM    7  C5  UNL     1      23.425   4.125  52.463  1.00  0.00     0.029 A 
HETATM    8  C6  UNL     1      22.132   3.812  52.106  1.00  0.00     0.031 A 
HETATM    9  C7  UNL     1      21.605   2.535  52.153  1.00  0.00     0.035 A 
HETATM   10  C8  UNL     1      22.406   1.501  52.582  1.00  0.00     0.072 A 
HETATM   11  N2  UNL     1      21.959   0.223  52.656  1.00  0.00    -0.241 NA
HETATM   12  C18 UNL     1      23.705   1.784  52.947  1.00  0.00     0.041 A 
HETATM   13  C9  UNL     1      22.798  -0.737  53.084  1.00  0.00     0.236 A 
HETATM   14  N3  UNL     1      24.063  -0.441  53.435  1.00  0.00    -0.224 NA
HETATM   15  C10 UNL     1      24.563   0.819  53.381  1.00  0.00     0.140 A 
HETATM   16  C19 UNL     1      24.203   3.069  52.888  1.00  0.00     0.046 A 
BRANCH  15  17
HETATM   17  N4  UNL     1      25.923   0.989  53.786  1.00  0.00    -0.357 N 
HETATM   18  C11 UNL     1      26.608   0.838  55.078  1.00  0.00     0.152 C 
HETATM   19  C12 UNL     1      27.886   0.064  54.858  1.00  0.00    -0.005 C 
HETATM   20  C13 UNL     1      28.620   0.516  53.846  1.00  0.00    -0.084 C 
HETATM   21  C14 UNL     1      29.900  -0.091  53.458  1.00  0.00     0.043 C 
HETATM   22  C15 UNL     1      28.132   1.701  53.052  1.00  0.00     0.058 C 
HETATM   23  C16 UNL     1      26.711   1.390  52.636  1.00  0.00     0.086 C 
HETATM   24  C17 UNL     1      26.685   0.332  51.536  1.00  0.00     0.032 C 
ENDBRANCH  15  17
ENDBRANCH   5   7
ENDBRANCH   4   5
ENDBRANCH   3   4
TORSDOF 4
ENDMDL
MODEL 2
REMARK VINA RESULT:      -7.6      1.851      5.230
REMARK  4 active torsions:
REMARK  status: ('A' for Active; 'I' for Inactive)
REMARK    1  A    between atoms: C3_3  and  C4_4 
REMARK    2  A    between atoms: C4_4  and  N1_5 
REMARK    3  A    between atoms: N1_5  and  C5_6 
REMARK    4  A    between atoms: C10_13  and  N4_14 
ROOT
HETATM    1  C1  UNL     1      28.882   6.460  47.900  1.00  0.00     0.112 C 
HETATM    2  C2  UNL     1      27.939   5.486  48.489  1.00  0.00    -0.109 C 
HETATM    3  C3  UNL     1      27.173   4.668  48.965  1.00  0.00    -0.087 C 
ENDROOT
BRANCH   3   4
HETATM    4  C4  UNL     1      26.245   3.688  49.528  1.00  0.00     0.214 C 
BRANCH   4   5
HETATM    5  N1  UNL     1      26.783   3.232  50.784  1.00  0.00    -0.380 N 
HETATM    6  H6  UNL     1      27.659   3.649  51.126  1.00  0.00     0.160 HD
BRANCH   5   7
HETATM    7  C5  UNL     1      26.141   2.230  51.559  1.00  0.00     0.029 A 
HETATM    8  C6  UNL     1      26.806   1.167  52.131  1.00  0.00     0.031 A 
HETATM    9  C7  UNL     1      26.192   0.188  52.888  1.00  0.00     0.035 A 
HETATM   10  C8  UNL     1      24.833   0.260  53.092  1.00  0.00     0.072 A 
HETATM   11  N2  UNL     1      24.161  -0.664  53.822  1.00  0.00    -0.241 NA
HETATM   12  C18 UNL     1      24.139   1.312  52.531  1.00  0.00     0.041 A 
HETATM   13  C9  UNL     1      22.832  -0.529  53.980  1.00  0.00     0.236 A 
HETATM   14  N3  UNL     1      22.173   0.505  53.426  1.00  0.00    -0.224 NA
HETATM   15  C10 UNL     1      22.793   1.457  52.686  1.00  0.00     0.140 A 
HETATM   16  C19 UNL     1      24.781   2.275  51.782  1.00  0.00     0.046 A 
BRANCH  15  17
HETATM   17  N4  UNL     1      21.970   2.498  52.156  1.00  0.00    -0.357 N 
HETATM   18  C11 UNL     1      21.965   3.958  52.332  1.00  0.00     0.152 C 
HETATM   19  C12 UNL     1      21.815   4.606  50.977  1.00  0.00    -0.005 C 
HETATM   20  C13 UNL     1      20.834   4.094  50.243  1.00  0.00    -0.084 C 
HETATM   21  C14 UNL     1      20.515   4.577  48.892  1.00  0.00     0.043 C 
HETATM   22  C15 UNL     1      20.002   2.969  50.804  1.00  0.00     0.058 C 
HETATM   23  C16 UNL     1      20.970   1.911  51.285  1.00  0.00     0.086 C 
HETATM   24  C17 UNL     1      21.606   1.179  50.105  1.00  0.00     0.032 C 
ENDBRANCH  15  17
ENDBRANCH   5   7
ENDBRANCH   4   5
ENDBRANCH   3   4
TORSDOF 4
ENDMDL
MODEL 3
REMARK VINA RESULT:      -7.6      2.233      6.240
REMARK  4 active torsions:
REMARK  status: ('A' for Active; 'I' for Inactive)
REMARK    1  A    between atoms: C3_3  and  C4_4 
REMARK    2  A    between atoms: C4_4  and  N1_5 
REMARK    3  A    between atoms: N1_5  and  C5_6 
REMARK    4  A    between atoms: C10_13  and  N4_14 
ROOT
HETATM    1  C1  UNL     1      18.146   1.193  50.716  1.00  0.00     0.112 C 
HETATM    2  C2  UNL     1      18.666   0.334  51.801  1.00  0.00    -0.109 C 
HETATM    3  C3  UNL     1      19.081  -0.391  52.687  1.00  0.00    -0.087 C 
ENDROOT
BRANCH   3   4
HETATM    4  C4  UNL     1      19.574  -1.254  53.759  1.00  0.00     0.214 C 
BRANCH   4   5
HETATM    5  N1  UNL     1      20.443  -0.473  54.600  1.00  0.00    -0.380 N 
HETATM    6  H6  UNL     1      20.023   0.150  55.302  1.00  0.00     0.160 HD
BRANCH   5   7
HETATM    7  C5  UNL     1      21.859  -0.537  54.487  1.00  0.00     0.029 A 
HETATM    8  C6  UNL     1      22.654  -1.300  55.314  1.00  0.00     0.031 A 
HETATM    9  C7  UNL     1      24.030  -1.370  55.212  1.00  0.00     0.035 A 
HETATM   10  C8  UNL     1      24.663  -0.639  54.232  1.00  0.00     0.072 A 
HETATM   11  N2  UNL     1      26.009  -0.657  54.072  1.00  0.00    -0.241 NA
HETATM   12  C18 UNL     1      23.893   0.135  53.389  1.00  0.00     0.041 A 
HETATM   13  C9  UNL     1      26.558   0.082  53.092  1.00  0.00     0.236 A 
HETATM   14  N3  UNL     1      25.790   0.831  52.279  1.00  0.00    -0.224 NA
HETATM   15  C10 UNL     1      24.440   0.886  52.394  1.00  0.00     0.140 A 
HETATM   16  C19 UNL     1      22.520   0.183  53.516  1.00  0.00     0.046 A 
BRANCH  15  17
HETATM   17  N4  UNL     1      23.749   1.724  51.464  1.00  0.00    -0.357 N 
HETATM   18  C11 UNL     1      22.695   1.461  50.473  1.00  0.00     0.152 C 
HETATM   19  C12 UNL     1      21.643   2.538  50.593  1.00  0.00    -0.005 C 
HETATM   20  C13 UNL     1      22.137   3.771  50.620  1.00  0.00    -0.084 C 
HETATM   21  C14 UNL     1      21.290   4.966  50.733  1.00  0.00     0.043 C 
HETATM   22  C15 UNL     1      23.629   3.970  50.534  1.00  0.00     0.058 C 
HETATM   23  C16 UNL     1      24.248   3.080  51.590  1.00  0.00     0.086 C 
HETATM   24  C17 UNL     1      24.007   3.645  52.988  1.00  0.00     0.032 C 
ENDBRANCH  15  17
ENDBRANCH   5   7
ENDBRANCH   4   5
ENDBRANCH   3   4
TORSDOF 4
ENDMDL
MODEL 4
REMARK VINA RESULT:      -7.6      2.518      6.173
REMARK  4 active torsions:
REMARK  status: ('A' for Active; 'I' for Inactive)
REMARK    1  A    between atoms: C3_3  and  C4_4 
REMARK    2  A    between atoms: C4_4  and  N1_5 
REMARK    3  A    between atoms: N1_5  and  C5_6 
REMARK    4  A    between atoms: C10_13  and  N4_14 
ROOT
HETATM    1  C1  UNL     1      29.884  -0.803  53.764  1.00  0.00     0.112 C 
HETATM    2  C2  UNL     1      28.465  -0.755  53.354  1.00  0.00    -0.109 C 
HETATM    3  C3  UNL     1      27.298  -0.735  53.006  1.00  0.00    -0.087 C 
ENDROOT
BRANCH   3   4
HETATM    4  C4  UNL     1      25.900  -0.701  52.581  1.00  0.00     0.214 C 
BRANCH   4   5
HETATM    5  N1  UNL     1      25.085  -0.436  53.738  1.00  0.00    -0.380 N 
HETATM    6  H6  UNL     1      25.549  -0.203  54.626  1.00  0.00     0.160 HD
BRANCH   5   7
HETATM    7  C5  UNL     1      23.666  -0.487  53.689  1.00  0.00     0.029 A 
HETATM    8  C6  UNL     1      22.889  -1.041  54.683  1.00  0.00     0.031 A 
HETATM    9  C7  UNL     1      21.510  -1.095  54.646  1.00  0.00     0.035 A 
HETATM   10  C8  UNL     1      20.852  -0.569  53.557  1.00  0.00     0.072 A 
HETATM   11  N2  UNL     1      19.501  -0.586  53.449  1.00  0.00    -0.241 NA
HETATM   12  C18 UNL     1      21.603  -0.008  52.545  1.00  0.00     0.041 A 
HETATM   13  C9  UNL     1      18.927  -0.053  52.356  1.00  0.00     0.236 A 
HETATM   14  N3  UNL     1      19.677   0.491  51.379  1.00  0.00    -0.224 NA
HETATM   15  C10 UNL     1      21.031   0.535  51.434  1.00  0.00     0.140 A 
HETATM   16  C19 UNL     1      22.980   0.032  52.612  1.00  0.00     0.046 A 
BRANCH  15  17
HETATM   17  N4  UNL     1      21.701   1.140  50.325  1.00  0.00    -0.357 N 
HETATM   18  C11 UNL     1      21.715   0.847  48.885  1.00  0.00     0.152 C 
HETATM   19  C12 UNL     1      21.555   2.145  48.128  1.00  0.00    -0.005 C 
HETATM   20  C13 UNL     1      22.365   3.112  48.545  1.00  0.00    -0.084 C 
HETATM   21  C14 UNL     1      22.375   4.454  47.948  1.00  0.00     0.043 C 
HETATM   22  C15 UNL     1      23.321   2.837  49.678  1.00  0.00     0.058 C 
HETATM   23  C16 UNL     1      22.500   2.251  50.805  1.00  0.00     0.086 C 
HETATM   24  C17 UNL     1      21.639   3.324  51.468  1.00  0.00     0.032 C 
ENDBRANCH  15  17
ENDBRANCH   5   7
ENDBRANCH   4   5
ENDBRANCH   3   4
TORSDOF 4
ENDMDL
MODEL 5
REMARK VINA RESULT:      -7.3      1.732      5.756
REMARK  4 active torsions:
REMARK  status: ('A' for Active; 'I' for Inactive)
REMARK    1  A    between atoms: C3_3  and  C4_4 
REMARK    2  A    between atoms: C4_4  and  N1_5 
REMARK    3  A    between atoms: N1_5  and  C5_6 
REMARK    4  A    between atoms: C10_13  and  N4_14 
ROOT
HETATM    1  C1  UNL     1      30.156  -1.365  53.808  1.00  0.00     0.112 C 
HETATM    2  C2  UNL     1      29.301  -0.190  53.538  1.00  0.00    -0.109 C 
HETATM    3  C3  UNL     1      28.583   0.772  53.331  1.00  0.00    -0.087 C 
ENDROOT
BRANCH   3   4
HETATM    4  C4  UNL     1      27.717   1.921  53.073  1.00  0.00     0.214 C 
BRANCH   4   5
HETATM    5  N1  UNL     1      26.707   1.517  52.130  1.00  0.00    -0.380 N 
HETATM    6  H6  UNL     1      26.936   1.526  51.127  1.00  0.00     0.160 HD
BRANCH   5   7
HETATM    7  C5  UNL     1      25.410   1.109  52.542  1.00  0.00     0.029 A 
HETATM    8  C6  UNL     1      25.165  -0.047  53.250  1.00  0.00     0.031 A 
HETATM    9  C7  UNL     1      23.908  -0.452  53.657  1.00  0.00     0.035 A 
HETATM   10  C8  UNL     1      22.822   0.334  53.344  1.00  0.00     0.072 A 
HETATM   11  N2  UNL     1      21.559   0.001  53.709  1.00  0.00    -0.241 NA
HETATM   12  C18 UNL     1      23.036   1.498  52.635  1.00  0.00     0.041 A 
HETATM   13  C9  UNL     1      20.547   0.818  53.369  1.00  0.00     0.236 A 
HETATM   14  N3  UNL     1      20.775   1.950  52.677  1.00  0.00    -0.224 NA
HETATM   15  C10 UNL     1      22.017   2.331  52.287  1.00  0.00     0.140 A 
HETATM   16  C19 UNL     1      24.304   1.876  52.244  1.00  0.00     0.046 A 
BRANCH  15  17
HETATM   17  N4  UNL     1      22.113   3.557  51.557  1.00  0.00    -0.357 N 
HETATM   18  C11 UNL     1      22.715   4.861  51.869  1.00  0.00     0.152 C 
HETATM   19  C12 UNL     1      23.510   5.323  50.671  1.00  0.00    -0.005 C 
HETATM   20  C13 UNL     1      22.849   5.234  49.522  1.00  0.00    -0.084 C 
HETATM   21  C14 UNL     1      23.436   5.629  48.234  1.00  0.00     0.043 C 
HETATM   22  C15 UNL     1      21.437   4.705  49.521  1.00  0.00     0.058 C 
HETATM   23  C16 UNL     1      21.465   3.392  50.270  1.00  0.00     0.086 C 
HETATM   24  C17 UNL     1      22.134   2.302  49.435  1.00  0.00     0.032 C 
ENDBRANCH  15  17
ENDBRANCH   5   7
ENDBRANCH   4   5
ENDBRANCH   3   4
TORSDOF 4
ENDMDL
MODEL 6
REMARK VINA RESULT:      -7.3      1.775      5.373
REMARK  4 active torsions:
REMARK  status: ('A' for Active; 'I' for Inactive)
REMARK    1  A    between atoms: C3_3  and  C4_4 
REMARK    2  A    between atoms: C4_4  and  N1_5 
REMARK    3  A    between atoms: N1_5  and  C5_6 
REMARK    4  A    between atoms: C10_13  and  N4_14 
ROOT
HETATM    1  C1  UNL     1      29.581  -1.237  53.451  1.00  0.00     0.112 C 
HETATM    2  C2  UNL     1      28.252  -0.620  53.642  1.00  0.00    -0.109 C 
HETATM    3  C3  UNL     1      27.148  -0.132  53.806  1.00  0.00    -0.087 C 
ENDROOT
BRANCH   3   4
HETATM    4  C4  UNL     1      25.822   0.456  53.990  1.00  0.00     0.214 C 
BRANCH   4   5
HETATM    5  N1  UNL     1      24.841  -0.572  53.759  1.00  0.00    -0.380 N 
HETATM    6  H6  UNL     1      25.136  -1.557  53.807  1.00  0.00     0.160 HD
BRANCH   5   7
HETATM    7  C5  UNL     1      23.484  -0.268  53.467  1.00  0.00     0.029 A 
HETATM    8  C6  UNL     1      22.429  -1.083  53.814  1.00  0.00     0.031 A 
HETATM    9  C7  UNL     1      21.107  -0.796  53.536  1.00  0.00     0.035 A 
HETATM   10  C8  UNL     1      20.805   0.371  52.871  1.00  0.00     0.072 A 
HETATM   11  N2  UNL     1      19.531   0.720  52.564  1.00  0.00    -0.241 NA
HETATM   12  C18 UNL     1      21.840   1.208  52.510  1.00  0.00     0.041 A 
HETATM   13  C9  UNL     1      19.312   1.877  51.914  1.00  0.00     0.236 A 
HETATM   14  N3  UNL     1      20.335   2.680  51.570  1.00  0.00    -0.224 NA
HETATM   15  C10 UNL     1      21.628   2.381  51.852  1.00  0.00     0.140 A 
HETATM   16  C19 UNL     1      23.151   0.894  52.803  1.00  0.00     0.046 A 
BRANCH  15  17
HETATM   17  N4  UNL     1      22.614   3.325  51.427  1.00  0.00    -0.357 N 
HETATM   18  C11 UNL     1      23.625   4.108  52.151  1.00  0.00     0.152 C 
HETATM   19  C12 UNL     1      24.934   4.012  51.403  1.00  0.00    -0.005 C 
HETATM   20  C13 UNL     1      24.825   4.243  50.099  1.00  0.00    -0.084 C 
HETATM   21  C14 UNL     1      25.974   4.200  49.185  1.00  0.00     0.043 C 
HETATM   22  C15 UNL     1      23.472   4.565  49.517  1.00  0.00     0.058 C 
HETATM   23  C16 UNL     1      22.529   3.480  49.988  1.00  0.00     0.086 C 
HETATM   24  C17 UNL     1      22.802   2.166  49.259  1.00  0.00     0.032 C 
ENDBRANCH  15  17
ENDBRANCH   5   7
ENDBRANCH   4   5
ENDBRANCH   3   4
TORSDOF 4
ENDMDL
MODEL 7
REMARK VINA RESULT:      -7.0      2.490      6.398
REMARK  4 active torsions:
REMARK  status: ('A' for Active; 'I' for Inactive)
REMARK    1  A    between atoms: C3_3  and  C4_4 
REMARK    2  A    between atoms: C4_4  and  N1_5 
REMARK    3  A    between atoms: N1_5  and  C5_6 
REMARK    4  A    between atoms: C10_13  and  N4_14 
ROOT
HETATM    1  C1  UNL     1      26.800  -2.069  52.358  1.00  0.00     0.112 C 
HETATM    2  C2  UNL     1      26.708  -0.595  52.421  1.00  0.00    -0.109 C 
HETATM    3  C3  UNL     1      26.628   0.619  52.451  1.00  0.00    -0.087 C 
ENDROOT
BRANCH   3   4
HETATM    4  C4  UNL     1      26.544   2.079  52.488  1.00  0.00     0.214 C 
BRANCH   4   5
HETATM    5  N1  UNL     1      26.875   2.580  51.180  1.00  0.00    -0.380 N 
HETATM    6  H6  UNL     1      27.787   2.335  50.774  1.00  0.00     0.160 HD
BRANCH   5   7
HETATM    7  C5  UNL     1      25.981   3.399  50.438  1.00  0.00     0.029 A 
HETATM    8  C6  UNL     1      26.396   4.392  49.578  1.00  0.00     0.031 A 
HETATM    9  C7  UNL     1      25.536   5.193  48.851  1.00  0.00     0.035 A 
HETATM   10  C8  UNL     1      24.179   5.003  48.982  1.00  0.00     0.072 A 
HETATM   11  N2  UNL     1      23.275   5.750  48.302  1.00  0.00    -0.241 NA
HETATM   12  C18 UNL     1      23.733   4.016  49.837  1.00  0.00     0.041 A 
HETATM   13  C9  UNL     1      21.964   5.507  48.480  1.00  0.00     0.236 A 
HETATM   14  N3  UNL     1      21.549   4.540  49.318  1.00  0.00    -0.224 NA
HETATM   15  C10 UNL     1      22.409   3.763  50.023  1.00  0.00     0.140 A 
HETATM   16  C19 UNL     1      24.618   3.232  50.548  1.00  0.00     0.046 A 
BRANCH  15  17
HETATM   17  N4  UNL     1      21.829   2.773  50.877  1.00  0.00    -0.357 N 
HETATM   18  C11 UNL     1      21.243   2.835  52.224  1.00  0.00     0.152 C 
HETATM   19  C12 UNL     1      19.949   2.057  52.221  1.00  0.00    -0.005 C 
HETATM   20  C13 UNL     1      20.049   0.851  51.672  1.00  0.00    -0.084 C 
HETATM   21  C14 UNL     1      18.911  -0.072  51.565  1.00  0.00     0.043 C 
HETATM   22  C15 UNL     1      21.380   0.396  51.130  1.00  0.00     0.058 C 
HETATM   23  C16 UNL     1      21.870   1.489  50.207  1.00  0.00     0.086 C 
HETATM   24  C17 UNL     1      21.069   1.502  48.906  1.00  0.00     0.032 C 
ENDBRANCH  15  17
ENDBRANCH   5   7
ENDBRANCH   4   5
ENDBRANCH   3   4
TORSDOF 4
ENDMDL
MODEL 8
REMARK VINA RESULT:      -6.9      2.102      5.022
REMARK  4 active torsions:
REMARK  status: ('A' for Active; 'I' for Inactive)
REMARK    1  A    between atoms: C3_3  and  C4_4 
REMARK    2  A    between atoms: C4_4  and  N1_5 
REMARK    3  A    between atoms: N1_5  and  C5_6 
REMARK    4  A    between atoms: C10_13  and  N4_14 
ROOT
HETATM    1  C1  UNL     1      23.804  -1.241  55.680  1.00  0.00     0.112 C 
HETATM    2  C2  UNL     1      22.879  -0.993  54.554  1.00  0.00    -0.109 C 
HETATM    3  C3  UNL     1      22.101  -0.788  53.640  1.00  0.00    -0.087 C 
ENDROOT
BRANCH   3   4
HETATM    4  C4  UNL     1      21.167  -0.554  52.540  1.00  0.00     0.214 C 
BRANCH   4   5
HETATM    5  N1  UNL     1      20.305   0.539  52.908  1.00  0.00    -0.380 N 
HETATM    6  H6  UNL     1      19.508   0.351  53.531  1.00  0.00     0.160 HD
BRANCH   5   7
HETATM    7  C5  UNL     1      20.522   1.862  52.438  1.00  0.00     0.029 A 
HETATM    8  C6  UNL     1      19.508   2.700  52.028  1.00  0.00     0.031 A 
HETATM    9  C7  UNL     1      19.708   3.988  51.571  1.00  0.00     0.035 A 
HETATM   10  C8  UNL     1      20.992   4.482  51.513  1.00  0.00     0.072 A 
HETATM   11  N2  UNL     1      21.266   5.735  51.075  1.00  0.00    -0.241 NA
HETATM   12  C18 UNL     1      22.028   3.666  51.916  1.00  0.00     0.041 A 
HETATM   13  C9  UNL     1      22.545   6.150  51.046  1.00  0.00     0.236 A 
HETATM   14  N3  UNL     1      23.543   5.339  51.444  1.00  0.00    -0.224 NA
HETATM   15  C10 UNL     1      23.326   4.077  51.891  1.00  0.00     0.140 A 
HETATM   16  C19 UNL     1      21.796   2.383  52.369  1.00  0.00     0.046 A 
BRANCH  15  17
HETATM   17  N4  UNL     1      24.479   3.326  52.280  1.00  0.00    -0.357 N 
HETATM   18  C11 UNL     1      24.917   2.760  53.564  1.00  0.00     0.152 C 
HETATM   19  C12 UNL     1      25.390   1.345  53.331  1.00  0.00    -0.005 C 
HETATM   20  C13 UNL     1      26.233   1.223  52.311  1.00  0.00    -0.084 C 
HETATM   21  C14 UNL     1      26.815  -0.064  51.908  1.00  0.00     0.043 C 
HETATM   22  C15 UNL     1      26.618   2.449  51.521  1.00  0.00     0.058 C 
HETATM   23  C16 UNL     1      25.329   3.130  51.121  1.00  0.00     0.086 C 
HETATM   24  C17 UNL     1      24.616   2.346  50.022  1.00  0.00     0.032 C 
ENDBRANCH  15  17
ENDBRANCH   5   7
ENDBRANCH   4   5
ENDBRANCH   3   4
TORSDOF 4
ENDMDL
MODEL 9
REMARK VINA RESULT:      -6.9      2.765      5.874
REMARK  4 active torsions:
REMARK  status: ('A' for Active; 'I' for Inactive)
REMARK    1  A    between atoms: C3_3  and  C4_4 
REMARK    2  A    between atoms: C4_4  and  N1_5 
REMARK    3  A    between atoms: N1_5  and  C5_6 
REMARK    4  A    between atoms: C10_13  and  N4_14 
ROOT
HETATM    1  C1  UNL     1      25.680  -0.892  53.119  1.00  0.00     0.112 C 
HETATM    2  C2  UNL     1      26.005   0.357  52.397  1.00  0.00    -0.109 C 
HETATM    3  C3  UNL     1      26.279   1.394  51.821  1.00  0.00    -0.087 C 
ENDROOT
BRANCH   3   4
HETATM    4  C4  UNL     1      26.596   2.642  51.129  1.00  0.00     0.214 C 
BRANCH   4   5
HETATM    5  N1  UNL     1      25.496   3.552  51.319  1.00  0.00    -0.380 N 
HETATM    6  H6  UNL     1      25.476   4.133  52.167  1.00  0.00     0.160 HD
BRANCH   5   7
HETATM    7  C5  UNL     1      24.442   3.669  50.372  1.00  0.00     0.029 A 
HETATM    8  C6  UNL     1      24.452   4.569  49.329  1.00  0.00     0.031 A 
HETATM    9  C7  UNL     1      23.434   4.690  48.403  1.00  0.00     0.035 A 
HETATM   10  C8  UNL     1      22.334   3.870  48.514  1.00  0.00     0.072 A 
HETATM   11  N2  UNL     1      21.296   3.931  47.643  1.00  0.00    -0.241 NA
HETATM   12  C18 UNL     1      22.294   2.959  49.548  1.00  0.00     0.041 A 
HETATM   13  C9  UNL     1      20.254   3.098  47.813  1.00  0.00     0.236 A 
HETATM   14  N3  UNL     1      20.234   2.215  48.828  1.00  0.00    -0.224 NA
HETATM   15  C10 UNL     1      21.244   2.111  49.728  1.00  0.00     0.140 A 
HETATM   16  C19 UNL     1      23.328   2.861  50.457  1.00  0.00     0.046 A 
BRANCH  15  17
HETATM   17  N4  UNL     1      21.090   1.130  50.757  1.00  0.00    -0.357 N 
HETATM   18  C11 UNL     1      21.854  -0.075  51.111  1.00  0.00     0.152 C 
HETATM   19  C12 UNL     1      22.067  -0.087  52.606  1.00  0.00    -0.005 C 
HETATM   20  C13 UNL     1      20.962   0.143  53.307  1.00  0.00    -0.084 C 
HETATM   21  C14 UNL     1      20.944   0.176  54.776  1.00  0.00     0.043 C 
HETATM   22  C15 UNL     1      19.663   0.382  52.580  1.00  0.00     0.058 C 
HETATM   23  C16 UNL     1      19.931   1.466  51.560  1.00  0.00     0.086 C 
HETATM   24  C17 UNL     1      20.086   2.826  52.237  1.00  0.00     0.032 C 
ENDBRANCH  15  17
ENDBRANCH   5   7
ENDBRANCH   4   5
ENDBRANCH   3   4
TORSDOF 4
ENDMDL
