MODEL 1
REMARK VINA RESULT:      -9.1      0.000      0.000
REMARK  7 active torsions:
REMARK  status: ('A' for Active; 'I' for Inactive)
REMARK    1  A    between atoms: C5_5  and  C6_6 
REMARK       I    between atoms: C6_6  and  N1_8 
REMARK    2  A    between atoms: N1_8  and  C7_9 
REMARK    3  A    between atoms: C12_14  and  N2_15 
REMARK    4  A    between atoms: N2_15  and  C13_16 
REMARK    5  A    between atoms: C13_16  and  N5_27 
REMARK    6  A    between atoms: C14_18  and  C15_19 
REMARK    7  A    between atoms: C16_20  and  C17_21 
ROOT
HETATM    1  C7  UNL     1      27.121  -0.278  53.617  1.00  0.00     0.061 A 
HETATM    2  C8  UNL     1      27.971  -1.385  53.491  1.00  0.00     0.032 A 
HETATM    3  C9  UNL     1      29.335  -1.196  53.395  1.00  0.00     0.002 A 
HETATM    4  C10 UNL     1      29.835   0.089  53.426  1.00  0.00     0.002 A 
HETATM    5  C11 UNL     1      29.068   1.223  53.547  1.00  0.00     0.031 A 
HETATM    6  C12 UNL     1      27.726   0.951  53.637  1.00  0.00     0.058 A 
ENDROOT
BRANCH   6   7
HETATM    7  N2  UNL     1      26.776   2.012  53.753  1.00  0.00    -0.342 N 
HETATM    8  H11 UNL     1      26.426   2.473  54.619  1.00  0.00     0.164 HD
BRANCH   7   9
HETATM    9  C13 UNL     1      26.208   2.543  52.484  1.00  0.00     0.240 A 
HETATM   10  N3  UNL     1      27.177   2.879  50.893  1.00  0.00    -0.233 NA
HETATM   11  C14 UNL     1      26.134   3.075  50.889  1.00  0.00     0.120 A 
BRANCH  11  12
HETATM   12  C15 UNL     1      25.248   3.234  50.906  1.00  0.00     0.055 A 
HETATM   13  C16 UNL     1      24.247   3.395  50.940  1.00  0.00     0.121 A 
HETATM   14  N5  UNL     1      24.708   2.259  51.716  1.00  0.00    -0.209 NA
BRANCH  13  15
HETATM   15  C17 UNL     1      22.829   3.318  51.212  1.00  0.00    -0.009 A 
HETATM   16  C18 UNL     1      22.197   2.772  50.083  1.00  0.00     0.012 A 
HETATM   17  C19 UNL     1      20.805   2.587  50.083  1.00  0.00     0.020 A 
HETATM   18  C20 UNL     1      20.149   2.970  51.231  1.00  0.00     0.116 A 
HETATM   19  N4  UNL     1      20.741   3.504  52.340  1.00  0.00    -0.272 NA
HETATM   20  C21 UNL     1      22.097   3.677  52.324  1.00  0.00     0.126 A 
ENDBRANCH  13  15
ENDBRANCH  11  12
ENDBRANCH   7   9
ENDBRANCH   6   7
BRANCH   1  21
HETATM   21  N1  UNL     1      25.715  -0.408  53.731  1.00  0.00    -0.321 N 
HETATM   22  C6  UNL     1      24.719  -0.822  54.623  1.00  0.00     0.256 C 
HETATM   23  O1  UNL     1      25.180  -1.230  55.727  1.00  0.00    -0.267 OA
HETATM   24  H6  UNL     1      25.519  -0.031  52.760  1.00  0.00     0.169 HD
BRANCH  22  25
HETATM   25  C5  UNL     1      23.320  -0.754  54.227  1.00  0.00     0.032 A 
HETATM   26  C4  UNL     1      22.226  -1.134  54.970  1.00  0.00     0.017 A 
HETATM   27  C3  UNL     1      20.950  -0.997  54.464  1.00  0.00     0.007 A 
HETATM   28  C2  UNL     1      20.741  -0.468  53.182  1.00  0.00    -0.062 A 
HETATM   29  C1  UNL     1      19.354  -0.306  52.628  1.00  0.00     0.048 C 
HETATM   30  C23 UNL     1      21.867  -0.093  52.454  1.00  0.00     0.007 A 
HETATM   31  C22 UNL     1      23.143  -0.232  52.964  1.00  0.00     0.017 A 
ENDBRANCH  22  25
ENDBRANCH   1  21
TORSDOF 7
ENDMDL
MODEL 2
REMARK VINA RESULT:      -9.0      2.210      3.781
REMARK  7 active torsions:
REMARK  status: ('A' for Active; 'I' for Inactive)
REMARK    1  A    between atoms: C5_5  and  C6_6 
REMARK       I    between atoms: C6_6  and  N1_8 
REMARK    2  A    between atoms: N1_8  and  C7_9 
REMARK    3  A    between atoms: C12_14  and  N2_15 
REMARK    4  A    between atoms: N2_15  and  C13_16 
REMARK    5  A    between atoms: C13_16  and  N5_27 
REMARK    6  A    between atoms: C14_18  and  C15_19 
REMARK    7  A    between atoms: C16_20  and  C17_21 
ROOT
HETATM    1  C7  UNL     1      26.680   0.619  53.723  1.00  0.00     0.061 A 
HETATM    2  C8  UNL     1      27.710  -0.295  53.984  1.00  0.00     0.032 A 
HETATM    3  C9  UNL     1      29.023   0.129  53.970  1.00  0.00     0.002 A 
HETATM    4  C10 UNL     1      29.294   1.454  53.699  1.00  0.00     0.002 A 
HETATM    5  C11 UNL     1      28.342   2.409  53.434  1.00  0.00     0.031 A 
HETATM    6  C12 UNL     1      27.064   1.909  53.466  1.00  0.00     0.058 A 
ENDROOT
BRANCH   6   7
HETATM    7  N2  UNL     1      25.945   2.756  53.198  1.00  0.00    -0.342 N 
HETATM    8  H11 UNL     1      25.332   3.249  53.881  1.00  0.00     0.164 HD
BRANCH   7   9
HETATM    9  C13 UNL     1      25.604   2.981  51.768  1.00  0.00     0.240 A 
HETATM   10  N3  UNL     1      24.144   2.210  50.843  1.00  0.00    -0.233 NA
HETATM   11  C14 UNL     1      24.777   2.870  50.306  1.00  0.00     0.120 A 
BRANCH  11  12
HETATM   12  C15 UNL     1      25.326   3.434  49.868  1.00  0.00     0.055 A 
HETATM   13  C16 UNL     1      25.939   4.085  49.391  1.00  0.00     0.121 A 
HETATM   14  N5  UNL     1      25.237   4.637  50.534  1.00  0.00    -0.209 NA
BRANCH  13  15
HETATM   15  C17 UNL     1      26.686   5.252  48.976  1.00  0.00    -0.009 A 
HETATM   16  C18 UNL     1      27.977   4.838  48.612  1.00  0.00     0.012 A 
HETATM   17  C19 UNL     1      28.915   5.783  48.167  1.00  0.00     0.020 A 
HETATM   18  C20 UNL     1      28.477   7.088  48.122  1.00  0.00     0.116 A 
HETATM   19  N4  UNL     1      27.227   7.515  48.472  1.00  0.00    -0.272 NA
HETATM   20  C21 UNL     1      26.326   6.582  48.903  1.00  0.00     0.126 A 
ENDBRANCH  13  15
ENDBRANCH  11  12
ENDBRANCH   7   9
ENDBRANCH   6   7
BRANCH   1  21
HETATM   21  N1  UNL     1      25.312   0.248  53.734  1.00  0.00    -0.321 N 
HETATM   22  C6  UNL     1      24.417  -0.626  54.363  1.00  0.00     0.256 C 
HETATM   23  O1  UNL     1      24.967  -1.359  55.233  1.00  0.00    -0.267 OA
HETATM   24  H6  UNL     1      25.034   0.939  52.982  1.00  0.00     0.169 HD
BRANCH  22  25
HETATM   25  C5  UNL     1      23.012  -0.618  53.981  1.00  0.00     0.032 A 
HETATM   26  C4  UNL     1      22.439   0.065  52.933  1.00  0.00     0.017 A 
HETATM   27  C3  UNL     1      21.087  -0.035  52.682  1.00  0.00     0.007 A 
HETATM   28  C2  UNL     1      20.267  -0.836  53.491  1.00  0.00    -0.062 A 
HETATM   29  C1  UNL     1      18.794  -0.959  53.220  1.00  0.00     0.048 C 
HETATM   30  C23 UNL     1      20.875  -1.515  54.544  1.00  0.00     0.007 A 
HETATM   31  C22 UNL     1      22.229  -1.412  54.791  1.00  0.00     0.017 A 
ENDBRANCH  22  25
ENDBRANCH   1  21
TORSDOF 7
ENDMDL
MODEL 3
REMARK VINA RESULT:      -8.7      2.061      4.328
REMARK  7 active torsions:
REMARK  status: ('A' for Active; 'I' for Inactive)
REMARK    1  A    between atoms: C5_5  and  C6_6 
REMARK       I    between atoms: C6_6  and  N1_8 
REMARK    2  A    between atoms: N1_8  and  C7_9 
REMARK    3  A    between atoms: C12_14  and  N2_15 
REMARK    4  A    between atoms: N2_15  and  C13_16 
REMARK    5  A    between atoms: C13_16  and  N5_27 
REMARK    6  A    between atoms: C14_18  and  C15_19 
REMARK    7  A    between atoms: C16_20  and  C17_21 
ROOT
HETATM    1  C7  UNL     1      27.437   1.746  52.917  1.00  0.00     0.061 A 
HETATM    2  C8  UNL     1      28.394   2.454  53.656  1.00  0.00     0.032 A 
HETATM    3  C9  UNL     1      29.424   1.776  54.276  1.00  0.00     0.002 A 
HETATM    4  C10 UNL     1      29.489   0.404  54.152  1.00  0.00     0.002 A 
HETATM    5  C11 UNL     1      28.591  -0.361  53.446  1.00  0.00     0.031 A 
HETATM    6  C12 UNL     1      27.599   0.386  52.862  1.00  0.00     0.058 A 
ENDROOT
BRANCH   6   7
HETATM    7  N2  UNL     1      26.567  -0.244  52.100  1.00  0.00    -0.342 N 
HETATM    8  H11 UNL     1      26.652  -0.749  51.193  1.00  0.00     0.164 HD
BRANCH   7   9
HETATM    9  C13 UNL     1      25.191  -0.188  52.663  1.00  0.00     0.240 A 
HETATM   10  N3  UNL     1      24.672  -0.791  54.380  1.00  0.00    -0.233 NA
HETATM   11  C14 UNL     1      23.925  -0.365  53.758  1.00  0.00     0.120 A 
BRANCH  11  12
HETATM   12  C15 UNL     1      23.307   0.001  53.215  1.00  0.00     0.055 A 
HETATM   13  C16 UNL     1      22.598   0.394  52.606  1.00  0.00     0.121 A 
HETATM   14  N5  UNL     1      22.273  -0.908  53.158  1.00  0.00    -0.209 NA
BRANCH  13  15
HETATM   15  C17 UNL     1      21.408   0.629  51.819  1.00  0.00    -0.009 A 
HETATM   16  C18 UNL     1      21.802   0.872  50.493  1.00  0.00     0.012 A 
HETATM   17  C19 UNL     1      20.832   1.132  49.512  1.00  0.00     0.020 A 
HETATM   18  C20 UNL     1      19.525   1.128  49.945  1.00  0.00     0.116 A 
HETATM   19  N4  UNL     1      19.117   0.895  51.228  1.00  0.00    -0.272 NA
HETATM   20  C21 UNL     1      20.074   0.643  52.170  1.00  0.00     0.126 A 
ENDBRANCH  13  15
ENDBRANCH  11  12
ENDBRANCH   7   9
ENDBRANCH   6   7
BRANCH   1  21
HETATM   21  N1  UNL     1      26.363   2.386  52.250  1.00  0.00    -0.321 N 
HETATM   22  C6  UNL     1      26.051   3.049  51.056  1.00  0.00     0.256 C 
HETATM   23  O1  UNL     1      27.032   3.129  50.263  1.00  0.00    -0.267 OA
HETATM   24  H6  UNL     1      25.669   2.219  53.032  1.00  0.00     0.169 HD
BRANCH  22  25
HETATM   25  C5  UNL     1      24.705   3.560  50.845  1.00  0.00     0.032 A 
HETATM   26  C4  UNL     1      24.116   3.878  49.644  1.00  0.00     0.017 A 
HETATM   27  C3  UNL     1      22.818   4.342  49.597  1.00  0.00     0.007 A 
HETATM   28  C2  UNL     1      22.072   4.499  50.774  1.00  0.00    -0.062 A 
HETATM   29  C1  UNL     1      20.654   4.994  50.732  1.00  0.00     0.048 C 
HETATM   30  C23 UNL     1      22.695   4.169  51.975  1.00  0.00     0.007 A 
HETATM   31  C22 UNL     1      23.994   3.705  52.017  1.00  0.00     0.017 A 
ENDBRANCH  22  25
ENDBRANCH   1  21
TORSDOF 7
ENDMDL
MODEL 4
REMARK VINA RESULT:      -8.6      2.263      6.156
REMARK  7 active torsions:
REMARK  status: ('A' for Active; 'I' for Inactive)
REMARK    1  A    between atoms: C5_5  and  C6_6 
REMARK       I    between atoms: C6_6  and  N1_8 
REMARK    2  A    between atoms: N1_8  and  C7_9 
REMARK    3  A    between atoms: C12_14  and  N2_15 
REMARK    4  A    between atoms: N2_15  and  C13_16 
REMARK    5  A    between atoms: C13_16  and  N5_27 
REMARK    6  A    between atoms: C14_18  and  C15_19 
REMARK    7  A    between atoms: C16_20  and  C17_21 
ROOT
HETATM    1  C7  UNL     1      24.198   4.624  50.889  1.00  0.00     0.061 A 
HETATM    2  C8  UNL     1      24.087   5.880  51.502  1.00  0.00     0.032 A 
HETATM    3  C9  UNL     1      23.378   6.887  50.879  1.00  0.00     0.002 A 
HETATM    4  C10 UNL     1      22.790   6.633  49.658  1.00  0.00     0.002 A 
HETATM    5  C11 UNL     1      22.853   5.431  48.995  1.00  0.00     0.031 A 
HETATM    6  C12 UNL     1      23.575   4.484  49.678  1.00  0.00     0.058 A 
ENDROOT
BRANCH   6   7
HETATM    7  N2  UNL     1      23.759   3.177  49.130  1.00  0.00    -0.342 N 
HETATM    8  H11 UNL     1      24.572   2.812  48.592  1.00  0.00     0.164 HD
BRANCH   7   9
HETATM    9  C13 UNL     1      22.661   2.197  49.355  1.00  0.00     0.240 A 
HETATM   10  N3  UNL     1      21.357   1.684  48.084  1.00  0.00    -0.233 NA
HETATM   11  C14 UNL     1      21.317   1.233  49.044  1.00  0.00     0.120 A 
BRANCH  11  12
HETATM   12  C15 UNL     1      21.302   0.862  49.864  1.00  0.00     0.055 A 
HETATM   13  C16 UNL     1      21.287   0.465  50.797  1.00  0.00     0.121 A 
HETATM   14  N5  UNL     1      21.383   1.912  50.752  1.00  0.00    -0.209 NA
BRANCH  13  15
HETATM   15  C17 UNL     1      21.293   0.264  52.229  1.00  0.00    -0.009 A 
HETATM   16  C18 UNL     1      22.409  -0.524  52.555  1.00  0.00     0.012 A 
HETATM   17  C19 UNL     1      22.653  -0.870  53.893  1.00  0.00     0.020 A 
HETATM   18  C20 UNL     1      21.745  -0.392  54.812  1.00  0.00     0.116 A 
HETATM   19  N4  UNL     1      20.652   0.375  54.520  1.00  0.00    -0.272 NA
HETATM   20  C21 UNL     1      20.430   0.703  53.212  1.00  0.00     0.126 A 
ENDBRANCH  13  15
ENDBRANCH  11  12
ENDBRANCH   7   9
ENDBRANCH   6   7
BRANCH   1  21
HETATM   21  N1  UNL     1      24.902   3.547  51.483  1.00  0.00    -0.321 N 
HETATM   22  C6  UNL     1      24.800   2.602  52.511  1.00  0.00     0.256 C 
HETATM   23  O1  UNL     1      23.724   2.698  53.167  1.00  0.00    -0.267 OA
HETATM   24  H6  UNL     1      25.730   3.618  50.825  1.00  0.00     0.169 HD
BRANCH  22  25
HETATM   25  C5  UNL     1      25.879   1.649  52.725  1.00  0.00     0.032 A 
HETATM   26  C4  UNL     1      25.998   0.392  52.179  1.00  0.00     0.017 A 
HETATM   27  C3  UNL     1      27.091  -0.399  52.464  1.00  0.00     0.007 A 
HETATM   28  C2  UNL     1      28.104   0.062  53.317  1.00  0.00    -0.062 A 
HETATM   29  C1  UNL     1      29.304  -0.789  53.626  1.00  0.00     0.048 C 
HETATM   30  C23 UNL     1      27.956   1.338  53.855  1.00  0.00     0.007 A 
HETATM   31  C22 UNL     1      26.860   2.126  53.567  1.00  0.00     0.017 A 
ENDBRANCH  22  25
ENDBRANCH   1  21
TORSDOF 7
ENDMDL
MODEL 5
REMARK VINA RESULT:      -8.6      2.619      5.019
REMARK  7 active torsions:
REMARK  status: ('A' for Active; 'I' for Inactive)
REMARK    1  A    between atoms: C5_5  and  C6_6 
REMARK       I    between atoms: C6_6  and  N1_8 
REMARK    2  A    between atoms: N1_8  and  C7_9 
REMARK    3  A    between atoms: C12_14  and  N2_15 
REMARK    4  A    between atoms: N2_15  and  C13_16 
REMARK    5  A    between atoms: C13_16  and  N5_27 
REMARK    6  A    between atoms: C14_18  and  C15_19 
REMARK    7  A    between atoms: C16_20  and  C17_21 
ROOT
HETATM    1  C7  UNL     1      25.907   4.733  50.099  1.00  0.00     0.061 A 
HETATM    2  C8  UNL     1      26.798   4.671  49.018  1.00  0.00     0.032 A 
HETATM    3  C9  UNL     1      27.100   5.818  48.312  1.00  0.00     0.002 A 
HETATM    4  C10 UNL     1      26.514   7.008  48.688  1.00  0.00     0.002 A 
HETATM    5  C11 UNL     1      25.633   7.149  49.733  1.00  0.00     0.031 A 
HETATM    6  C12 UNL     1      25.385   5.967  50.384  1.00  0.00     0.058 A 
ENDROOT
BRANCH   6   7
HETATM    7  N2  UNL     1      24.479   5.921  51.489  1.00  0.00    -0.342 N 
HETATM    8  H11 UNL     1      24.700   5.966  52.505  1.00  0.00     0.164 HD
BRANCH   7   9
HETATM    9  C13 UNL     1      23.032   5.804  51.163  1.00  0.00     0.240 A 
HETATM   10  N3  UNL     1      21.858   7.244  50.803  1.00  0.00    -0.233 NA
HETATM   11  C14 UNL     1      21.462   6.260  50.763  1.00  0.00     0.120 A 
BRANCH  11  12
HETATM   12  C15 UNL     1      21.147   5.417  50.734  1.00  0.00     0.055 A 
HETATM   13  C16 UNL     1      20.803   4.463  50.720  1.00  0.00     0.121 A 
HETATM   14  N5  UNL     1      21.630   4.796  51.865  1.00  0.00    -0.209 NA
BRANCH  13  15
HETATM   15  C17 UNL     1      20.508   3.080  51.026  1.00  0.00    -0.009 A 
HETATM   16  C18 UNL     1      21.152   2.276  50.072  1.00  0.00     0.012 A 
HETATM   17  C19 UNL     1      21.028   0.879  50.138  1.00  0.00     0.020 A 
HETATM   18  C20 UNL     1      20.258   0.393  51.171  1.00  0.00     0.116 A 
HETATM   19  N4  UNL     1      19.623   1.155  52.111  1.00  0.00    -0.272 NA
HETATM   20  C21 UNL     1      19.753   2.513  52.032  1.00  0.00     0.126 A 
ENDBRANCH  13  15
ENDBRANCH  11  12
ENDBRANCH   7   9
ENDBRANCH   6   7
BRANCH   1  21
HETATM   21  N1  UNL     1      25.567   3.594  50.870  1.00  0.00    -0.321 N 
HETATM   22  C6  UNL     1      26.145   2.553  51.606  1.00  0.00     0.256 C 
HETATM   23  O1  UNL     1      27.408   2.599  51.622  1.00  0.00    -0.267 OA
HETATM   24  H6  UNL     1      24.522   3.722  50.748  1.00  0.00     0.169 HD
BRANCH  22  25
HETATM   25  C5  UNL     1      25.294   1.564  52.250  1.00  0.00     0.032 A 
HETATM   26  C4  UNL     1      25.633   0.278  52.603  1.00  0.00     0.017 A 
HETATM   27  C3  UNL     1      24.719  -0.547  53.224  1.00  0.00     0.007 A 
HETATM   28  C2  UNL     1      23.423  -0.091  53.508  1.00  0.00    -0.062 A 
HETATM   29  C1  UNL     1      22.423  -0.979  54.194  1.00  0.00     0.048 C 
HETATM   30  C23 UNL     1      23.108   1.214  53.139  1.00  0.00     0.007 A 
HETATM   31  C22 UNL     1      24.027   2.036  52.518  1.00  0.00     0.017 A 
ENDBRANCH  22  25
ENDBRANCH   1  21
TORSDOF 7
ENDMDL
MODEL 6
REMARK VINA RESULT:      -8.6      2.553      7.825
REMARK  7 active torsions:
REMARK  status: ('A' for Active; 'I' for Inactive)
REMARK    1  A    between atoms: C5_5  and  C6_6 
REMARK       I    between atoms: C6_6  and  N1_8 
REMARK    2  A    between atoms: N1_8  and  C7_9 
REMARK    3  A    between atoms: C12_14  and  N2_15 
REMARK    4  A    between atoms: N2_15  and  C13_16 
REMARK    5  A    between atoms: C13_16  and  N5_27 
REMARK    6  A    between atoms: C14_18  and  C15_19 
REMARK    7  A    between atoms: C16_20  and  C17_21 
ROOT
HETATM    1  C7  UNL     1      21.643   1.950  50.527  1.00  0.00     0.061 A 
HETATM    2  C8  UNL     1      20.604   1.589  49.659  1.00  0.00     0.032 A 
HETATM    3  C9  UNL     1      19.586   0.772  50.108  1.00  0.00     0.002 A 
HETATM    4  C10 UNL     1      19.615   0.327  51.413  1.00  0.00     0.002 A 
HETATM    5  C11 UNL     1      20.597   0.636  52.323  1.00  0.00     0.031 A 
HETATM    6  C12 UNL     1      21.570   1.450  51.800  1.00  0.00     0.058 A 
ENDROOT
BRANCH   6   7
HETATM    7  N2  UNL     1      22.680   1.862  52.601  1.00  0.00    -0.342 N 
HETATM    8  H11 UNL     1      22.939   2.827  52.896  1.00  0.00     0.164 HD
BRANCH   7   9
HETATM    9  C13 UNL     1      23.587   0.789  53.089  1.00  0.00     0.240 A 
HETATM   10  N3  UNL     1      23.058  -0.763  54.035  1.00  0.00    -0.233 NA
HETATM   11  C14 UNL     1      24.090  -0.642  53.820  1.00  0.00     0.120 A 
BRANCH  11  12
HETATM   12  C15 UNL     1      24.961  -0.519  53.628  1.00  0.00     0.055 A 
HETATM   13  C16 UNL     1      25.948  -0.385  53.434  1.00  0.00     0.121 A 
HETATM   14  N5  UNL     1      25.633  -0.662  54.823  1.00  0.00    -0.209 NA
BRANCH  13  15
HETATM   15  C17 UNL     1      27.385  -0.253  53.530  1.00  0.00    -0.009 A 
HETATM   16  C18 UNL     1      27.960  -1.487  53.186  1.00  0.00     0.012 A 
HETATM   17  C19 UNL     1      29.356  -1.635  53.198  1.00  0.00     0.020 A 
HETATM   18  C20 UNL     1      30.074  -0.517  53.560  1.00  0.00     0.116 A 
HETATM   19  N4  UNL     1      29.538   0.693  53.899  1.00  0.00    -0.272 NA
HETATM   20  C21 UNL     1      28.177   0.820  53.882  1.00  0.00     0.126 A 
ENDBRANCH  13  15
ENDBRANCH  11  12
ENDBRANCH   7   9
ENDBRANCH   6   7
BRANCH   1  21
HETATM   21  N1  UNL     1      22.709   2.794  50.129  1.00  0.00    -0.321 N 
HETATM   22  C6  UNL     1      22.994   4.128  49.811  1.00  0.00     0.256 C 
HETATM   23  O1  UNL     1      21.985   4.884  49.895  1.00  0.00    -0.267 OA
HETATM   24  H6  UNL     1      23.429   2.017  50.118  1.00  0.00     0.169 HD
BRANCH  22  25
HETATM   25  C5  UNL     1      24.347   4.506  49.431  1.00  0.00     0.032 A 
HETATM   26  C4  UNL     1      24.762   5.719  48.931  1.00  0.00     0.017 A 
HETATM   27  C3  UNL     1      26.089   5.939  48.626  1.00  0.00     0.007 A 
HETATM   28  C2  UNL     1      27.044   4.930  48.822  1.00  0.00    -0.062 A 
HETATM   29  C1  UNL     1      28.493   5.164  48.503  1.00  0.00     0.048 C 
HETATM   30  C23 UNL     1      26.595   3.714  49.330  1.00  0.00     0.007 A 
HETATM   31  C22 UNL     1      25.265   3.498  49.633  1.00  0.00     0.017 A 
ENDBRANCH  22  25
ENDBRANCH   1  21
TORSDOF 7
ENDMDL
MODEL 7
REMARK VINA RESULT:      -8.5      3.225      6.749
REMARK  7 active torsions:
REMARK  status: ('A' for Active; 'I' for Inactive)
REMARK    1  A    between atoms: C5_5  and  C6_6 
REMARK       I    between atoms: C6_6  and  N1_8 
REMARK    2  A    between atoms: N1_8  and  C7_9 
REMARK    3  A    between atoms: C12_14  and  N2_15 
REMARK    4  A    between atoms: N2_15  and  C13_16 
REMARK    5  A    between atoms: C13_16  and  N5_27 
REMARK    6  A    between atoms: C14_18  and  C15_19 
REMARK    7  A    between atoms: C16_20  and  C17_21 
ROOT
HETATM    1  C7  UNL     1      26.052   2.468  51.539  1.00  0.00     0.061 A 
HETATM    2  C8  UNL     1      26.681   1.216  51.512  1.00  0.00     0.032 A 
HETATM    3  C9  UNL     1      26.314   0.243  52.419  1.00  0.00     0.002 A 
HETATM    4  C10 UNL     1      25.327   0.527  53.340  1.00  0.00     0.002 A 
HETATM    5  C11 UNL     1      24.665   1.728  53.430  1.00  0.00     0.031 A 
HETATM    6  C12 UNL     1      25.087   2.640  52.496  1.00  0.00     0.058 A 
ENDROOT
BRANCH   6   7
HETATM    7  N2  UNL     1      24.519   3.951  52.451  1.00  0.00    -0.342 N 
HETATM    8  H11 UNL     1      25.005   4.868  52.540  1.00  0.00     0.164 HD
BRANCH   7   9
HETATM    9  C13 UNL     1      23.048   4.035  52.244  1.00  0.00     0.240 A 
HETATM   10  N3  UNL     1      22.121   5.482  51.453  1.00  0.00    -0.233 NA
HETATM   11  C14 UNL     1      21.552   4.646  51.774  1.00  0.00     0.120 A 
BRANCH  11  12
HETATM   12  C15 UNL     1      21.088   3.927  52.052  1.00  0.00     0.055 A 
HETATM   13  C16 UNL     1      20.578   3.103  52.353  1.00  0.00     0.121 A 
HETATM   14  N5  UNL     1      21.644   2.847  51.402  1.00  0.00    -0.209 NA
BRANCH  13  15
HETATM   15  C17 UNL     1      20.092   1.754  52.544  1.00  0.00    -0.009 A 
HETATM   16  C18 UNL     1      20.814   1.176  53.601  1.00  0.00     0.012 A 
HETATM   17  C19 UNL     1      20.539  -0.142  53.997  1.00  0.00     0.020 A 
HETATM   18  C20 UNL     1      19.546  -0.785  53.291  1.00  0.00     0.116 A 
HETATM   19  N4  UNL     1      18.831  -0.244  52.260  1.00  0.00    -0.272 NA
HETATM   20  C21 UNL     1      19.112   1.040  51.888  1.00  0.00     0.126 A 
ENDBRANCH  13  15
ENDBRANCH  11  12
ENDBRANCH   7   9
ENDBRANCH   6   7
BRANCH   1  21
HETATM   21  N1  UNL     1      26.377   3.503  50.628  1.00  0.00    -0.321 N 
HETATM   22  C6  UNL     1      25.857   4.207  49.535  1.00  0.00     0.256 C 
HETATM   23  O1  UNL     1      24.696   3.829  49.208  1.00  0.00    -0.267 OA
HETATM   24  H6  UNL     1      27.333   3.683  51.046  1.00  0.00     0.169 HD
BRANCH  22  25
HETATM   25  C5  UNL     1      26.652   5.250  48.904  1.00  0.00     0.032 A 
HETATM   26  C4  UNL     1      26.240   6.518  48.565  1.00  0.00     0.017 A 
HETATM   27  C3  UNL     1      27.115   7.411  47.981  1.00  0.00     0.007 A 
HETATM   28  C2  UNL     1      28.443   7.043  47.721  1.00  0.00    -0.062 A 
HETATM   29  C1  UNL     1      29.406   8.011  47.094  1.00  0.00     0.048 C 
HETATM   30  C23 UNL     1      28.831   5.753  48.074  1.00  0.00     0.007 A 
HETATM   31  C22 UNL     1      27.951   4.864  48.659  1.00  0.00     0.017 A 
ENDBRANCH  22  25
ENDBRANCH   1  21
TORSDOF 7
ENDMDL
MODEL 8
REMARK VINA RESULT:      -8.5      3.879      8.165
REMARK  7 active torsions:
REMARK  status: ('A' for Active; 'I' for Inactive)
REMARK    1  A    between atoms: C5_5  and  C6_6 
REMARK       I    between atoms: C6_6  and  N1_8 
REMARK    2  A    between atoms: N1_8  and  C7_9 
REMARK    3  A    between atoms: C12_14  and  N2_15 
REMARK    4  A    between atoms: N2_15  and  C13_16 
REMARK    5  A    between atoms: C13_16  and  N5_27 
REMARK    6  A    between atoms: C14_18  and  C15_19 
REMARK    7  A    between atoms: C16_20  and  C17_21 
ROOT
HETATM    1  C7  UNL     1      25.023   4.061  49.478  1.00  0.00     0.061 A 
HETATM    2  C8  UNL     1      23.776   4.107  48.840  1.00  0.00     0.032 A 
HETATM    3  C9  UNL     1      22.717   3.383  49.349  1.00  0.00     0.002 A 
HETATM    4  C10 UNL     1      22.911   2.625  50.484  1.00  0.00     0.002 A 
HETATM    5  C11 UNL     1      24.101   2.528  51.166  1.00  0.00     0.031 A 
HETATM    6  C12 UNL     1      25.102   3.275  50.597  1.00  0.00     0.058 A 
ENDROOT
BRANCH   6   7
HETATM    7  N2  UNL     1      26.414   3.283  51.164  1.00  0.00    -0.342 N 
HETATM    8  H11 UNL     1      27.186   3.961  50.993  1.00  0.00     0.164 HD
BRANCH   7   9
HETATM    9  C13 UNL     1      26.731   2.197  52.131  1.00  0.00     0.240 A 
HETATM   10  N3  UNL     1      28.414   1.892  52.940  1.00  0.00    -0.233 NA
HETATM   11  C14 UNL     1      27.615   1.242  53.198  1.00  0.00     0.120 A 
BRANCH  11  12
HETATM   12  C15 UNL     1      26.924   0.703  53.403  1.00  0.00     0.055 A 
HETATM   13  C16 UNL     1      26.138   0.111  53.649  1.00  0.00     0.121 A 
HETATM   14  N5  UNL     1      26.190   1.379  54.353  1.00  0.00    -0.209 NA
BRANCH  13  15
HETATM   15  C17 UNL     1      24.937  -0.443  54.233  1.00  0.00    -0.009 A 
HETATM   16  C18 UNL     1      23.877  -0.233  53.336  1.00  0.00     0.012 A 
HETATM   17  C19 UNL     1      22.587  -0.680  53.661  1.00  0.00     0.020 A 
HETATM   18  C20 UNL     1      22.460  -1.310  54.878  1.00  0.00     0.116 A 
HETATM   19  N4  UNL     1      23.474  -1.526  55.768  1.00  0.00    -0.272 NA
HETATM   20  C21 UNL     1      24.724  -1.085  55.436  1.00  0.00     0.126 A 
ENDBRANCH  13  15
ENDBRANCH  11  12
ENDBRANCH   7   9
ENDBRANCH   6   7
BRANCH   1  21
HETATM   21  N1  UNL     1      26.144   4.790  49.011  1.00  0.00    -0.321 N 
HETATM   22  C6  UNL     1      26.651   6.093  48.930  1.00  0.00     0.256 C 
HETATM   23  O1  UNL     1      25.881   6.957  49.438  1.00  0.00    -0.267 OA
HETATM   24  H6  UNL     1      26.651   3.935  48.643  1.00  0.00     0.169 HD
BRANCH  22  25
HETATM   25  C5  UNL     1      27.944   6.327  48.304  1.00  0.00     0.032 A 
HETATM   26  C4  UNL     1      29.075   5.552  48.417  1.00  0.00     0.017 A 
HETATM   27  C3  UNL     1      30.233   5.894  47.749  1.00  0.00     0.007 A 
HETATM   28  C2  UNL     1      30.279   7.039  46.940  1.00  0.00    -0.062 A 
HETATM   29  C1  UNL     1      31.533   7.414  46.201  1.00  0.00     0.048 C 
HETATM   30  C23 UNL     1      29.120   7.804  46.846  1.00  0.00     0.007 A 
HETATM   31  C22 UNL     1      27.964   7.458  47.516  1.00  0.00     0.017 A 
ENDBRANCH  22  25
ENDBRANCH   1  21
TORSDOF 7
ENDMDL
MODEL 9
REMARK VINA RESULT:      -8.2      2.538      6.244
REMARK  7 active torsions:
REMARK  status: ('A' for Active; 'I' for Inactive)
REMARK    1  A    between atoms: C5_5  and  C6_6 
REMARK       I    between atoms: C6_6  and  N1_8 
REMARK    2  A    between atoms: N1_8  and  C7_9 
REMARK    3  A    between atoms: C12_14  and  N2_15 
REMARK    4  A    between atoms: N2_15  and  C13_16 
REMARK    5  A    between atoms: C13_16  and  N5_27 
REMARK    6  A    between atoms: C14_18  and  C15_19 
REMARK    7  A    between atoms: C16_20  and  C17_21 
ROOT
HETATM    1  C7  UNL     1      25.210   5.291  50.376  1.00  0.00     0.061 A 
HETATM    2  C8  UNL     1      25.679   5.776  49.148  1.00  0.00     0.032 A 
HETATM    3  C9  UNL     1      25.201   6.973  48.654  1.00  0.00     0.002 A 
HETATM    4  C10 UNL     1      24.266   7.672  49.388  1.00  0.00     0.002 A 
HETATM    5  C11 UNL     1      23.758   7.264  50.598  1.00  0.00     0.031 A 
HETATM    6  C12 UNL     1      24.282   6.067  51.019  1.00  0.00     0.058 A 
ENDROOT
BRANCH   6   7
HETATM    7  N2  UNL     1      23.857   5.481  52.251  1.00  0.00    -0.342 N 
HETATM    8  H11 UNL     1      24.292   5.574  53.193  1.00  0.00     0.164 HD
BRANCH   7   9
HETATM    9  C13 UNL     1      22.636   4.633  52.202  1.00  0.00     0.240 A 
HETATM   10  N3  UNL     1      21.055   5.023  51.238  1.00  0.00    -0.233 NA
HETATM   11  C14 UNL     1      21.088   4.117  51.790  1.00  0.00     0.120 A 
BRANCH  11  12
HETATM   12  C15 UNL     1      21.136   3.353  52.264  1.00  0.00     0.055 A 
HETATM   13  C16 UNL     1      21.190   2.481  52.779  1.00  0.00     0.121 A 
HETATM   14  N5  UNL     1      21.067   2.333  51.341  1.00  0.00    -0.209 NA
BRANCH  13  15
HETATM   15  C17 UNL     1      21.235   1.088  53.165  1.00  0.00    -0.009 A 
HETATM   16  C18 UNL     1      22.582   0.714  53.293  1.00  0.00     0.012 A 
HETATM   17  C19 UNL     1      22.910  -0.600  53.663  1.00  0.00     0.020 A 
HETATM   18  C20 UNL     1      21.846  -1.447  53.877  1.00  0.00     0.116 A 
HETATM   19  N4  UNL     1      20.528  -1.106  53.757  1.00  0.00    -0.272 NA
HETATM   20  C21 UNL     1      20.226   0.177  53.397  1.00  0.00     0.126 A 
ENDBRANCH  13  15
ENDBRANCH  11  12
ENDBRANCH   7   9
ENDBRANCH   6   7
BRANCH   1  21
HETATM   21  N1  UNL     1      25.670   4.076  50.941  1.00  0.00    -0.321 N 
HETATM   22  C6  UNL     1      25.367   2.710  51.004  1.00  0.00     0.256 C 
HETATM   23  O1  UNL     1      24.335   2.400  50.344  1.00  0.00    -0.267 OA
HETATM   24  H6  UNL     1      26.500   4.520  51.427  1.00  0.00     0.169 HD
BRANCH  22  25
HETATM   25  C5  UNL     1      26.215   1.817  51.780  1.00  0.00     0.032 A 
HETATM   26  C4  UNL     1      26.064   0.460  51.941  1.00  0.00     0.017 A 
HETATM   27  C3  UNL     1      26.960  -0.263  52.701  1.00  0.00     0.007 A 
HETATM   28  C2  UNL     1      28.044   0.372  53.324  1.00  0.00    -0.062 A 
HETATM   29  C1  UNL     1      29.032  -0.409  54.144  1.00  0.00     0.048 C 
HETATM   30  C23 UNL     1      28.171   1.747  53.143  1.00  0.00     0.007 A 
HETATM   31  C22 UNL     1      27.271   2.466  52.381  1.00  0.00     0.017 A 
ENDBRANCH  22  25
ENDBRANCH   1  21
TORSDOF 7
ENDMDL
