MODEL 1
REMARK VINA RESULT:     -10.4      0.000      0.000
REMARK  2 active torsions:
REMARK  status: ('A' for Active; 'I' for Inactive)
REMARK    1  A    between atoms: C9_9  and  C10_10 
REMARK    2  A    between atoms: C10_10  and  C11_11 
ROOT
HETATM    1  C1  UNL     1      24.002   7.375  47.345  1.00  0.00    -0.021 C 
HETATM    2  C2  UNL     1      25.049   6.935  48.031  1.00  0.00    -0.007 C 
HETATM    3  C3  UNL     1      25.179   6.070  49.193  1.00  0.00    -0.017 C 
HETATM    4  C4  UNL     1      24.821   5.286  50.193  1.00  0.00     0.051 C 
HETATM    5  C5  UNL     1      23.623   4.662  50.873  1.00  0.00    -0.042 C 
HETATM    6  C6  UNL     1      24.167   4.011  51.894  1.00  0.00    -0.017 C 
HETATM    7  C7  UNL     1      24.148   3.175  53.083  1.00  0.00     0.055 C 
HETATM    8  C8  UNL     1      24.801   1.868  52.987  1.00  0.00    -0.013 C 
HETATM    9  C9  UNL     1      24.350   0.612  53.157  1.00  0.00    -0.028 C 
HETATM   10  C16 UNL     1      23.000   0.218  53.503  1.00  0.00     0.083 A 
HETATM   11  C17 UNL     1      22.565  -0.752  54.379  1.00  0.00     0.052 A 
HETATM   12  C18 UNL     1      21.202  -0.945  54.569  1.00  0.00     0.139 A 
HETATM   13  N2  UNL     1      20.336  -0.139  53.854  1.00  0.00    -0.075 NA
HETATM   14  C19 UNL     1      20.848   0.783  53.018  1.00  0.00     0.723 A 
HETATM   15  N3  UNL     1      22.167   0.984  52.823  1.00  0.00    -0.063 NA
HETATM   16  N4  UNL     1      20.112   1.719  52.204  1.00  0.00    -0.215 N 
HETATM   17  C20 UNL     1      20.580   3.054  51.997  1.00  0.00     0.130 C 
HETATM   18  C21 UNL     1      21.242   4.072  51.495  1.00  0.00     0.057 C 
HETATM   19  C22 UNL     1      22.207   4.569  50.530  1.00  0.00     0.256 C 
HETATM   20  N5  UNL     1      21.697   5.794  49.885  1.00  0.00     0.092 N 
HETATM   21  C23 UNL     1      20.668   5.441  48.983  1.00  0.00     0.271 C 
HETATM   22  C24 UNL     1      20.235   6.535  48.070  1.00  0.00     0.036 C 
HETATM   23  C25 UNL     1      21.381   7.201  47.377  1.00  0.00     0.000 C 
HETATM   24  C26 UNL     1      22.652   6.911  47.809  1.00  0.00     0.020 C 
HETATM   25  H17 UNL     1      19.238   1.301  51.822  1.00  0.00     0.178 HD
HETATM   26  H21 UNL     1      21.220   6.270  50.708  1.00  0.00     0.316 HD
ENDROOT
BRANCH   9  27
HETATM   27  C10 UNL     1      25.150  -0.648  53.024  1.00  0.00     0.080 C 
BRANCH  27  28
HETATM   28  C11 UNL     1      26.526  -0.468  53.577  1.00  0.00    -0.036 A 
HETATM   29  C12 UNL     1      27.615  -0.781  52.788  1.00  0.00     0.010 A 
HETATM   30  C13 UNL     1      28.909  -0.626  53.273  1.00  0.00     0.020 A 
HETATM   31  C14 UNL     1      28.998  -0.143  54.583  1.00  0.00     0.116 A 
HETATM   32  N1  UNL     1      27.917   0.154  55.327  1.00  0.00    -0.273 NA
HETATM   33  C15 UNL     1      26.657   0.008  54.868  1.00  0.00     0.123 A 
ENDBRANCH  27  28
ENDBRANCH   9  27
TORSDOF 2
ENDMDL
MODEL 2
REMARK VINA RESULT:      -9.9      2.639      8.128
REMARK  2 active torsions:
REMARK  status: ('A' for Active; 'I' for Inactive)
REMARK    1  A    between atoms: C9_9  and  C10_10 
REMARK    2  A    between atoms: C10_10  and  C11_11 
ROOT
HETATM    1  C1  UNL     1      26.022  -0.982  53.569  1.00  0.00    -0.021 C 
HETATM    2  C2  UNL     1      26.946  -0.387  52.826  1.00  0.00    -0.007 C 
HETATM    3  C3  UNL     1      26.905   0.742  51.910  1.00  0.00    -0.017 C 
HETATM    4  C4  UNL     1      26.411   1.753  51.221  1.00  0.00     0.051 C 
HETATM    5  C5  UNL     1      25.142   2.531  50.955  1.00  0.00    -0.042 C 
HETATM    6  C6  UNL     1      25.523   3.417  50.042  1.00  0.00    -0.017 C 
HETATM    7  C7  UNL     1      25.329   4.525  49.122  1.00  0.00     0.055 C 
HETATM    8  C8  UNL     1      26.053   5.764  49.411  1.00  0.00    -0.013 C 
HETATM    9  C9  UNL     1      25.643   7.024  49.644  1.00  0.00    -0.028 C 
HETATM   10  C16 UNL     1      24.274   7.496  49.668  1.00  0.00     0.083 A 
HETATM   11  C17 UNL     1      23.736   8.657  49.157  1.00  0.00     0.052 A 
HETATM   12  C18 UNL     1      22.373   8.896  49.283  1.00  0.00     0.139 A 
HETATM   13  N2  UNL     1      21.612   7.938  49.928  1.00  0.00    -0.075 NA
HETATM   14  C19 UNL     1      22.221   6.834  50.398  1.00  0.00     0.723 A 
HETATM   15  N3  UNL     1      23.542   6.586  50.284  1.00  0.00    -0.063 NA
HETATM   16  N4  UNL     1      21.600   5.725  51.080  1.00  0.00    -0.215 N 
HETATM   17  C20 UNL     1      22.030   4.380  50.859  1.00  0.00     0.130 C 
HETATM   18  C21 UNL     1      22.720   3.267  50.961  1.00  0.00     0.057 C 
HETATM   19  C22 UNL     1      23.819   2.540  51.573  1.00  0.00     0.256 C 
HETATM   20  N5  UNL     1      23.374   1.194  51.980  1.00  0.00     0.092 N 
HETATM   21  C23 UNL     1      22.546   1.311  53.120  1.00  0.00     0.271 C 
HETATM   22  C24 UNL     1      22.233   0.024  53.800  1.00  0.00     0.036 C 
HETATM   23  C25 UNL     1      23.451  -0.797  54.077  1.00  0.00     0.000 C 
HETATM   24  C26 UNL     1      24.634  -0.412  53.497  1.00  0.00     0.020 C 
HETATM   25  H17 UNL     1      20.833   6.037  51.712  1.00  0.00     0.178 HD
HETATM   26  H21 UNL     1      22.731   0.941  51.171  1.00  0.00     0.316 HD
ENDROOT
BRANCH   9  27
HETATM   27  C10 UNL     1      26.516   8.207  49.929  1.00  0.00     0.080 C 
BRANCH  27  28
HETATM   28  C11 UNL     1      27.494   8.429  48.821  1.00  0.00    -0.036 A 
HETATM   29  C12 UNL     1      27.077   8.266  47.514  1.00  0.00     0.010 A 
HETATM   30  C13 UNL     1      27.963   8.463  46.460  1.00  0.00     0.020 A 
HETATM   31  C14 UNL     1      29.261   8.828  46.835  1.00  0.00     0.116 A 
HETATM   32  N1  UNL     1      29.635   8.979  48.118  1.00  0.00    -0.273 NA
HETATM   33  C15 UNL     1      28.787   8.790  49.149  1.00  0.00     0.123 A 
ENDBRANCH  27  28
ENDBRANCH   9  27
TORSDOF 2
ENDMDL
MODEL 3
REMARK VINA RESULT:      -9.7      1.091      1.280
REMARK  2 active torsions:
REMARK  status: ('A' for Active; 'I' for Inactive)
REMARK    1  A    between atoms: C9_9  and  C10_10 
REMARK    2  A    between atoms: C10_10  and  C11_11 
ROOT
HETATM    1  C1  UNL     1      25.601   7.730  47.154  1.00  0.00    -0.021 C 
HETATM    2  C2  UNL     1      26.380   7.235  48.107  1.00  0.00    -0.007 C 
HETATM    3  C3  UNL     1      26.118   6.387  49.259  1.00  0.00    -0.017 C 
HETATM    4  C4  UNL     1      25.441   5.649  50.119  1.00  0.00     0.051 C 
HETATM    5  C5  UNL     1      24.060   5.120  50.434  1.00  0.00    -0.042 C 
HETATM    6  C6  UNL     1      24.249   4.455  51.568  1.00  0.00    -0.017 C 
HETATM    7  C7  UNL     1      23.839   3.646  52.703  1.00  0.00     0.055 C 
HETATM    8  C8  UNL     1      24.400   2.296  52.796  1.00  0.00    -0.013 C 
HETATM    9  C9  UNL     1      23.834   1.077  52.833  1.00  0.00    -0.028 C 
HETATM   10  C16 UNL     1      22.416   0.781  52.785  1.00  0.00     0.083 A 
HETATM   11  C17 UNL     1      21.687  -0.141  53.504  1.00  0.00     0.052 A 
HETATM   12  C18 UNL     1      20.315  -0.239  53.303  1.00  0.00     0.139 A 
HETATM   13  N2  UNL     1      19.743   0.609  52.372  1.00  0.00    -0.075 NA
HETATM   14  C19 UNL     1      20.531   1.478  51.714  1.00  0.00     0.723 A 
HETATM   15  N3  UNL     1      21.863   1.586  51.898  1.00  0.00    -0.063 NA
HETATM   16  N4  UNL     1      20.120   2.444  50.726  1.00  0.00    -0.215 N 
HETATM   17  C20 UNL     1      20.719   3.740  50.658  1.00  0.00     0.130 C 
HETATM   18  C21 UNL     1      21.565   4.702  50.362  1.00  0.00     0.057 C 
HETATM   19  C22 UNL     1      22.795   5.114  49.707  1.00  0.00     0.256 C 
HETATM   20  N5  UNL     1      22.572   6.357  48.944  1.00  0.00     0.092 N 
HETATM   21  C23 UNL     1      21.816   6.056  47.788  1.00  0.00     0.271 C 
HETATM   22  C24 UNL     1      21.734   7.157  46.790  1.00  0.00     0.036 C 
HETATM   23  C25 UNL     1      23.071   7.731  46.448  1.00  0.00     0.000 C 
HETATM   24  C26 UNL     1      24.146   7.366  47.220  1.00  0.00     0.020 C 
HETATM   25  H17 UNL     1      19.362   2.077  50.113  1.00  0.00     0.178 HD
HETATM   26  H21 UNL     1      21.917   6.880  49.599  1.00  0.00     0.316 HD
ENDROOT
BRANCH   9  27
HETATM   27  C10 UNL     1      24.548  -0.236  52.931  1.00  0.00     0.080 C 
BRANCH  27  28
HETATM   28  C11 UNL     1      25.901  -0.062  53.541  1.00  0.00    -0.036 A 
HETATM   29  C12 UNL     1      26.979   0.208  52.721  1.00  0.00     0.010 A 
HETATM   30  C13 UNL     1      28.252   0.373  53.257  1.00  0.00     0.020 A 
HETATM   31  C14 UNL     1      28.332   0.246  54.648  1.00  0.00     0.116 A 
HETATM   32  N1  UNL     1      27.262  -0.017  55.420  1.00  0.00    -0.273 NA
HETATM   33  C15 UNL     1      26.023  -0.180  54.913  1.00  0.00     0.123 A 
ENDBRANCH  27  28
ENDBRANCH   9  27
TORSDOF 2
ENDMDL
MODEL 4
REMARK VINA RESULT:      -9.6      5.360      9.120
REMARK  2 active torsions:
REMARK  status: ('A' for Active; 'I' for Inactive)
REMARK    1  A    between atoms: C9_9  and  C10_10 
REMARK    2  A    between atoms: C10_10  and  C11_11 
ROOT
HETATM    1  C1  UNL     1      24.180   1.707  52.119  1.00  0.00    -0.021 C 
HETATM    2  C2  UNL     1      25.354   1.458  51.554  1.00  0.00    -0.007 C 
HETATM    3  C3  UNL     1      26.240   2.254  50.719  1.00  0.00    -0.017 C 
HETATM    4  C4  UNL     1      26.691   3.291  50.037  1.00  0.00     0.051 C 
HETATM    5  C5  UNL     1      26.370   4.717  49.651  1.00  0.00    -0.042 C 
HETATM    6  C6  UNL     1      27.386   5.046  48.861  1.00  0.00    -0.017 C 
HETATM    7  C7  UNL     1      28.149   5.932  47.999  1.00  0.00     0.055 C 
HETATM    8  C8  UNL     1      29.477   6.336  48.469  1.00  0.00    -0.013 C 
HETATM    9  C9  UNL     1      30.023   7.537  48.727  1.00  0.00    -0.028 C 
HETATM   10  C16 UNL     1      29.378   8.827  48.593  1.00  0.00     0.083 A 
HETATM   11  C17 UNL     1      29.875  10.010  48.092  1.00  0.00     0.052 A 
HETATM   12  C18 UNL     1      29.057  11.133  48.043  1.00  0.00     0.139 A 
HETATM   13  N2  UNL     1      27.763  11.002  48.510  1.00  0.00    -0.075 NA
HETATM   14  C19 UNL     1      27.361   9.809  48.985  1.00  0.00     0.723 A 
HETATM   15  N3  UNL     1      28.141   8.710  49.039  1.00  0.00    -0.063 NA
HETATM   16  N4  UNL     1      26.055   9.475  49.498  1.00  0.00    -0.215 N 
HETATM   17  C20 UNL     1      25.461   8.199  49.249  1.00  0.00     0.130 C 
HETATM   18  C21 UNL     1      25.165   6.925  49.370  1.00  0.00     0.057 C 
HETATM   19  C22 UNL     1      25.350   5.670  50.078  1.00  0.00     0.256 C 
HETATM   20  N5  UNL     1      24.044   5.030  50.329  1.00  0.00     0.092 N 
HETATM   21  C23 UNL     1      23.374   5.743  51.348  1.00  0.00     0.271 C 
HETATM   22  C24 UNL     1      22.162   5.067  51.890  1.00  0.00     0.036 C 
HETATM   23  C25 UNL     1      22.415   3.646  52.277  1.00  0.00     0.000 C 
HETATM   24  C26 UNL     1      23.604   3.075  51.894  1.00  0.00     0.020 C 
HETATM   25  H17 UNL     1      25.636  10.261  50.038  1.00  0.00     0.178 HD
HETATM   26  H21 UNL     1      23.534   5.255  49.423  1.00  0.00     0.316 HD
ENDROOT
BRANCH   9  27
HETATM   27  C10 UNL     1      31.417   7.797  49.210  1.00  0.00     0.080 C 
BRANCH  27  28
HETATM   28  C11 UNL     1      32.416   7.054  48.383  1.00  0.00    -0.036 A 
HETATM   29  C12 UNL     1      33.063   5.963  48.930  1.00  0.00     0.010 A 
HETATM   30  C13 UNL     1      33.999   5.250  48.188  1.00  0.00     0.020 A 
HETATM   31  C14 UNL     1      34.212   5.724  46.889  1.00  0.00     0.116 A 
HETATM   32  N1  UNL     1      33.564   6.790  46.385  1.00  0.00    -0.273 NA
HETATM   33  C15 UNL     1      32.655   7.489  47.094  1.00  0.00     0.123 A 
ENDBRANCH  27  28
ENDBRANCH   9  27
TORSDOF 2
ENDMDL
MODEL 5
REMARK VINA RESULT:      -9.6      2.491      6.967
REMARK  2 active torsions:
REMARK  status: ('A' for Active; 'I' for Inactive)
REMARK    1  A    between atoms: C9_9  and  C10_10 
REMARK    2  A    between atoms: C10_10  and  C11_11 
ROOT
HETATM    1  C1  UNL     1      16.577  -0.110  51.094  1.00  0.00    -0.021 C 
HETATM    2  C2  UNL     1      17.087   0.979  50.533  1.00  0.00    -0.007 C 
HETATM    3  C3  UNL     1      18.350   1.681  50.699  1.00  0.00    -0.017 C 
HETATM    4  C4  UNL     1      19.556   1.956  51.158  1.00  0.00     0.051 C 
HETATM    5  C5  UNL     1      20.627   1.475  52.111  1.00  0.00    -0.042 C 
HETATM    6  C6  UNL     1      21.565   2.408  51.998  1.00  0.00    -0.017 C 
HETATM    7  C7  UNL     1      22.842   3.034  52.298  1.00  0.00     0.055 C 
HETATM    8  C8  UNL     1      23.817   3.111  51.208  1.00  0.00    -0.013 C 
HETATM    9  C9  UNL     1      25.068   2.637  51.071  1.00  0.00    -0.028 C 
HETATM   10  C16 UNL     1      25.814   1.872  52.050  1.00  0.00     0.083 A 
HETATM   11  C17 UNL     1      27.138   1.966  52.415  1.00  0.00     0.052 A 
HETATM   12  C18 UNL     1      27.640   1.130  53.405  1.00  0.00     0.139 A 
HETATM   13  N2  UNL     1      26.766   0.227  53.983  1.00  0.00    -0.075 NA
HETATM   14  C19 UNL     1      25.488   0.202  53.564  1.00  0.00     0.723 A 
HETATM   15  N3  UNL     1      24.985   1.007  52.606  1.00  0.00    -0.063 NA
HETATM   16  N4  UNL     1      24.432  -0.651  54.052  1.00  0.00    -0.215 N 
HETATM   17  C20 UNL     1      23.092  -0.173  54.190  1.00  0.00     0.130 C 
HETATM   18  C21 UNL     1      21.857   0.159  53.889  1.00  0.00     0.057 C 
HETATM   19  C22 UNL     1      20.806   0.254  52.890  1.00  0.00     0.256 C 
HETATM   20  N5  UNL     1      19.537  -0.262  53.437  1.00  0.00     0.092 N 
HETATM   21  C23 UNL     1      19.613  -1.671  53.519  1.00  0.00     0.271 C 
HETATM   22  C24 UNL     1      18.320  -2.352  53.806  1.00  0.00     0.036 C 
HETATM   23  C25 UNL     1      17.217  -1.905  52.902  1.00  0.00     0.000 C 
HETATM   24  C26 UNL     1      17.438  -0.808  52.107  1.00  0.00     0.020 C 
HETATM   25  H17 UNL     1      24.777  -1.606  54.281  1.00  0.00     0.178 HD
HETATM   26  H21 UNL     1      19.588   0.097  54.436  1.00  0.00     0.316 HD
ENDROOT
BRANCH   9  27
HETATM   27  C10 UNL     1      25.958   2.798  49.877  1.00  0.00     0.080 C 
BRANCH  27  28
HETATM   28  C11 UNL     1      26.228   4.242  49.604  1.00  0.00    -0.036 A 
HETATM   29  C12 UNL     1      27.276   4.585  48.772  1.00  0.00     0.010 A 
HETATM   30  C13 UNL     1      27.555   5.920  48.499  1.00  0.00     0.020 A 
HETATM   31  C14 UNL     1      26.707   6.843  49.120  1.00  0.00     0.116 A 
HETATM   32  N1  UNL     1      25.693   6.477  49.926  1.00  0.00    -0.273 NA
HETATM   33  C15 UNL     1      25.413   5.187  50.199  1.00  0.00     0.123 A 
ENDBRANCH  27  28
ENDBRANCH   9  27
TORSDOF 2
ENDMDL
MODEL 6
REMARK VINA RESULT:      -9.3      3.201      7.845
REMARK  2 active torsions:
REMARK  status: ('A' for Active; 'I' for Inactive)
REMARK    1  A    between atoms: C9_9  and  C10_10 
REMARK    2  A    between atoms: C10_10  and  C11_11 
ROOT
HETATM    1  C1  UNL     1      15.077  -1.295  51.031  1.00  0.00    -0.021 C 
HETATM    2  C2  UNL     1      15.492  -0.136  50.536  1.00  0.00    -0.007 C 
HETATM    3  C3  UNL     1      16.677   0.674  50.769  1.00  0.00    -0.017 C 
HETATM    4  C4  UNL     1      17.840   1.041  51.274  1.00  0.00     0.051 C 
HETATM    5  C5  UNL     1      18.931   0.618  52.233  1.00  0.00    -0.042 C 
HETATM    6  C6  UNL     1      19.776   1.641  52.189  1.00  0.00    -0.017 C 
HETATM    7  C7  UNL     1      20.979   2.370  52.553  1.00  0.00     0.055 C 
HETATM    8  C8  UNL     1      21.967   2.594  51.496  1.00  0.00    -0.013 C 
HETATM    9  C9  UNL     1      23.261   2.249  51.371  1.00  0.00    -0.028 C 
HETATM   10  C16 UNL     1      24.054   1.511  52.333  1.00  0.00     0.083 A 
HETATM   11  C17 UNL     1      25.355   1.713  52.739  1.00  0.00     0.052 A 
HETATM   12  C18 UNL     1      25.912   0.881  53.702  1.00  0.00     0.139 A 
HETATM   13  N2  UNL     1      25.117  -0.129  54.212  1.00  0.00    -0.075 NA
HETATM   14  C19 UNL     1      23.857  -0.255  53.757  1.00  0.00     0.723 A 
HETATM   15  N3  UNL     1      23.301   0.545  52.824  1.00  0.00    -0.063 NA
HETATM   16  N4  UNL     1      22.878  -1.228  54.175  1.00  0.00    -0.215 N 
HETATM   17  C20 UNL     1      21.495  -0.888  54.299  1.00  0.00     0.130 C 
HETATM   18  C21 UNL     1      20.241  -0.661  53.980  1.00  0.00     0.057 C 
HETATM   19  C22 UNL     1      19.209  -0.618  52.957  1.00  0.00     0.256 C 
HETATM   20  N5  UNL     1      17.983  -1.280  53.444  1.00  0.00     0.092 N 
HETATM   21  C23 UNL     1      18.194  -2.677  53.463  1.00  0.00     0.271 C 
HETATM   22  C24 UNL     1      16.967  -3.491  53.681  1.00  0.00     0.036 C 
HETATM   23  C25 UNL     1      15.846  -3.108  52.769  1.00  0.00     0.000 C 
HETATM   24  C26 UNL     1      15.978  -1.957  52.033  1.00  0.00     0.020 C 
HETATM   25  H17 UNL     1      23.308  -2.157  54.368  1.00  0.00     0.178 HD
HETATM   26  H21 UNL     1      17.976  -0.967  54.461  1.00  0.00     0.316 HD
ENDROOT
BRANCH   9  27
HETATM   27  C10 UNL     1      24.158   2.554  50.211  1.00  0.00     0.080 C 
BRANCH  27  28
HETATM   28  C11 UNL     1      23.387   3.164  49.086  1.00  0.00    -0.036 A 
HETATM   29  C12 UNL     1      22.659   2.343  48.246  1.00  0.00     0.010 A 
HETATM   30  C13 UNL     1      21.932   2.879  47.188  1.00  0.00     0.020 A 
HETATM   31  C14 UNL     1      22.004   4.270  47.063  1.00  0.00     0.116 A 
HETATM   32  N1  UNL     1      22.722   5.043  47.899  1.00  0.00    -0.273 NA
HETATM   33  C15 UNL     1      23.431   4.536  48.928  1.00  0.00     0.123 A 
ENDBRANCH  27  28
ENDBRANCH   9  27
TORSDOF 2
ENDMDL
MODEL 7
REMARK VINA RESULT:      -9.3      3.071      6.298
REMARK  2 active torsions:
REMARK  status: ('A' for Active; 'I' for Inactive)
REMARK    1  A    between atoms: C9_9  and  C10_10 
REMARK    2  A    between atoms: C10_10  and  C11_11 
ROOT
HETATM    1  C1  UNL     1      14.951  -0.250  52.513  1.00  0.00    -0.021 C 
HETATM    2  C2  UNL     1      16.019  -1.013  52.703  1.00  0.00    -0.007 C 
HETATM    3  C3  UNL     1      17.425  -0.853  52.366  1.00  0.00    -0.017 C 
HETATM    4  C4  UNL     1      18.523  -0.296  51.890  1.00  0.00     0.051 C 
HETATM    5  C5  UNL     1      19.050   0.938  51.194  1.00  0.00    -0.042 C 
HETATM    6  C6  UNL     1      20.338   0.659  51.031  1.00  0.00    -0.017 C 
HETATM    7  C7  UNL     1      21.698   0.927  50.593  1.00  0.00     0.055 C 
HETATM    8  C8  UNL     1      22.719   1.054  51.635  1.00  0.00    -0.013 C 
HETATM    9  C9  UNL     1      23.557   2.050  51.971  1.00  0.00    -0.028 C 
HETATM   10  C16 UNL     1      23.659   3.346  51.330  1.00  0.00     0.083 A 
HETATM   11  C17 UNL     1      24.779   4.081  51.009  1.00  0.00     0.052 A 
HETATM   12  C18 UNL     1      24.636   5.308  50.371  1.00  0.00     0.139 A 
HETATM   13  N2  UNL     1      23.352   5.736  50.089  1.00  0.00    -0.075 NA
HETATM   14  C19 UNL     1      22.315   4.955  50.441  1.00  0.00     0.723 A 
HETATM   15  N3  UNL     1      22.436   3.762  51.058  1.00  0.00    -0.063 NA
HETATM   16  N4  UNL     1      20.915   5.221  50.220  1.00  0.00    -0.215 N 
HETATM   17  C20 UNL     1      20.003   4.174  49.877  1.00  0.00     0.130 C 
HETATM   18  C21 UNL     1      19.167   3.168  50.002  1.00  0.00     0.057 C 
HETATM   19  C22 UNL     1      18.467   2.237  50.870  1.00  0.00     0.256 C 
HETATM   20  N5  UNL     1      17.049   2.140  50.474  1.00  0.00     0.092 N 
HETATM   21  C23 UNL     1      16.383   3.324  50.864  1.00  0.00     0.271 C 
HETATM   22  C24 UNL     1      14.899   3.267  50.766  1.00  0.00     0.036 C 
HETATM   23  C25 UNL     1      14.320   2.057  51.427  1.00  0.00     0.000 C 
HETATM   24  C26 UNL     1      15.181   1.064  51.823  1.00  0.00     0.020 C 
HETATM   25  H17 UNL     1      20.687   6.230  50.333  1.00  0.00     0.178 HD
HETATM   26  H21 UNL     1      17.134   2.182  49.414  1.00  0.00     0.316 HD
ENDROOT
BRANCH   9  27
HETATM   27  C10 UNL     1      24.564   2.034  53.079  1.00  0.00     0.080 C 
BRANCH  27  28
HETATM   28  C11 UNL     1      25.365   0.772  53.054  1.00  0.00    -0.036 A 
HETATM   29  C12 UNL     1      26.257   0.563  52.021  1.00  0.00     0.010 A 
HETATM   30  C13 UNL     1      27.017  -0.602  51.967  1.00  0.00     0.020 A 
HETATM   31  C14 UNL     1      26.799  -1.501  53.016  1.00  0.00     0.116 A 
HETATM   32  N1  UNL     1      25.921  -1.267  54.009  1.00  0.00    -0.273 NA
HETATM   33  C15 UNL     1      25.179  -0.143  54.072  1.00  0.00     0.123 A 
ENDBRANCH  27  28
ENDBRANCH   9  27
TORSDOF 2
ENDMDL
MODEL 8
REMARK VINA RESULT:      -9.0      2.202      5.506
REMARK  2 active torsions:
REMARK  status: ('A' for Active; 'I' for Inactive)
REMARK    1  A    between atoms: C9_9  and  C10_10 
REMARK    2  A    between atoms: C10_10  and  C11_11 
ROOT
HETATM    1  C1  UNL     1      23.718   8.521  46.983  1.00  0.00    -0.021 C 
HETATM    2  C2  UNL     1      22.624   7.776  47.071  1.00  0.00    -0.007 C 
HETATM    3  C3  UNL     1      22.364   6.458  47.630  1.00  0.00    -0.017 C 
HETATM    4  C4  UNL     1      22.595   5.307  48.233  1.00  0.00     0.051 C 
HETATM    5  C5  UNL     1      23.676   4.487  48.902  1.00  0.00    -0.042 C 
HETATM    6  C6  UNL     1      23.044   3.361  49.211  1.00  0.00    -0.017 C 
HETATM    7  C7  UNL     1      22.937   2.021  49.763  1.00  0.00     0.055 C 
HETATM    8  C8  UNL     1      22.059   1.846  50.922  1.00  0.00    -0.013 C 
HETATM    9  C9  UNL     1      22.280   1.404  52.172  1.00  0.00    -0.028 C 
HETATM   10  C16 UNL     1      23.545   0.956  52.719  1.00  0.00     0.083 A 
HETATM   11  C17 UNL     1      23.817  -0.115  53.541  1.00  0.00     0.052 A 
HETATM   12  C18 UNL     1      25.127  -0.368  53.931  1.00  0.00     0.139 A 
HETATM   13  N2  UNL     1      26.109   0.487  53.465  1.00  0.00    -0.075 NA
HETATM   14  C19 UNL     1      25.754   1.510  52.666  1.00  0.00     0.723 A 
HETATM   15  N3  UNL     1      24.488   1.768  52.278  1.00  0.00    -0.063 NA
HETATM   16  N4  UNL     1      26.629   2.491  52.073  1.00  0.00    -0.215 N 
HETATM   17  C20 UNL     1      26.404   2.987  50.752  1.00  0.00     0.130 C 
HETATM   18  C21 UNL     1      25.925   3.708  49.763  1.00  0.00     0.057 C 
HETATM   19  C22 UNL     1      25.044   4.776  49.319  1.00  0.00     0.256 C 
HETATM   20  N5  UNL     1      25.753   5.658  48.372  1.00  0.00     0.092 N 
HETATM   21  C23 UNL     1      26.684   6.444  49.088  1.00  0.00     0.271 C 
HETATM   22  C24 UNL     1      27.287   7.562  48.310  1.00  0.00     0.036 C 
HETATM   23  C25 UNL     1      26.265   8.402  47.614  1.00  0.00     0.000 C 
HETATM   24  C26 UNL     1      24.972   7.942  47.572  1.00  0.00     0.020 C 
HETATM   25  H17 UNL     1      27.405   2.758  52.713  1.00  0.00     0.178 HD
HETATM   26  H21 UNL     1      26.325   4.947  47.825  1.00  0.00     0.316 HD
ENDROOT
BRANCH   9  27
HETATM   27  C10 UNL     1      21.266   1.279  53.267  1.00  0.00     0.080 C 
BRANCH  27  28
HETATM   28  C11 UNL     1      20.055   0.545  52.791  1.00  0.00    -0.036 A 
HETATM   29  C12 UNL     1      19.417   0.972  51.642  1.00  0.00     0.010 A 
HETATM   30  C13 UNL     1      18.286   0.312  51.173  1.00  0.00     0.020 A 
HETATM   31  C14 UNL     1      17.875  -0.781  51.943  1.00  0.00     0.116 A 
HETATM   32  N1  UNL     1      18.518  -1.173  53.058  1.00  0.00    -0.273 NA
HETATM   33  C15 UNL     1      19.615  -0.541  53.523  1.00  0.00     0.123 A 
ENDBRANCH  27  28
ENDBRANCH   9  27
TORSDOF 2
ENDMDL
MODEL 9
REMARK VINA RESULT:      -9.0      2.101      7.618
REMARK  2 active torsions:
REMARK  status: ('A' for Active; 'I' for Inactive)
REMARK    1  A    between atoms: C9_9  and  C10_10 
REMARK    2  A    between atoms: C10_10  and  C11_11 
ROOT
HETATM    1  C1  UNL     1      25.146  -0.636  54.482  1.00  0.00    -0.021 C 
HETATM    2  C2  UNL     1      25.865   0.080  53.627  1.00  0.00    -0.007 C 
HETATM    3  C3  UNL     1      25.512   0.895  52.476  1.00  0.00    -0.017 C 
HETATM    4  C4  UNL     1      24.758   1.489  51.570  1.00  0.00     0.051 C 
HETATM    5  C5  UNL     1      23.325   1.683  51.127  1.00  0.00    -0.042 C 
HETATM    6  C6  UNL     1      23.450   2.430  50.037  1.00  0.00    -0.017 C 
HETATM    7  C7  UNL     1      22.963   3.171  48.885  1.00  0.00     0.055 C 
HETATM    8  C8  UNL     1      23.180   4.619  48.885  1.00  0.00    -0.013 C 
HETATM    9  C9  UNL     1      22.337   5.665  48.821  1.00  0.00    -0.028 C 
HETATM   10  C16 UNL     1      20.892   5.606  48.729  1.00  0.00     0.083 A 
HETATM   11  C17 UNL     1      20.030   6.358  47.963  1.00  0.00     0.052 A 
HETATM   12  C18 UNL     1      18.663   6.111  48.024  1.00  0.00     0.139 A 
HETATM   13  N2  UNL     1      18.233   5.105  48.868  1.00  0.00    -0.075 NA
HETATM   14  C19 UNL     1      19.145   4.421  49.582  1.00  0.00     0.723 A 
HETATM   15  N3  UNL     1      20.474   4.647  49.534  1.00  0.00    -0.063 NA
HETATM   16  N4  UNL     1      18.894   3.336  50.498  1.00  0.00    -0.215 N 
HETATM   17  C20 UNL     1      19.784   2.221  50.595  1.00  0.00     0.130 C 
HETATM   18  C21 UNL     1      20.808   1.480  50.952  1.00  0.00     0.057 C 
HETATM   19  C22 UNL     1      22.034   1.346  51.720  1.00  0.00     0.256 C 
HETATM   20  N5  UNL     1      22.054   0.050  52.424  1.00  0.00     0.092 N 
HETATM   21  C23 UNL     1      21.142   0.101  53.503  1.00  0.00     0.271 C 
HETATM   22  C24 UNL     1      21.240  -1.036  54.459  1.00  0.00     0.036 C 
HETATM   23  C25 UNL     1      22.639  -1.285  54.923  1.00  0.00     0.000 C 
HETATM   24  C26 UNL     1      23.659  -0.632  54.275  1.00  0.00     0.020 C 
HETATM   25  H17 UNL     1      18.015   3.477  51.038  1.00  0.00     0.178 HD
HETATM   26  H21 UNL     1      21.612  -0.583  51.692  1.00  0.00     0.316 HD
ENDROOT
BRANCH   9  27
HETATM   27  C10 UNL     1      22.713   7.115  48.830  1.00  0.00     0.080 C 
BRANCH  27  28
HETATM   28  C11 UNL     1      24.194   7.282  48.940  1.00  0.00    -0.036 A 
HETATM   29  C12 UNL     1      24.961   7.253  47.792  1.00  0.00     0.010 A 
HETATM   30  C13 UNL     1      26.342   7.404  47.860  1.00  0.00     0.020 A 
HETATM   31  C14 UNL     1      26.858   7.581  49.149  1.00  0.00     0.116 A 
HETATM   32  N1  UNL     1      26.083   7.604  50.249  1.00  0.00    -0.273 NA
HETATM   33  C15 UNL     1      24.743   7.459  50.196  1.00  0.00     0.123 A 
ENDBRANCH  27  28
ENDBRANCH   9  27
TORSDOF 2
ENDMDL
