MODEL 1
REMARK VINA RESULT:      -7.5      0.000      0.000
REMARK  6 active torsions:
REMARK  status: ('A' for Active; 'I' for Inactive)
REMARK    1  A    between atoms: N1_2  and  C3_4 
REMARK    2  A    between atoms: C3_4  and  C4_5 
REMARK    3  A    between atoms: C4_5  and  N2_6 
REMARK    4  A    between atoms: N2_6  and  C5_7 
REMARK    5  A    between atoms: C8_11  and  C9_12 
REMARK    6  A    between atoms: C12_16  and  N5_17 
ROOT
HETATM    1  C5  UNL     1      27.021   1.992  52.712  1.00  0.00     0.046 A 
HETATM    2  C6  UNL     1      28.062   1.685  53.559  1.00  0.00     0.145 A 
HETATM    3  N3  UNL     1      27.956   0.818  54.592  1.00  0.00    -0.270 NA
HETATM    4  C7  UNL     1      26.768   0.192  54.838  1.00  0.00     0.130 A 
HETATM    5  C8  UNL     1      25.673   0.442  54.034  1.00  0.00     0.014 A 
HETATM    6  C18 UNL     1      25.845   1.335  53.000  1.00  0.00     0.046 A 
ENDROOT
BRANCH   5   7
HETATM    7  C9  UNL     1      24.421  -0.241  54.326  1.00  0.00     0.088 A 
HETATM    8  C10 UNL     1      24.283  -1.130  55.372  1.00  0.00     0.148 A 
HETATM    9  N4  UNL     1      23.080  -1.702  55.541  1.00  0.00    -0.267 NA
HETATM   10  C11 UNL     1      22.063  -1.408  54.717  1.00  0.00     0.167 A 
HETATM   11  C12 UNL     1      22.173  -0.523  53.664  1.00  0.00     0.151 A 
HETATM   12  N6  UNL     1      23.386   0.030  53.523  1.00  0.00    -0.227 NA
BRANCH  11  13
HETATM   13  N5  UNL     1      21.108  -0.199  52.780  1.00  0.00    -0.315 N 
HETATM   14  C13 UNL     1      19.748  -0.359  53.145  1.00  0.00     0.094 A 
HETATM   15  C14 UNL     1      18.760  -0.057  52.313  1.00  0.00    -0.004 A 
HETATM   16  C15 UNL     1      19.025   0.461  50.965  1.00  0.00     0.081 A 
HETATM   17  C16 UNL     1      20.458   0.596  50.669  1.00  0.00     0.031 A 
HETATM   18 CL1  UNL     1      20.693   1.219  49.047  1.00  0.00    -0.087 Cl
HETATM   19  C17 UNL     1      21.445   0.298  51.492  1.00  0.00     0.118 A 
ENDBRANCH  11  13
ENDBRANCH   5   7
BRANCH   1  20
HETATM   20  N2  UNL     1      27.104   2.910  51.634  1.00  0.00    -0.387 N 
HETATM   21  H11 UNL     1      27.806   3.697  51.760  1.00  0.00     0.159 HD
BRANCH  20  22
HETATM   22  C4  UNL     1      26.377   2.912  50.411  1.00  0.00     0.150 C 
BRANCH  22  23
HETATM   23  C3  UNL     1      25.749   4.246  50.161  1.00  0.00     0.290 C 
BRANCH  23  24
HETATM   24  N1  UNL     1      24.304   4.251  50.233  1.00  0.00     0.081 N 
HETATM   25  C1  UNL     1      23.811   5.055  51.329  1.00  0.00     0.309 C 
HETATM   26  C2  UNL     1      23.721   2.929  50.209  1.00  0.00     0.309 C 
ENDBRANCH  23  24
ENDBRANCH  22  23
ENDBRANCH  20  22
ENDBRANCH   1  20
TORSDOF 6
ENDMDL
MODEL 2
REMARK VINA RESULT:      -7.4      2.167      6.054
REMARK  6 active torsions:
REMARK  status: ('A' for Active; 'I' for Inactive)
REMARK    1  A    between atoms: N1_2  and  C3_4 
REMARK    2  A    between atoms: C3_4  and  C4_5 
REMARK    3  A    between atoms: C4_5  and  N2_6 
REMARK    4  A    between atoms: N2_6  and  C5_7 
REMARK    5  A    between atoms: C8_11  and  C9_12 
REMARK    6  A    between atoms: C12_16  and  N5_17 
ROOT
HETATM    1  C5  UNL     1      24.121  -0.895  54.714  1.00  0.00     0.046 A 
HETATM    2  C6  UNL     1      23.012  -1.398  55.357  1.00  0.00     0.145 A 
HETATM    3  N3  UNL     1      21.751  -1.269  54.886  1.00  0.00    -0.270 NA
HETATM    4  C7  UNL     1      21.525  -0.612  53.711  1.00  0.00     0.130 A 
HETATM    5  C8  UNL     1      22.584  -0.077  53.001  1.00  0.00     0.014 A 
HETATM    6  C18 UNL     1      23.842  -0.242  53.534  1.00  0.00     0.046 A 
ENDROOT
BRANCH   5   7
HETATM    7  C9  UNL     1      22.307   0.619  51.753  1.00  0.00     0.088 A 
HETATM    8  C10 UNL     1      21.185   0.366  50.991  1.00  0.00     0.148 A 
HETATM    9  N4  UNL     1      21.039   1.069  49.857  1.00  0.00    -0.267 NA
HETATM   10  C11 UNL     1      21.956   1.979  49.494  1.00  0.00     0.167 A 
HETATM   11  C12 UNL     1      23.086   2.251  50.237  1.00  0.00     0.151 A 
HETATM   12  N6  UNL     1      23.202   1.533  51.363  1.00  0.00    -0.227 NA
BRANCH  11  13
HETATM   13  N5  UNL     1      24.070   3.210  49.870  1.00  0.00    -0.315 N 
HETATM   14  C13 UNL     1      25.444   3.035  50.168  1.00  0.00     0.094 A 
HETATM   15  C14 UNL     1      26.355   3.936  49.825  1.00  0.00    -0.004 A 
HETATM   16  C15 UNL     1      25.986   5.167  49.115  1.00  0.00     0.081 A 
HETATM   17  C16 UNL     1      24.545   5.269  48.847  1.00  0.00     0.031 A 
HETATM   18 CL1  UNL     1      24.183   6.760  47.998  1.00  0.00    -0.087 Cl
HETATM   19  C17 UNL     1      23.635   4.376  49.185  1.00  0.00     0.118 A 
ENDBRANCH  11  13
ENDBRANCH   5   7
BRANCH   1  20
HETATM   20  N2  UNL     1      25.450  -1.003  55.197  1.00  0.00    -0.387 N 
HETATM   21  H11 UNL     1      25.722  -1.960  55.569  1.00  0.00     0.159 HD
BRANCH  20  22
HETATM   22  C4  UNL     1      26.462  -0.005  55.246  1.00  0.00     0.150 C 
BRANCH  22  23
HETATM   23  C3  UNL     1      27.409  -0.141  54.097  1.00  0.00     0.290 C 
BRANCH  23  24
HETATM   24  N1  UNL     1      28.789   0.149  54.421  1.00  0.00     0.081 N 
HETATM   25  C1  UNL     1      29.130   1.534  54.184  1.00  0.00     0.309 C 
HETATM   26  C2  UNL     1      29.728  -0.765  53.813  1.00  0.00     0.309 C 
ENDBRANCH  23  24
ENDBRANCH  22  23
ENDBRANCH  20  22
ENDBRANCH   1  20
TORSDOF 6
ENDMDL
MODEL 3
REMARK VINA RESULT:      -7.4      2.767      6.913
REMARK  6 active torsions:
REMARK  status: ('A' for Active; 'I' for Inactive)
REMARK    1  A    between atoms: N1_2  and  C3_4 
REMARK    2  A    between atoms: C3_4  and  C4_5 
REMARK    3  A    between atoms: C4_5  and  N2_6 
REMARK    4  A    between atoms: N2_6  and  C5_7 
REMARK    5  A    between atoms: C8_11  and  C9_12 
REMARK    6  A    between atoms: C12_16  and  N5_17 
ROOT
HETATM    1  C5  UNL     1      24.268  -0.040  53.411  1.00  0.00     0.046 A 
HETATM    2  C6  UNL     1      23.022  -0.571  53.658  1.00  0.00     0.145 A 
HETATM    3  N3  UNL     1      21.866   0.092  53.424  1.00  0.00    -0.270 NA
HETATM    4  C7  UNL     1      21.897   1.358  52.914  1.00  0.00     0.130 A 
HETATM    5  C8  UNL     1      23.108   1.964  52.636  1.00  0.00     0.014 A 
HETATM    6  C18 UNL     1      24.247   1.237  52.897  1.00  0.00     0.046 A 
ENDROOT
BRANCH   5   7
HETATM    7  C9  UNL     1      23.104   3.316  52.096  1.00  0.00     0.088 A 
HETATM    8  C10 UNL     1      22.075   4.207  52.322  1.00  0.00     0.148 A 
HETATM    9  N4  UNL     1      22.180   5.425  51.768  1.00  0.00    -0.267 NA
HETATM   10  C11 UNL     1      23.252   5.747  51.027  1.00  0.00     0.167 A 
HETATM   11  C12 UNL     1      24.295   4.876  50.785  1.00  0.00     0.151 A 
HETATM   12  N6  UNL     1      24.158   3.670  51.352  1.00  0.00    -0.227 NA
BRANCH  11  13
HETATM   13  N5  UNL     1      25.438   5.198  50.003  1.00  0.00    -0.315 N 
HETATM   14  C13 UNL     1      26.338   4.208  49.538  1.00  0.00     0.094 A 
HETATM   15  C14 UNL     1      27.404   4.517  48.812  1.00  0.00    -0.004 A 
HETATM   16  C15 UNL     1      27.708   5.907  48.450  1.00  0.00     0.081 A 
HETATM   17  C16 UNL     1      26.725   6.868  48.971  1.00  0.00     0.031 A 
HETATM   18 CL1  UNL     1      27.154   8.501  48.498  1.00  0.00    -0.087 Cl
HETATM   19  C17 UNL     1      25.664   6.566  49.693  1.00  0.00     0.118 A 
ENDBRANCH  11  13
ENDBRANCH   5   7
BRANCH   1  20
HETATM   20  N2  UNL     1      25.493  -0.710  53.664  1.00  0.00    -0.387 N 
HETATM   21  H11 UNL     1      25.403  -1.670  54.110  1.00  0.00     0.159 HD
BRANCH  20  22
HETATM   22  C4  UNL     1      26.819  -0.268  53.397  1.00  0.00     0.150 C 
BRANCH  22  23
HETATM   23  C3  UNL     1      27.458   0.291  54.627  1.00  0.00     0.290 C 
BRANCH  23  24
HETATM   24  N1  UNL     1      28.827   0.722  54.448  1.00  0.00     0.081 N 
HETATM   25  C1  UNL     1      28.916   2.056  53.898  1.00  0.00     0.309 C 
HETATM   26  C2  UNL     1      29.641  -0.229  53.728  1.00  0.00     0.309 C 
ENDBRANCH  23  24
ENDBRANCH  22  23
ENDBRANCH  20  22
ENDBRANCH   1  20
TORSDOF 6
ENDMDL
MODEL 4
REMARK VINA RESULT:      -7.3      1.766      3.830
REMARK  6 active torsions:
REMARK  status: ('A' for Active; 'I' for Inactive)
REMARK    1  A    between atoms: N1_2  and  C3_4 
REMARK    2  A    between atoms: C3_4  and  C4_5 
REMARK    3  A    between atoms: C4_5  and  N2_6 
REMARK    4  A    between atoms: N2_6  and  C5_7 
REMARK    5  A    between atoms: C8_11  and  C9_12 
REMARK    6  A    between atoms: C12_16  and  N5_17 
ROOT
HETATM    1  C5  UNL     1      25.750   2.184  52.714  1.00  0.00     0.046 A 
HETATM    2  C6  UNL     1      25.350   2.700  51.502  1.00  0.00     0.145 A 
HETATM    3  N3  UNL     1      24.170   2.400  50.914  1.00  0.00    -0.270 NA
HETATM    4  C7  UNL     1      23.300   1.544  51.526  1.00  0.00     0.130 A 
HETATM    5  C8  UNL     1      23.624   0.983  52.747  1.00  0.00     0.014 A 
HETATM    6  C18 UNL     1      24.840   1.328  53.292  1.00  0.00     0.046 A 
ENDROOT
BRANCH   5   7
HETATM    7  C9  UNL     1      22.674   0.073  53.371  1.00  0.00     0.088 A 
HETATM    8  C10 UNL     1      23.014  -0.755  54.421  1.00  0.00     0.148 A 
HETATM    9  N4  UNL     1      22.055  -1.554  54.912  1.00  0.00    -0.267 NA
HETATM   10  C11 UNL     1      20.818  -1.536  54.391  1.00  0.00     0.167 A 
HETATM   11  C12 UNL     1      20.451  -0.719  53.341  1.00  0.00     0.151 A 
HETATM   12  N6  UNL     1      21.432   0.066  52.875  1.00  0.00    -0.227 NA
BRANCH  11  13
HETATM   13  N5  UNL     1      19.148  -0.685  52.774  1.00  0.00    -0.315 N 
HETATM   14  C13 UNL     1      18.059  -1.393  53.342  1.00  0.00     0.094 A 
HETATM   15  C14 UNL     1      16.846  -1.359  52.805  1.00  0.00    -0.004 A 
HETATM   16  C15 UNL     1      16.568  -0.582  51.591  1.00  0.00     0.081 A 
HETATM   17  C16 UNL     1      17.749   0.119  51.070  1.00  0.00     0.031 A 
HETATM   18 CL1  UNL     1      17.337   1.023  49.624  1.00  0.00    -0.087 Cl
HETATM   19  C17 UNL     1      18.956   0.089  51.599  1.00  0.00     0.118 A 
ENDBRANCH  11  13
ENDBRANCH   5   7
BRANCH   1  20
HETATM   20  N2  UNL     1      26.989   2.471  53.342  1.00  0.00    -0.387 N 
HETATM   21  H11 UNL     1      26.985   3.307  53.997  1.00  0.00     0.159 HD
BRANCH  20  22
HETATM   22  C4  UNL     1      28.231   1.788  53.211  1.00  0.00     0.150 C 
BRANCH  22  23
HETATM   23  C3  UNL     1      28.478   0.891  54.381  1.00  0.00     0.290 C 
BRANCH  23  24
HETATM   24  N1  UNL     1      28.652  -0.504  54.040  1.00  0.00     0.081 N 
HETATM   25  C1  UNL     1      30.018  -0.816  53.684  1.00  0.00     0.309 C 
HETATM   26  C2  UNL     1      27.702  -0.982  53.062  1.00  0.00     0.309 C 
ENDBRANCH  23  24
ENDBRANCH  22  23
ENDBRANCH  20  22
ENDBRANCH   1  20
TORSDOF 6
ENDMDL
MODEL 5
REMARK VINA RESULT:      -7.3      2.774      7.035
REMARK  6 active torsions:
REMARK  status: ('A' for Active; 'I' for Inactive)
REMARK    1  A    between atoms: N1_2  and  C3_4 
REMARK    2  A    between atoms: C3_4  and  C4_5 
REMARK    3  A    between atoms: C4_5  and  N2_6 
REMARK    4  A    between atoms: N2_6  and  C5_7 
REMARK    5  A    between atoms: C8_11  and  C9_12 
REMARK    6  A    between atoms: C12_16  and  N5_17 
ROOT
HETATM    1  C5  UNL     1      20.061  -0.598  53.351  1.00  0.00     0.046 A 
HETATM    2  C6  UNL     1      20.421  -1.549  54.280  1.00  0.00     0.145 A 
HETATM    3  N3  UNL     1      21.677  -1.684  54.764  1.00  0.00    -0.270 NA
HETATM    4  C7  UNL     1      22.667  -0.849  54.334  1.00  0.00     0.130 A 
HETATM    5  C8  UNL     1      22.390   0.135  53.405  1.00  0.00     0.014 A 
HETATM    6  C18 UNL     1      21.094   0.220  52.950  1.00  0.00     0.046 A 
ENDROOT
BRANCH   5   7
HETATM    7  C9  UNL     1      23.471   1.006  52.967  1.00  0.00     0.088 A 
HETATM    8  C10 UNL     1      23.247   2.205  52.322  1.00  0.00     0.148 A 
HETATM    9  N4  UNL     1      24.323   2.923  51.962  1.00  0.00    -0.267 NA
HETATM   10  C11 UNL     1      25.561   2.476  52.227  1.00  0.00     0.167 A 
HETATM   11  C12 UNL     1      25.813   1.281  52.869  1.00  0.00     0.151 A 
HETATM   12  N6  UNL     1      24.718   0.591  53.215  1.00  0.00    -0.227 NA
BRANCH  11  13
HETATM   13  N5  UNL     1      27.116   0.791  53.159  1.00  0.00    -0.315 N 
HETATM   14  C13 UNL     1      28.169   1.643  53.573  1.00  0.00     0.094 A 
HETATM   15  C14 UNL     1      29.383   1.179  53.838  1.00  0.00    -0.004 A 
HETATM   16  C15 UNL     1      29.699  -0.250  53.716  1.00  0.00     0.081 A 
HETATM   17  C16 UNL     1      28.553  -1.061  53.283  1.00  0.00     0.031 A 
HETATM   18 CL1  UNL     1      29.007  -2.751  53.163  1.00  0.00    -0.087 Cl
HETATM   19  C17 UNL     1      27.344  -0.604  53.019  1.00  0.00     0.118 A 
ENDBRANCH  11  13
ENDBRANCH   5   7
BRANCH   1  20
HETATM   20  N2  UNL     1      18.756  -0.449  52.817  1.00  0.00    -0.387 N 
HETATM   21  H11 UNL     1      17.962  -0.572  53.512  1.00  0.00     0.159 HD
BRANCH  20  22
HETATM   22  C4  UNL     1      18.372  -0.155  51.479  1.00  0.00     0.150 C 
BRANCH  22  23
HETATM   23  C3  UNL     1      17.611   1.130  51.406  1.00  0.00     0.290 C 
BRANCH  23  24
HETATM   24  N1  UNL     1      18.438   2.317  51.427  1.00  0.00     0.081 N 
HETATM   25  C1  UNL     1      17.655   3.531  51.498  1.00  0.00     0.309 C 
HETATM   26  C2  UNL     1      19.421   2.354  50.369  1.00  0.00     0.309 C 
ENDBRANCH  23  24
ENDBRANCH  22  23
ENDBRANCH  20  22
ENDBRANCH   1  20
TORSDOF 6
ENDMDL
MODEL 6
REMARK VINA RESULT:      -7.3      3.019      6.080
REMARK  6 active torsions:
REMARK  status: ('A' for Active; 'I' for Inactive)
REMARK    1  A    between atoms: N1_2  and  C3_4 
REMARK    2  A    between atoms: C3_4  and  C4_5 
REMARK    3  A    between atoms: C4_5  and  N2_6 
REMARK    4  A    between atoms: N2_6  and  C5_7 
REMARK    5  A    between atoms: C8_11  and  C9_12 
REMARK    6  A    between atoms: C12_16  and  N5_17 
ROOT
HETATM    1  C5  UNL     1      23.220   5.790  51.802  1.00  0.00     0.046 A 
HETATM    2  C6  UNL     1      21.915   5.800  51.366  1.00  0.00     0.145 A 
HETATM    3  N3  UNL     1      21.117   4.708  51.368  1.00  0.00    -0.270 NA
HETATM    4  C7  UNL     1      21.597   3.513  51.821  1.00  0.00     0.130 A 
HETATM    5  C8  UNL     1      22.897   3.417  52.278  1.00  0.00     0.014 A 
HETATM    6  C18 UNL     1      23.658   4.563  52.250  1.00  0.00     0.046 A 
ENDROOT
BRANCH   5   7
HETATM    7  C9  UNL     1      23.377   2.126  52.753  1.00  0.00     0.088 A 
HETATM    8  C10 UNL     1      22.529   1.083  53.062  1.00  0.00     0.148 A 
HETATM    9  N4  UNL     1      23.088  -0.059  53.494  1.00  0.00    -0.267 NA
HETATM   10  C11 UNL     1      24.420  -0.164  53.613  1.00  0.00     0.167 A 
HETATM   11  C12 UNL     1      25.291   0.863  53.311  1.00  0.00     0.151 A 
HETATM   12  N6  UNL     1      24.701   1.987  52.883  1.00  0.00    -0.227 NA
BRANCH  11  13
HETATM   13  N5  UNL     1      26.704   0.771  53.431  1.00  0.00    -0.315 N 
HETATM   14  C13 UNL     1      27.520   1.911  53.642  1.00  0.00     0.094 A 
HETATM   15  C14 UNL     1      28.839   1.817  53.749  1.00  0.00    -0.004 A 
HETATM   16  C15 UNL     1      29.525   0.522  53.656  1.00  0.00     0.081 A 
HETATM   17  C16 UNL     1      28.607  -0.604  53.438  1.00  0.00     0.031 A 
HETATM   18 CL1  UNL     1      29.498  -2.111  53.338  1.00  0.00    -0.087 Cl
HETATM   19  C17 UNL     1      27.295  -0.517  53.330  1.00  0.00     0.118 A 
ENDBRANCH  11  13
ENDBRANCH   5   7
BRANCH   1  20
HETATM   20  N2  UNL     1      24.080   6.918  51.794  1.00  0.00    -0.387 N 
HETATM   21  H11 UNL     1      24.320   7.314  52.750  1.00  0.00     0.159 HD
BRANCH  20  22
HETATM   22  C4  UNL     1      24.664   7.583  50.679  1.00  0.00     0.150 C 
BRANCH  22  23
HETATM   23  C3  UNL     1      25.776   6.774  50.091  1.00  0.00     0.290 C 
BRANCH  23  24
HETATM   24  N1  UNL     1      25.413   6.030  48.905  1.00  0.00     0.081 N 
HETATM   25  C1  UNL     1      24.234   6.564  48.261  1.00  0.00     0.309 C 
HETATM   26  C2  UNL     1      25.327   4.604  49.123  1.00  0.00     0.309 C 
ENDBRANCH  23  24
ENDBRANCH  22  23
ENDBRANCH  20  22
ENDBRANCH   1  20
TORSDOF 6
ENDMDL
MODEL 7
REMARK VINA RESULT:      -7.2      4.678      8.013
REMARK  6 active torsions:
REMARK  status: ('A' for Active; 'I' for Inactive)
REMARK    1  A    between atoms: N1_2  and  C3_4 
REMARK    2  A    between atoms: C3_4  and  C4_5 
REMARK    3  A    between atoms: C4_5  and  N2_6 
REMARK    4  A    between atoms: N2_6  and  C5_7 
REMARK    5  A    between atoms: C8_11  and  C9_12 
REMARK    6  A    between atoms: C12_16  and  N5_17 
ROOT
HETATM    1  C5  UNL     1      29.364   6.073  47.933  1.00  0.00     0.046 A 
HETATM    2  C6  UNL     1      28.753   7.213  47.462  1.00  0.00     0.145 A 
HETATM    3  N3  UNL     1      27.432   7.468  47.603  1.00  0.00    -0.270 NA
HETATM    4  C7  UNL     1      26.628   6.568  48.242  1.00  0.00     0.130 A 
HETATM    5  C8  UNL     1      27.162   5.398  48.747  1.00  0.00     0.014 A 
HETATM    6  C18 UNL     1      28.513   5.198  48.571  1.00  0.00     0.046 A 
ENDROOT
BRANCH   5   7
HETATM    7  C9  UNL     1      26.276   4.460  49.421  1.00  0.00     0.088 A 
HETATM    8  C10 UNL     1      24.909   4.461  49.235  1.00  0.00     0.148 A 
HETATM    9  N4  UNL     1      24.194   3.550  49.915  1.00  0.00    -0.267 NA
HETATM   10  C11 UNL     1      24.800   2.680  50.737  1.00  0.00     0.167 A 
HETATM   11  C12 UNL     1      26.165   2.658  50.941  1.00  0.00     0.151 A 
HETATM   12  N6  UNL     1      26.849   3.579  50.249  1.00  0.00    -0.227 NA
BRANCH  11  13
HETATM   13  N5  UNL     1      26.827   1.746  51.808  1.00  0.00    -0.315 N 
HETATM   14  C13 UNL     1      26.562   0.354  51.784  1.00  0.00     0.094 A 
HETATM   15  C14 UNL     1      27.182  -0.490  52.599  1.00  0.00    -0.004 A 
HETATM   16  C15 UNL     1      28.178  -0.024  53.571  1.00  0.00     0.081 A 
HETATM   17  C16 UNL     1      28.392   1.429  53.529  1.00  0.00     0.031 A 
HETATM   18 CL1  UNL     1      29.592   1.907  54.715  1.00  0.00    -0.087 Cl
HETATM   19  C17 UNL     1      27.779   2.273  52.722  1.00  0.00     0.118 A 
ENDBRANCH  11  13
ENDBRANCH   5   7
BRANCH   1  20
HETATM   20  N2  UNL     1      30.742   5.777  47.783  1.00  0.00    -0.387 N 
HETATM   21  H11 UNL     1      31.405   6.584  47.981  1.00  0.00     0.159 HD
BRANCH  20  22
HETATM   22  C4  UNL     1      31.352   4.548  47.406  1.00  0.00     0.150 C 
BRANCH  22  23
HETATM   23  C3  UNL     1      32.802   4.532  47.770  1.00  0.00     0.290 C 
BRANCH  23  24
HETATM   24  N1  UNL     1      33.455   3.256  47.572  1.00  0.00     0.081 N 
HETATM   25  C1  UNL     1      34.756   3.395  46.957  1.00  0.00     0.309 C 
HETATM   26  C2  UNL     1      32.627   2.282  46.900  1.00  0.00     0.309 C 
ENDBRANCH  23  24
ENDBRANCH  22  23
ENDBRANCH  20  22
ENDBRANCH   1  20
TORSDOF 6
ENDMDL
MODEL 8
REMARK VINA RESULT:      -7.1      4.614      7.941
REMARK  6 active torsions:
REMARK  status: ('A' for Active; 'I' for Inactive)
REMARK    1  A    between atoms: N1_2  and  C3_4 
REMARK    2  A    between atoms: C3_4  and  C4_5 
REMARK    3  A    between atoms: C4_5  and  N2_6 
REMARK    4  A    between atoms: N2_6  and  C5_7 
REMARK    5  A    between atoms: C8_11  and  C9_12 
REMARK    6  A    between atoms: C12_16  and  N5_17 
ROOT
HETATM    1  C5  UNL     1      28.996   6.078  47.957  1.00  0.00     0.046 A 
HETATM    2  C6  UNL     1      28.302   7.191  47.540  1.00  0.00     0.145 A 
HETATM    3  N3  UNL     1      26.979   7.373  47.755  1.00  0.00    -0.270 NA
HETATM    4  C7  UNL     1      26.259   6.424  48.421  1.00  0.00     0.130 A 
HETATM    5  C8  UNL     1      26.879   5.275  48.875  1.00  0.00     0.014 A 
HETATM    6  C18 UNL     1      28.227   5.149  48.624  1.00  0.00     0.046 A 
ENDROOT
BRANCH   5   7
HETATM    7  C9  UNL     1      26.081   4.282  49.579  1.00  0.00     0.088 A 
HETATM    8  C10 UNL     1      24.711   4.192  49.440  1.00  0.00     0.148 A 
HETATM    9  N4  UNL     1      24.082   3.237  50.143  1.00  0.00    -0.267 NA
HETATM   10  C11 UNL     1      24.773   2.411  50.945  1.00  0.00     0.167 A 
HETATM   11  C12 UNL     1      26.142   2.480  51.102  1.00  0.00     0.151 A 
HETATM   12  N6  UNL     1      26.739   3.443  50.386  1.00  0.00    -0.227 NA
BRANCH  11  13
HETATM   13  N5  UNL     1      26.892   1.616  51.945  1.00  0.00    -0.315 N 
HETATM   14  C13 UNL     1      27.865   2.103  52.853  1.00  0.00     0.094 A 
HETATM   15  C14 UNL     1      28.563   1.289  53.634  1.00  0.00    -0.004 A 
HETATM   16  C15 UNL     1      28.362  -0.164  53.600  1.00  0.00     0.081 A 
HETATM   17  C16 UNL     1      27.337  -0.584  52.635  1.00  0.00     0.031 A 
HETATM   18 CL1  UNL     1      27.154  -2.328  52.653  1.00  0.00    -0.087 Cl
HETATM   19  C17 UNL     1      26.640   0.220  51.855  1.00  0.00     0.118 A 
ENDBRANCH  11  13
ENDBRANCH   5   7
BRANCH   1  20
HETATM   20  N2  UNL     1      30.378   5.858  47.728  1.00  0.00    -0.387 N 
HETATM   21  H11 UNL     1      30.607   5.202  46.924  1.00  0.00     0.159 HD
BRANCH  20  22
HETATM   22  C4  UNL     1      31.492   6.398  48.429  1.00  0.00     0.150 C 
BRANCH  22  23
HETATM   23  C3  UNL     1      32.616   5.415  48.494  1.00  0.00     0.290 C 
BRANCH  23  24
HETATM   24  N1  UNL     1      33.901   5.946  48.096  1.00  0.00     0.081 N 
HETATM   25  C1  UNL     1      35.003   5.177  48.628  1.00  0.00     0.309 C 
HETATM   26  C2  UNL     1      34.042   7.362  48.346  1.00  0.00     0.309 C 
ENDBRANCH  23  24
ENDBRANCH  22  23
ENDBRANCH  20  22
ENDBRANCH   1  20
TORSDOF 6
ENDMDL
MODEL 9
REMARK VINA RESULT:      -7.0      2.492      5.792
REMARK  6 active torsions:
REMARK  status: ('A' for Active; 'I' for Inactive)
REMARK    1  A    between atoms: N1_2  and  C3_4 
REMARK    2  A    between atoms: C3_4  and  C4_5 
REMARK    3  A    between atoms: C4_5  and  N2_6 
REMARK    4  A    between atoms: N2_6  and  C5_7 
REMARK    5  A    between atoms: C8_11  and  C9_12 
REMARK    6  A    between atoms: C12_16  and  N5_17 
ROOT
HETATM    1  C5  UNL     1      24.216  -0.765  54.363  1.00  0.00     0.046 A 
HETATM    2  C6  UNL     1      23.488  -1.495  55.275  1.00  0.00     0.145 A 
HETATM    3  N3  UNL     1      22.148  -1.385  55.425  1.00  0.00    -0.270 NA
HETATM    4  C7  UNL     1      21.444  -0.513  54.645  1.00  0.00     0.130 A 
HETATM    5  C8  UNL     1      22.098   0.257  53.702  1.00  0.00     0.014 A 
HETATM    6  C18 UNL     1      23.462   0.098  53.599  1.00  0.00     0.046 A 
ENDROOT
BRANCH   5   7
HETATM    7  C9  UNL     1      21.317   1.178  52.888  1.00  0.00     0.088 A 
HETATM    8  C10 UNL     1      20.035   0.895  52.466  1.00  0.00     0.148 A 
HETATM    9  N4  UNL     1      19.414   1.821  51.717  1.00  0.00    -0.267 NA
HETATM   10  C11 UNL     1      20.031   2.970  51.401  1.00  0.00     0.167 A 
HETATM   11  C12 UNL     1      21.313   3.277  51.811  1.00  0.00     0.151 A 
HETATM   12  N6  UNL     1      21.903   2.334  52.556  1.00  0.00    -0.227 NA
BRANCH  11  13
HETATM   13  N5  UNL     1      21.984   4.488  51.487  1.00  0.00    -0.315 N 
HETATM   14  C13 UNL     1      23.385   4.640  51.642  1.00  0.00     0.094 A 
HETATM   15  C14 UNL     1      24.003   5.774  51.341  1.00  0.00    -0.004 A 
HETATM   16  C15 UNL     1      23.266   6.936  50.829  1.00  0.00     0.081 A 
HETATM   17  C16 UNL     1      21.822   6.694  50.698  1.00  0.00     0.031 A 
HETATM   18 CL1  UNL     1      21.013   8.122  50.082  1.00  0.00    -0.087 Cl
HETATM   19  C17 UNL     1      21.202   5.568  50.996  1.00  0.00     0.118 A 
ENDBRANCH  11  13
ENDBRANCH   5   7
BRANCH   1  20
HETATM   20  N2  UNL     1      25.622  -0.852  54.199  1.00  0.00    -0.387 N 
HETATM   21  H11 UNL     1      26.193  -0.683  55.079  1.00  0.00     0.159 HD
BRANCH  20  22
HETATM   22  C4  UNL     1      26.364  -1.138  53.019  1.00  0.00     0.150 C 
BRANCH  22  23
HETATM   23  C3  UNL     1      27.553  -0.241  52.900  1.00  0.00     0.290 C 
BRANCH  23  24
HETATM   24  N1  UNL     1      28.539  -0.412  53.944  1.00  0.00     0.081 N 
HETATM   25  C1  UNL     1      28.934   0.846  54.539  1.00  0.00     0.309 C 
HETATM   26  C2  UNL     1      29.671  -1.213  53.543  1.00  0.00     0.309 C 
ENDBRANCH  23  24
ENDBRANCH  22  23
ENDBRANCH  20  22
ENDBRANCH   1  20
TORSDOF 6
ENDMDL
