MODEL 1
REMARK VINA RESULT:      -9.6      0.000      0.000
REMARK  0 active torsions:
REMARK  status: ('A' for Active; 'I' for Inactive)
ROOT
HETATM    1 BR1  UNL     1      17.480  -0.531  52.331  1.00  0.00    -0.051 Br
HETATM    2  C1  UNL     1      19.287  -0.289  52.478  1.00  0.00     0.013 A 
HETATM    3  C2  UNL     1      19.807   0.280  51.269  1.00  0.00     0.020 A 
HETATM    4  C3  UNL     1      21.205   0.591  51.032  1.00  0.00     0.013 A 
HETATM    5  C4  UNL     1      22.026   0.278  52.134  1.00  0.00     0.009 A 
HETATM    6  C5  UNL     1      21.657  -0.288  53.399  1.00  0.00     0.043 A 
HETATM    7  C6  UNL     1      20.381  -0.391  53.158  1.00  0.00     0.049 A 
HETATM    8  N1  UNL     1      22.871  -0.407  54.128  1.00  0.00    -0.342 N 
HETATM    9  C7  UNL     1      23.982   0.090  53.300  1.00  0.00     0.144 A 
HETATM   10  N2  UNL     1      24.866  -0.185  54.215  1.00  0.00    -0.226 NA
HETATM   11  C8  UNL     1      26.190  -0.078  54.374  1.00  0.00     0.231 C 
HETATM   12  N3  UNL     1      27.096   0.447  55.175  1.00  0.00    -0.256 NA
HETATM   13  C9  UNL     1      28.514   0.237  54.843  1.00  0.00     0.336 C 
HETATM   14  O1  UNL     1      28.933   1.456  54.088  1.00  0.00    -0.293 OA
HETATM   15  C10 UNL     1      28.047   1.626  53.083  1.00  0.00    -0.019 C 
HETATM   16  C11 UNL     1      27.256   1.771  52.217  1.00  0.00     0.037 A 
HETATM   17  C12 UNL     1      26.296   1.929  51.203  1.00  0.00     0.074 A 
HETATM   18  C13 UNL     1      25.746   2.379  52.333  1.00  0.00     0.032 A 
HETATM   19  C14 UNL     1      24.641   2.931  53.025  1.00  0.00    -0.023 C 
HETATM   20  C15 UNL     1      23.399   3.308  53.014  1.00  0.00    -0.001 C 
HETATM   21  C16 UNL     1      23.038   2.938  51.632  1.00  0.00     0.298 C 
HETATM   22  N4  UNL     1      23.824   1.737  51.363  1.00  0.00     0.103 N 
HETATM   23  C17 UNL     1      23.494   0.553  52.017  1.00  0.00     0.325 A 
HETATM   24  H4  UNL     1      22.506  -0.832  55.047  1.00  0.00     0.167 HD
HETATM   25  H14 UNL     1      23.648   1.587  50.323  1.00  0.00     0.317 HD
ENDROOT
TORSDOF 0
ENDMDL
MODEL 2
REMARK VINA RESULT:      -8.7      3.916      6.214
REMARK  0 active torsions:
REMARK  status: ('A' for Active; 'I' for Inactive)
ROOT
HETATM    1 BR1  UNL     1      28.267   5.509  48.296  1.00  0.00    -0.051 Br
HETATM    2  C1  UNL     1      27.021   4.596  49.276  1.00  0.00     0.013 A 
HETATM    3  C2  UNL     1      25.821   5.373  49.392  1.00  0.00     0.020 A 
HETATM    4  C3  UNL     1      24.631   4.960  50.115  1.00  0.00     0.013 A 
HETATM    5  C4  UNL     1      24.768   3.687  50.705  1.00  0.00     0.009 A 
HETATM    6  C5  UNL     1      25.894   2.798  50.677  1.00  0.00     0.043 A 
HETATM    7  C6  UNL     1      26.672   3.555  49.957  1.00  0.00     0.049 A 
HETATM    8  N1  UNL     1      25.500   1.667  51.442  1.00  0.00    -0.342 N 
HETATM    9  C7  UNL     1      24.128   1.872  51.935  1.00  0.00     0.144 A 
HETATM   10  N2  UNL     1      24.123   0.735  52.569  1.00  0.00    -0.226 NA
HETATM   11  C8  UNL     1      23.278   0.032  53.331  1.00  0.00     0.231 C 
HETATM   12  N3  UNL     1      22.688  -1.145  53.407  1.00  0.00    -0.256 NA
HETATM   13  C9  UNL     1      21.788  -1.394  54.543  1.00  0.00     0.336 C 
HETATM   14  O1  UNL     1      20.415  -1.092  54.039  1.00  0.00    -0.293 OA
HETATM   15  C10 UNL     1      20.453   0.145  53.496  1.00  0.00    -0.019 C 
HETATM   16  C11 UNL     1      20.504   1.221  53.011  1.00  0.00     0.037 A 
HETATM   17  C12 UNL     1      20.593   2.497  52.430  1.00  0.00     0.074 A 
HETATM   18  C13 UNL     1      21.114   1.634  51.556  1.00  0.00     0.032 A 
HETATM   19  C14 UNL     1      21.741   1.374  50.312  1.00  0.00    -0.023 C 
HETATM   20  C15 UNL     1      22.280   1.831  49.223  1.00  0.00    -0.001 C 
HETATM   21  C16 UNL     1      22.181   3.279  49.483  1.00  0.00     0.298 C 
HETATM   22  N4  UNL     1      22.356   3.399  50.929  1.00  0.00     0.103 N 
HETATM   23  C17 UNL     1      23.608   3.145  51.481  1.00  0.00     0.325 A 
HETATM   24  H4  UNL     1      26.388   1.064  51.368  1.00  0.00     0.167 HD
HETATM   25  H14 UNL     1      22.137   4.428  51.093  1.00  0.00     0.317 HD
ENDROOT
TORSDOF 0
ENDMDL
MODEL 3
REMARK VINA RESULT:      -8.6      3.875      6.799
REMARK  0 active torsions:
REMARK  status: ('A' for Active; 'I' for Inactive)
ROOT
HETATM    1 BR1  UNL     1      28.746   0.334  54.643  1.00  0.00    -0.051 Br
HETATM    2  C1  UNL     1      27.049   0.635  54.029  1.00  0.00     0.013 A 
HETATM    3  C2  UNL     1      26.466  -0.593  53.575  1.00  0.00     0.020 A 
HETATM    4  C3  UNL     1      25.134  -0.722  53.011  1.00  0.00     0.013 A 
HETATM    5  C4  UNL     1      24.447   0.508  52.955  1.00  0.00     0.009 A 
HETATM    6  C5  UNL     1      24.892   1.808  53.368  1.00  0.00     0.043 A 
HETATM    7  C6  UNL     1      26.073   1.445  53.779  1.00  0.00     0.049 A 
HETATM    8  N1  UNL     1      23.815   2.687  53.073  1.00  0.00    -0.342 N 
HETATM    9  C7  UNL     1      22.711   1.915  52.480  1.00  0.00     0.144 A 
HETATM   10  N2  UNL     1      21.973   2.977  52.325  1.00  0.00    -0.226 NA
HETATM   11  C8  UNL     1      20.759   3.276  51.851  1.00  0.00     0.231 C 
HETATM   12  N3  UNL     1      19.623   3.847  52.202  1.00  0.00    -0.256 NA
HETATM   13  C9  UNL     1      18.541   3.899  51.207  1.00  0.00     0.336 C 
HETATM   14  O1  UNL     1      17.672   2.720  51.498  1.00  0.00    -0.293 OA
HETATM   15  C10 UNL     1      18.474   1.633  51.532  1.00  0.00    -0.019 C 
HETATM   16  C11 UNL     1      19.189   0.693  51.574  1.00  0.00     0.037 A 
HETATM   17  C12 UNL     1      20.061  -0.407  51.630  1.00  0.00     0.074 A 
HETATM   18  C13 UNL     1      20.181   0.245  52.789  1.00  0.00     0.032 A 
HETATM   19  C14 UNL     1      20.783   0.381  54.064  1.00  0.00    -0.023 C 
HETATM   20  C15 UNL     1      21.673  -0.018  54.921  1.00  0.00    -0.001 C 
HETATM   21  C16 UNL     1      22.330  -1.072  54.126  1.00  0.00     0.298 C 
HETATM   22  N4  UNL     1      22.272  -0.579  52.753  1.00  0.00     0.103 N 
HETATM   23  C17 UNL     1      23.058   0.511  52.393  1.00  0.00     0.325 A 
HETATM   24  H4  UNL     1      24.230   3.622  53.409  1.00  0.00     0.167 HD
HETATM   25  H14 UNL     1      22.621  -1.420  52.201  1.00  0.00     0.317 HD
ENDROOT
TORSDOF 0
ENDMDL
MODEL 4
REMARK VINA RESULT:      -8.6      3.789      6.344
REMARK  0 active torsions:
REMARK  status: ('A' for Active; 'I' for Inactive)
ROOT
HETATM    1 BR1  UNL     1      29.790  -1.027  53.617  1.00  0.00    -0.051 Br
HETATM    2  C1  UNL     1      28.176  -0.204  53.363  1.00  0.00     0.013 A 
HETATM    3  C2  UNL     1      28.335   1.220  53.427  1.00  0.00     0.020 A 
HETATM    4  C3  UNL     1      27.258   2.183  53.283  1.00  0.00     0.013 A 
HETATM    5  C4  UNL     1      26.007   1.570  53.064  1.00  0.00     0.009 A 
HETATM    6  C5  UNL     1      25.692   0.174  52.974  1.00  0.00     0.043 A 
HETATM    7  C6  UNL     1      26.902  -0.271  53.157  1.00  0.00     0.049 A 
HETATM    8  N1  UNL     1      24.288   0.117  52.763  1.00  0.00    -0.342 N 
HETATM    9  C7  UNL     1      23.750   1.486  52.723  1.00  0.00     0.144 A 
HETATM   10  N2  UNL     1      22.529   1.066  52.558  1.00  0.00    -0.226 NA
HETATM   11  C8  UNL     1      21.311   1.599  52.411  1.00  0.00     0.231 C 
HETATM   12  N3  UNL     1      20.280   1.611  51.590  1.00  0.00    -0.256 NA
HETATM   13  C9  UNL     1      19.120   2.440  51.952  1.00  0.00     0.336 C 
HETATM   14  O1  UNL     1      19.309   3.733  51.227  1.00  0.00    -0.293 OA
HETATM   15  C10 UNL     1      20.548   4.179  51.527  1.00  0.00    -0.019 C 
HETATM   16  C11 UNL     1      21.640   4.550  51.786  1.00  0.00     0.037 A 
HETATM   17  C12 UNL     1      22.945   4.965  52.099  1.00  0.00     0.074 A 
HETATM   18  C13 UNL     1      23.051   4.013  51.169  1.00  0.00     0.032 A 
HETATM   19  C14 UNL     1      23.853   3.190  50.342  1.00  0.00    -0.023 C 
HETATM   20  C15 UNL     1      25.035   2.780  49.993  1.00  0.00    -0.001 C 
HETATM   21  C16 UNL     1      25.856   3.540  50.954  1.00  0.00     0.298 C 
HETATM   22  N4  UNL     1      25.030   3.614  52.156  1.00  0.00     0.103 N 
HETATM   23  C17 UNL     1      24.811   2.457  52.898  1.00  0.00     0.325 A 
HETATM   24  H4  UNL     1      24.142  -0.948  52.709  1.00  0.00     0.167 HD
HETATM   25  H14 UNL     1      25.590   4.283  52.767  1.00  0.00     0.317 HD
ENDROOT
TORSDOF 0
ENDMDL
MODEL 5
REMARK VINA RESULT:      -8.5      4.377      6.346
REMARK  0 active torsions:
REMARK  status: ('A' for Active; 'I' for Inactive)
ROOT
HETATM    1 BR1  UNL     1      26.288   8.806  46.731  1.00  0.00    -0.051 Br
HETATM    2  C1  UNL     1      26.087   7.391  47.872  1.00  0.00     0.013 A 
HETATM    3  C2  UNL     1      24.886   7.545  48.639  1.00  0.00     0.020 A 
HETATM    4  C3  UNL     1      24.422   6.613  49.652  1.00  0.00     0.013 A 
HETATM    5  C4  UNL     1      25.285   5.510  49.811  1.00  0.00     0.009 A 
HETATM    6  C5  UNL     1      26.510   5.219  49.125  1.00  0.00     0.043 A 
HETATM    7  C6  UNL     1      26.516   6.274  48.362  1.00  0.00     0.049 A 
HETATM    8  N1  UNL     1      26.975   3.998  49.684  1.00  0.00    -0.342 N 
HETATM    9  C7  UNL     1      26.026   3.547  50.715  1.00  0.00     0.144 A 
HETATM   10  N2  UNL     1      26.744   2.500  51.002  1.00  0.00    -0.226 NA
HETATM   11  C8  UNL     1      26.684   1.461  51.842  1.00  0.00     0.231 C 
HETATM   12  N3  UNL     1      26.691   0.142  51.858  1.00  0.00    -0.256 NA
HETATM   13  C9  UNL     1      26.588  -0.532  53.161  1.00  0.00     0.336 C 
HETATM   14  O1  UNL     1      25.140  -0.853  53.334  1.00  0.00    -0.293 OA
HETATM   15  C10 UNL     1      24.453   0.294  53.137  1.00  0.00    -0.019 C 
HETATM   16  C11 UNL     1      23.863   1.301  52.948  1.00  0.00     0.037 A 
HETATM   17  C12 UNL     1      23.184   2.507  52.708  1.00  0.00     0.074 A 
HETATM   18  C13 UNL     1      23.523   2.006  51.518  1.00  0.00     0.032 A 
HETATM   19  C14 UNL     1      23.548   2.109  50.105  1.00  0.00    -0.023 C 
HETATM   20  C15 UNL     1      23.303   2.806  49.038  1.00  0.00    -0.001 C 
HETATM   21  C16 UNL     1      22.798   4.045  49.658  1.00  0.00     0.298 C 
HETATM   22  N4  UNL     1      23.562   4.166  50.898  1.00  0.00     0.103 N 
HETATM   23  C17 UNL     1      24.918   4.473  50.828  1.00  0.00     0.325 A 
HETATM   24  H4  UNL     1      27.881   3.858  49.119  1.00  0.00     0.167 HD
HETATM   25  H14 UNL     1      23.074   4.981  51.379  1.00  0.00     0.317 HD
ENDROOT
TORSDOF 0
ENDMDL
MODEL 6
REMARK VINA RESULT:      -8.4      3.649      5.969
REMARK  0 active torsions:
REMARK  status: ('A' for Active; 'I' for Inactive)
ROOT
HETATM    1 BR1  UNL     1      26.728   6.991  48.108  1.00  0.00    -0.051 Br
HETATM    2  C1  UNL     1      25.989   5.624  49.072  1.00  0.00     0.013 A 
HETATM    3  C2  UNL     1      26.871   4.493  49.079  1.00  0.00     0.020 A 
HETATM    4  C3  UNL     1      26.596   3.229  49.737  1.00  0.00     0.013 A 
HETATM    5  C4  UNL     1      25.348   3.218  50.392  1.00  0.00     0.009 A 
HETATM    6  C5  UNL     1      24.365   4.260  50.475  1.00  0.00     0.043 A 
HETATM    7  C6  UNL     1      25.016   5.144  49.774  1.00  0.00     0.049 A 
HETATM    8  N1  UNL     1      23.297   3.712  51.236  1.00  0.00    -0.342 N 
HETATM    9  C7  UNL     1      23.635   2.330  51.617  1.00  0.00     0.144 A 
HETATM   10  N2  UNL     1      22.499   2.158  52.227  1.00  0.00    -0.226 NA
HETATM   11  C8  UNL     1      21.880   1.186  52.907  1.00  0.00     0.231 C 
HETATM   12  N3  UNL     1      21.323   0.934  54.076  1.00  0.00    -0.256 NA
HETATM   13  C9  UNL     1      20.759  -0.407  54.296  1.00  0.00     0.336 C 
HETATM   14  O1  UNL     1      21.829  -1.182  54.993  1.00  0.00    -0.293 OA
HETATM   15  C10 UNL     1      22.953  -1.061  54.255  1.00  0.00    -0.019 C 
HETATM   16  C11 UNL     1      23.934  -0.935  53.607  1.00  0.00     0.037 A 
HETATM   17  C12 UNL     1      25.089  -0.761  52.827  1.00  0.00     0.074 A 
HETATM   18  C13 UNL     1      24.930   0.355  53.542  1.00  0.00     0.032 A 
HETATM   19  C14 UNL     1      25.356   1.660  53.891  1.00  0.00    -0.023 C 
HETATM   20  C15 UNL     1      26.161   2.657  53.687  1.00  0.00    -0.001 C 
HETATM   21  C16 UNL     1      26.933   2.127  52.548  1.00  0.00     0.298 C 
HETATM   22  N4  UNL     1      25.968   1.324  51.800  1.00  0.00     0.103 N 
HETATM   23  C17 UNL     1      24.944   1.968  51.112  1.00  0.00     0.325 A 
HETATM   24  H4  UNL     1      22.619   4.547  51.248  1.00  0.00     0.167 HD
HETATM   25  H14 UNL     1      26.589   0.849  51.078  1.00  0.00     0.317 HD
ENDROOT
TORSDOF 0
ENDMDL
MODEL 7
REMARK VINA RESULT:      -8.0      3.371      5.160
REMARK  0 active torsions:
REMARK  status: ('A' for Active; 'I' for Inactive)
ROOT
HETATM    1 BR1  UNL     1      21.995   8.929  49.195  1.00  0.00    -0.051 Br
HETATM    2  C1  UNL     1      22.599   7.374  49.944  1.00  0.00     0.013 A 
HETATM    3  C2  UNL     1      21.594   6.819  50.803  1.00  0.00     0.020 A 
HETATM    4  C3  UNL     1      21.741   5.595  51.571  1.00  0.00     0.013 A 
HETATM    5  C4  UNL     1      22.997   4.984  51.383  1.00  0.00     0.009 A 
HETATM    6  C5  UNL     1      24.094   5.413  50.565  1.00  0.00     0.043 A 
HETATM    7  C6  UNL     1      23.530   6.491  50.101  1.00  0.00     0.049 A 
HETATM    8  N1  UNL     1      25.113   4.441  50.759  1.00  0.00    -0.342 N 
HETATM    9  C7  UNL     1      24.630   3.417  51.700  1.00  0.00     0.144 A 
HETATM   10  N2  UNL     1      25.755   2.764  51.660  1.00  0.00    -0.226 NA
HETATM   11  C8  UNL     1      26.277   1.661  52.206  1.00  0.00     0.231 C 
HETATM   12  N3  UNL     1      26.833   0.510  51.882  1.00  0.00    -0.256 NA
HETATM   13  C9  UNL     1      27.246  -0.388  52.972  1.00  0.00     0.336 C 
HETATM   14  O1  UNL     1      26.114  -1.346  53.152  1.00  0.00    -0.293 OA
HETATM   15  C10 UNL     1      24.991  -0.611  53.303  1.00  0.00    -0.019 C 
HETATM   16  C11 UNL     1      24.014   0.044  53.419  1.00  0.00     0.037 A 
HETATM   17  C12 UNL     1      22.866   0.843  53.543  1.00  0.00     0.074 A 
HETATM   18  C13 UNL     1      23.171   0.798  52.244  1.00  0.00     0.032 A 
HETATM   19  C14 UNL     1      22.907   1.184  50.908  1.00  0.00    -0.023 C 
HETATM   20  C15 UNL     1      22.215   1.900  50.074  1.00  0.00    -0.001 C 
HETATM   21  C16 UNL     1      21.357   2.631  51.024  1.00  0.00     0.298 C 
HETATM   22  N4  UNL     1      22.203   2.826  52.199  1.00  0.00     0.103 N 
HETATM   23  C17 UNL     1      23.275   3.710  52.121  1.00  0.00     0.325 A 
HETATM   24  H4  UNL     1      25.883   4.836  50.119  1.00  0.00     0.167 HD
HETATM   25  H14 UNL     1      21.512   3.223  52.905  1.00  0.00     0.317 HD
ENDROOT
TORSDOF 0
ENDMDL
MODEL 8
REMARK VINA RESULT:      -7.8      5.101      6.711
REMARK  0 active torsions:
REMARK  status: ('A' for Active; 'I' for Inactive)
ROOT
HETATM    1 BR1  UNL     1      23.842  -0.179  53.389  1.00  0.00    -0.051 Br
HETATM    2  C1  UNL     1      24.344   1.170  52.261  1.00  0.00     0.013 A 
HETATM    3  C2  UNL     1      23.198   1.686  51.571  1.00  0.00     0.020 A 
HETATM    4  C3  UNL     1      23.232   2.755  50.587  1.00  0.00     0.013 A 
HETATM    5  C4  UNL     1      24.533   3.254  50.372  1.00  0.00     0.009 A 
HETATM    6  C5  UNL     1      25.766   2.846  50.980  1.00  0.00     0.043 A 
HETATM    7  C6  UNL     1      25.264   1.917  51.743  1.00  0.00     0.049 A 
HETATM    8  N1  UNL     1      26.767   3.664  50.391  1.00  0.00    -0.342 N 
HETATM    9  C7  UNL     1      26.136   4.574  49.421  1.00  0.00     0.144 A 
HETATM   10  N2  UNL     1      27.277   5.105  49.087  1.00  0.00    -0.226 NA
HETATM   11  C8  UNL     1      27.720   6.050  48.251  1.00  0.00     0.231 C 
HETATM   12  N3  UNL     1      28.410   7.174  48.232  1.00  0.00    -0.256 NA
HETATM   13  C9  UNL     1      28.602   7.844  46.937  1.00  0.00     0.336 C 
HETATM   14  O1  UNL     1      27.525   8.874  46.855  1.00  0.00    -0.293 OA
HETATM   15  C10 UNL     1      26.354   8.245  47.096  1.00  0.00    -0.019 C 
HETATM   16  C11 UNL     1      25.338   7.685  47.323  1.00  0.00     0.037 A 
HETATM   17  C12 UNL     1      24.145   7.000  47.608  1.00  0.00     0.074 A 
HETATM   18  C13 UNL     1      24.759   7.215  48.774  1.00  0.00     0.032 A 
HETATM   19  C14 UNL     1      24.803   7.069  50.182  1.00  0.00    -0.023 C 
HETATM   20  C15 UNL     1      24.291   6.568  51.264  1.00  0.00    -0.001 C 
HETATM   21  C16 UNL     1      23.183   5.791  50.679  1.00  0.00     0.298 C 
HETATM   22  N4  UNL     1      23.703   5.330  49.394  1.00  0.00     0.103 N 
HETATM   23  C17 UNL     1      24.703   4.362  49.379  1.00  0.00     0.325 A 
HETATM   24  H4  UNL     1      27.642   3.296  50.897  1.00  0.00     0.167 HD
HETATM   25  H14 UNL     1      22.838   4.901  48.946  1.00  0.00     0.317 HD
ENDROOT
TORSDOF 0
ENDMDL
MODEL 9
REMARK VINA RESULT:      -7.7      4.932      7.470
REMARK  0 active torsions:
REMARK  status: ('A' for Active; 'I' for Inactive)
ROOT
HETATM    1 BR1  UNL     1      29.662   6.982  47.086  1.00  0.00    -0.051 Br
HETATM    2  C1  UNL     1      28.298   6.224  48.040  1.00  0.00     0.013 A 
HETATM    3  C2  UNL     1      27.365   7.232  48.451  1.00  0.00     0.020 A 
HETATM    4  C3  UNL     1      26.170   6.987  49.238  1.00  0.00     0.013 A 
HETATM    5  C4  UNL     1      26.005   5.626  49.565  1.00  0.00     0.009 A 
HETATM    6  C5  UNL     1      26.843   4.511  49.230  1.00  0.00     0.043 A 
HETATM    7  C6  UNL     1      27.737   5.183  48.563  1.00  0.00     0.049 A 
HETATM    8  N1  UNL     1      26.221   3.380  49.823  1.00  0.00    -0.342 N 
HETATM    9  C7  UNL     1      24.999   3.811  50.522  1.00  0.00     0.144 A 
HETATM   10  N2  UNL     1      24.738   2.605  50.935  1.00  0.00    -0.226 NA
HETATM   11  C8  UNL     1      23.798   1.992  51.663  1.00  0.00     0.231 C 
HETATM   12  N3  UNL     1      22.921   1.009  51.602  1.00  0.00    -0.256 NA
HETATM   13  C9  UNL     1      22.080   0.761  52.783  1.00  0.00     0.336 C 
HETATM   14  O1  UNL     1      20.804   1.493  52.527  1.00  0.00    -0.293 OA
HETATM   15  C10 UNL     1      21.130   2.766  52.215  1.00  0.00    -0.019 C 
HETATM   16  C11 UNL     1      21.431   3.872  51.930  1.00  0.00     0.037 A 
HETATM   17  C12 UNL     1      21.814   5.178  51.582  1.00  0.00     0.074 A 
HETATM   18  C13 UNL     1      22.012   4.414  50.505  1.00  0.00     0.032 A 
HETATM   19  C14 UNL     1      22.445   4.272  49.164  1.00  0.00    -0.023 C 
HETATM   20  C15 UNL     1      22.998   4.797  48.113  1.00  0.00    -0.001 C 
HETATM   21  C16 UNL     1      23.315   6.137  48.641  1.00  0.00     0.298 C 
HETATM   22  N4  UNL     1      23.630   5.906  50.049  1.00  0.00     0.103 N 
HETATM   23  C17 UNL     1      24.806   5.240  50.377  1.00  0.00     0.325 A 
HETATM   24  H4  UNL     1      26.905   2.604  49.526  1.00  0.00     0.167 HD
HETATM   25  H14 UNL     1      23.710   6.900  50.423  1.00  0.00     0.317 HD
ENDROOT
TORSDOF 0
ENDMDL
