MODEL 1
REMARK VINA RESULT:      -9.1      0.000      0.000
REMARK  2 active torsions:
REMARK  status: ('A' for Active; 'I' for Inactive)
REMARK    1  A    between atoms: C4_5  and  N1_6 
REMARK    2  A    between atoms: N1_6  and  C5_7 
ROOT
HETATM    1  C5  UNL     1      24.027   2.541  52.240  1.00  0.00     0.134 C 
HETATM    2  N2  UNL     1      22.891   3.219  52.344  1.00  0.00    -0.227 NA
HETATM    3  C6  UNL     1      22.474   3.924  51.172  1.00  0.00     0.231 C 
HETATM    4  N3  UNL     1      23.402   4.683  51.334  1.00  0.00    -0.257 NA
HETATM    5  C7  UNL     1      24.044   5.823  50.791  1.00  0.00     0.325 C 
HETATM    6  O1  UNL     1      25.104   5.472  49.987  1.00  0.00    -0.330 OA
HETATM    7  C8  UNL     1      26.041   6.053  49.288  1.00  0.00     0.079 A 
HETATM    8  C9  UNL     1      26.424   7.224  48.707  1.00  0.00     0.037 A 
HETATM    9  C10 UNL     1      27.612   7.320  48.033  1.00  0.00     0.003 A 
HETATM   10  C11 UNL     1      28.431   6.190  47.948  1.00  0.00     0.001 A 
HETATM   11  C12 UNL     1      28.022   5.022  48.542  1.00  0.00     0.012 A 
HETATM   12  C13 UNL     1      26.827   4.881  49.235  1.00  0.00     0.003 A 
HETATM   13  C14 UNL     1      26.629   3.493  49.769  1.00  0.00     0.311 C 
HETATM   14  N4  UNL     1      25.785   3.628  50.935  1.00  0.00     0.094 N 
HETATM   15  C15 UNL     1      24.883   2.510  51.007  1.00  0.00     0.347 C 
HETATM   16  H13 UNL     1      26.339   3.678  51.826  1.00  0.00     0.316 HD
ENDROOT
BRANCH   1  17
HETATM   17  N1  UNL     1      24.410   1.857  53.431  1.00  0.00    -0.343 N 
HETATM   18  H3  UNL     1      23.796   2.054  54.287  1.00  0.00     0.167 HD
BRANCH  17  19
HETATM   19  C4  UNL     1      25.577   1.009  53.295  1.00  0.00     0.035 A 
HETATM   20  C3  UNL     1      25.496  -0.214  52.718  1.00  0.00     0.032 A 
HETATM   21  C2  UNL     1      26.664  -0.980  52.615  1.00  0.00     0.046 A 
HETATM   22  C1  UNL     1      27.849  -0.440  53.110  1.00  0.00     0.138 A 
HETATM   23  F1  UNL     1      29.021  -1.142  53.032  1.00  0.00    -0.204 F 
HETATM   24  C17 UNL     1      27.898   0.819  53.697  1.00  0.00     0.074 A 
HETATM   25  C16 UNL     1      26.759   1.575  53.802  1.00  0.00     0.056 A 
HETATM   26 CL1  UNL     1      29.379   1.536  54.347  1.00  0.00    -0.081 Cl
ENDBRANCH  17  19
ENDBRANCH   1  17
TORSDOF 2
ENDMDL
MODEL 2
REMARK VINA RESULT:      -9.0      1.516      1.959
REMARK  2 active torsions:
REMARK  status: ('A' for Active; 'I' for Inactive)
REMARK    1  A    between atoms: C4_5  and  N1_6 
REMARK    2  A    between atoms: N1_6  and  C5_7 
ROOT
HETATM    1  C5  UNL     1      25.310   2.651  51.804  1.00  0.00     0.134 C 
HETATM    2  N2  UNL     1      23.991   2.529  51.714  1.00  0.00    -0.227 NA
HETATM    3  C6  UNL     1      23.433   2.720  50.412  1.00  0.00     0.231 C 
HETATM    4  N3  UNL     1      23.716   3.894  50.495  1.00  0.00    -0.257 NA
HETATM    5  C7  UNL     1      23.659   5.127  49.800  1.00  0.00     0.325 C 
HETATM    6  O1  UNL     1      24.836   5.390  49.139  1.00  0.00    -0.330 OA
HETATM    7  C8  UNL     1      25.363   6.336  48.410  1.00  0.00     0.079 A 
HETATM    8  C9  UNL     1      25.086   7.436  47.656  1.00  0.00     0.037 A 
HETATM    9  C10 UNL     1      26.090   8.147  47.051  1.00  0.00     0.003 A 
HETATM   10  C11 UNL     1      27.410   7.721  47.220  1.00  0.00     0.001 A 
HETATM   11  C12 UNL     1      27.663   6.609  47.985  1.00  0.00     0.012 A 
HETATM   12  C13 UNL     1      26.677   5.861  48.615  1.00  0.00     0.003 A 
HETATM   13  C14 UNL     1      27.234   4.693  49.372  1.00  0.00     0.311 C 
HETATM   14  N4  UNL     1      26.298   4.423  50.441  1.00  0.00     0.094 N 
HETATM   15  C15 UNL     1      26.206   3.004  50.653  1.00  0.00     0.347 C 
HETATM   16  H13 UNL     1      26.575   4.885  51.342  1.00  0.00     0.316 HD
ENDROOT
BRANCH   1  17
HETATM   17  N1  UNL     1      25.826   2.458  53.119  1.00  0.00    -0.343 N 
HETATM   18  H3  UNL     1      25.350   3.037  53.885  1.00  0.00     0.167 HD
BRANCH  17  19
HETATM   19  C4  UNL     1      26.921   1.514  53.208  1.00  0.00     0.035 A 
HETATM   20  C3  UNL     1      28.160   1.905  53.588  1.00  0.00     0.032 A 
HETATM   21  C2  UNL     1      29.172   0.938  53.657  1.00  0.00     0.046 A 
HETATM   22  C1  UNL     1      28.846  -0.376  53.331  1.00  0.00     0.138 A 
HETATM   23  F1  UNL     1      29.794  -1.363  53.385  1.00  0.00    -0.204 F 
HETATM   24  C17 UNL     1      27.563  -0.746  52.944  1.00  0.00     0.074 A 
HETATM   25  C16 UNL     1      26.567   0.195  52.875  1.00  0.00     0.056 A 
HETATM   26 CL1  UNL     1      27.112  -2.401  52.514  1.00  0.00    -0.081 Cl
ENDBRANCH  17  19
ENDBRANCH   1  17
TORSDOF 2
ENDMDL
MODEL 3
REMARK VINA RESULT:      -8.7      1.546      1.985
REMARK  2 active torsions:
REMARK  status: ('A' for Active; 'I' for Inactive)
REMARK    1  A    between atoms: C4_5  and  N1_6 
REMARK    2  A    between atoms: N1_6  and  C5_7 
ROOT
HETATM    1  C5  UNL     1      23.893   4.370  51.562  1.00  0.00     0.134 C 
HETATM    2  N2  UNL     1      22.873   5.181  51.308  1.00  0.00    -0.227 NA
HETATM    3  C6  UNL     1      22.752   5.626  49.954  1.00  0.00     0.231 C 
HETATM    4  N3  UNL     1      23.752   6.288  50.112  1.00  0.00    -0.257 NA
HETATM    5  C7  UNL     1      24.638   7.180  49.459  1.00  0.00     0.325 C 
HETATM    6  O1  UNL     1      25.738   6.524  48.958  1.00  0.00    -0.330 OA
HETATM    7  C8  UNL     1      26.848   6.805  48.332  1.00  0.00     0.079 A 
HETATM    8  C9  UNL     1      27.492   7.748  47.588  1.00  0.00     0.037 A 
HETATM    9  C10 UNL     1      28.768   7.539  47.137  1.00  0.00     0.003 A 
HETATM   10  C11 UNL     1      29.404   6.335  47.451  1.00  0.00     0.001 A 
HETATM   11  C12 UNL     1      28.733   5.400  48.202  1.00  0.00     0.012 A 
HETATM   12  C13 UNL     1      27.441   5.572  48.679  1.00  0.00     0.003 A 
HETATM   13  C14 UNL     1      26.952   4.387  49.458  1.00  0.00     0.311 C 
HETATM   14  N4  UNL     1      25.974   4.897  50.394  1.00  0.00     0.094 N 
HETATM   15  C15 UNL     1      24.908   3.943  50.543  1.00  0.00     0.347 C 
HETATM   16  H13 UNL     1      26.389   5.095  51.337  1.00  0.00     0.316 HD
ENDROOT
BRANCH   1  17
HETATM   17  N1  UNL     1      23.982   3.954  52.924  1.00  0.00    -0.343 N 
HETATM   18  H3  UNL     1      23.793   4.722  53.647  1.00  0.00     0.167 HD
BRANCH  17  19
HETATM   19  C4  UNL     1      24.323   2.559  53.110  1.00  0.00     0.035 A 
HETATM   20  C3  UNL     1      23.432   1.574  52.842  1.00  0.00     0.032 A 
HETATM   21  C2  UNL     1      23.829   0.245  53.040  1.00  0.00     0.046 A 
HETATM   22  C1  UNL     1      25.122   0.009  53.502  1.00  0.00     0.138 A 
HETATM   23  F1  UNL     1      25.564  -1.270  53.709  1.00  0.00    -0.204 F 
HETATM   24  C17 UNL     1      26.012   1.042  53.768  1.00  0.00     0.074 A 
HETATM   25  C16 UNL     1      25.631   2.346  53.576  1.00  0.00     0.056 A 
HETATM   26 CL1  UNL     1      27.657   0.784  54.363  1.00  0.00    -0.081 Cl
ENDBRANCH  17  19
ENDBRANCH   1  17
TORSDOF 2
ENDMDL
MODEL 4
REMARK VINA RESULT:      -8.4      3.346      6.198
REMARK  2 active torsions:
REMARK  status: ('A' for Active; 'I' for Inactive)
REMARK    1  A    between atoms: C4_5  and  N1_6 
REMARK    2  A    between atoms: N1_6  and  C5_7 
ROOT
HETATM    1  C5  UNL     1      24.629   2.245  51.794  1.00  0.00     0.134 C 
HETATM    2  N2  UNL     1      24.209   3.418  51.338  1.00  0.00    -0.227 NA
HETATM    3  C6  UNL     1      23.027   3.941  51.950  1.00  0.00     0.231 C 
HETATM    4  N3  UNL     1      22.395   3.060  51.413  1.00  0.00    -0.257 NA
HETATM    5  C7  UNL     1      21.091   2.526  51.267  1.00  0.00     0.325 C 
HETATM    6  O1  UNL     1      20.869   1.486  52.141  1.00  0.00    -0.330 OA
HETATM    7  C8  UNL     1      19.930   0.627  52.427  1.00  0.00     0.079 A 
HETATM    8  C9  UNL     1      18.601   0.355  52.296  1.00  0.00     0.037 A 
HETATM    9  C10 UNL     1      18.061  -0.788  52.821  1.00  0.00     0.003 A 
HETATM   10  C11 UNL     1      18.899  -1.677  53.501  1.00  0.00     0.001 A 
HETATM   11  C12 UNL     1      20.234  -1.380  53.620  1.00  0.00     0.012 A 
HETATM   12  C13 UNL     1      20.822  -0.233  53.102  1.00  0.00     0.003 A 
HETATM   13  C14 UNL     1      22.292  -0.159  53.391  1.00  0.00     0.311 C 
HETATM   14  N4  UNL     1      22.870   0.633  52.327  1.00  0.00     0.094 N 
HETATM   15  C15 UNL     1      23.927   1.452  52.858  1.00  0.00     0.347 C 
HETATM   16  H13 UNL     1      23.255   0.040  51.551  1.00  0.00     0.316 HD
ENDROOT
BRANCH   1  17
HETATM   17  N1  UNL     1      25.806   1.756  51.154  1.00  0.00    -0.343 N 
HETATM   18  H3  UNL     1      25.876   1.970  50.106  1.00  0.00     0.167 HD
BRANCH  17  19
HETATM   19  C4  UNL     1      26.717   1.042  52.025  1.00  0.00     0.035 A 
HETATM   20  C3  UNL     1      26.696  -0.310  52.110  1.00  0.00     0.032 A 
HETATM   21  C2  UNL     1      27.607  -0.938  52.969  1.00  0.00     0.046 A 
HETATM   22  C1  UNL     1      28.489  -0.135  53.689  1.00  0.00     0.138 A 
HETATM   23  F1  UNL     1      29.403  -0.695  54.540  1.00  0.00    -0.204 F 
HETATM   24  C17 UNL     1      28.485   1.251  53.580  1.00  0.00     0.074 A 
HETATM   25  C16 UNL     1      27.595   1.873  52.741  1.00  0.00     0.056 A 
HETATM   26 CL1  UNL     1      29.580   2.305  54.484  1.00  0.00    -0.081 Cl
ENDBRANCH  17  19
ENDBRANCH   1  17
TORSDOF 2
ENDMDL
MODEL 5
REMARK VINA RESULT:      -8.1      4.821      7.883
REMARK  2 active torsions:
REMARK  status: ('A' for Active; 'I' for Inactive)
REMARK    1  A    between atoms: C4_5  and  N1_6 
REMARK    2  A    between atoms: N1_6  and  C5_7 
ROOT
HETATM    1  C5  UNL     1      23.347   1.513  52.590  1.00  0.00     0.134 C 
HETATM    2  N2  UNL     1      23.896   0.770  53.542  1.00  0.00    -0.227 NA
HETATM    3  C6  UNL     1      23.491  -0.601  53.577  1.00  0.00     0.231 C 
HETATM    4  N3  UNL     1      22.396  -0.238  53.943  1.00  0.00    -0.257 NA
HETATM    5  C7  UNL     1      21.109  -0.704  54.308  1.00  0.00     0.325 C 
HETATM    6  O1  UNL     1      20.234  -0.657  53.247  1.00  0.00    -0.330 OA
HETATM    7  C8  UNL     1      18.977  -0.902  52.999  1.00  0.00     0.079 A 
HETATM    8  C9  UNL     1      17.864  -1.544  53.453  1.00  0.00     0.037 A 
HETATM    9  C10 UNL     1      16.682  -1.477  52.764  1.00  0.00     0.003 A 
HETATM   10  C11 UNL     1      16.634  -0.736  51.580  1.00  0.00     0.001 A 
HETATM   11  C12 UNL     1      17.770  -0.098  51.145  1.00  0.00     0.012 A 
HETATM   12  C13 UNL     1      18.987  -0.139  51.811  1.00  0.00     0.003 A 
HETATM   13  C14 UNL     1      20.059   0.636  51.104  1.00  0.00     0.311 C 
HETATM   14  N4  UNL     1      20.990   1.058  52.128  1.00  0.00     0.094 N 
HETATM   15  C15 UNL     1      22.330   1.011  51.607  1.00  0.00     0.347 C 
HETATM   16  H13 UNL     1      20.792   2.030  52.472  1.00  0.00     0.316 HD
ENDROOT
BRANCH   1  17
HETATM   17  N1  UNL     1      23.773   2.874  52.592  1.00  0.00    -0.343 N 
HETATM   18  H3  UNL     1      23.327   3.489  53.349  1.00  0.00     0.167 HD
BRANCH  17  19
HETATM   19  C4  UNL     1      24.735   3.210  51.564  1.00  0.00     0.035 A 
HETATM   20  C3  UNL     1      25.845   2.461  51.365  1.00  0.00     0.032 A 
HETATM   21  C2  UNL     1      26.733   2.840  50.349  1.00  0.00     0.046 A 
HETATM   22  C1  UNL     1      26.422   3.970  49.596  1.00  0.00     0.138 A 
HETATM   23  F1  UNL     1      27.251   4.384  48.588  1.00  0.00    -0.204 F 
HETATM   24  C17 UNL     1      25.274   4.719  49.825  1.00  0.00     0.074 A 
HETATM   25  C16 UNL     1      24.401   4.354  50.818  1.00  0.00     0.056 A 
HETATM   26 CL1  UNL     1      24.850   6.164  48.898  1.00  0.00    -0.081 Cl
ENDBRANCH  17  19
ENDBRANCH   1  17
TORSDOF 2
ENDMDL
MODEL 6
REMARK VINA RESULT:      -8.1      1.545      2.193
REMARK  2 active torsions:
REMARK  status: ('A' for Active; 'I' for Inactive)
REMARK    1  A    between atoms: C4_5  and  N1_6 
REMARK    2  A    between atoms: N1_6  and  C5_7 
ROOT
HETATM    1  C5  UNL     1      24.846   2.742  52.465  1.00  0.00     0.134 C 
HETATM    2  N2  UNL     1      23.611   2.522  52.899  1.00  0.00    -0.227 NA
HETATM    3  C6  UNL     1      22.560   2.843  51.984  1.00  0.00     0.231 C 
HETATM    4  N3  UNL     1      22.827   4.014  52.133  1.00  0.00    -0.257 NA
HETATM    5  C7  UNL     1      22.463   5.322  51.730  1.00  0.00     0.325 C 
HETATM    6  O1  UNL     1      23.256   5.773  50.700  1.00  0.00    -0.330 OA
HETATM    7  C8  UNL     1      23.414   6.851  49.982  1.00  0.00     0.079 A 
HETATM    8  C9  UNL     1      22.827   8.018  49.593  1.00  0.00     0.037 A 
HETATM    9  C10 UNL     1      23.476   8.888  48.757  1.00  0.00     0.003 A 
HETATM   10  C11 UNL     1      24.756   8.558  48.305  1.00  0.00     0.001 A 
HETATM   11  C12 UNL     1      25.325   7.376  48.712  1.00  0.00     0.012 A 
HETATM   12  C13 UNL     1      24.704   6.467  49.557  1.00  0.00     0.003 A 
HETATM   13  C14 UNL     1      25.549   5.257  49.825  1.00  0.00     0.311 C 
HETATM   14  N4  UNL     1      25.144   4.764  51.123  1.00  0.00     0.094 N 
HETATM   15  C15 UNL     1      25.178   3.326  51.122  1.00  0.00     0.347 C 
HETATM   16  H13 UNL     1      25.760   5.119  51.896  1.00  0.00     0.316 HD
ENDROOT
BRANCH   1  17
HETATM   17  N1  UNL     1      25.864   2.414  53.408  1.00  0.00    -0.343 N 
HETATM   18  H3  UNL     1      26.093   3.185  54.117  1.00  0.00     0.167 HD
BRANCH  17  19
HETATM   19  C4  UNL     1      26.433   1.092  53.251  1.00  0.00     0.035 A 
HETATM   20  C3  UNL     1      25.663   0.028  52.918  1.00  0.00     0.032 A 
HETATM   21  C2  UNL     1      26.279  -1.222  52.778  1.00  0.00     0.046 A 
HETATM   22  C1  UNL     1      27.653  -1.303  52.988  1.00  0.00     0.138 A 
HETATM   23  F1  UNL     1      28.308  -2.499  52.861  1.00  0.00    -0.204 F 
HETATM   24  C17 UNL     1      28.416  -0.192  53.330  1.00  0.00     0.074 A 
HETATM   25  C16 UNL     1      27.820   1.035  53.469  1.00  0.00     0.056 A 
HETATM   26 CL1  UNL     1      30.160  -0.256  53.615  1.00  0.00    -0.081 Cl
ENDBRANCH  17  19
ENDBRANCH   1  17
TORSDOF 2
ENDMDL
MODEL 7
REMARK VINA RESULT:      -8.0      5.684      8.309
REMARK  2 active torsions:
REMARK  status: ('A' for Active; 'I' for Inactive)
REMARK    1  A    between atoms: C4_5  and  N1_6 
REMARK    2  A    between atoms: N1_6  and  C5_7 
ROOT
HETATM    1  C5  UNL     1      30.038   8.228  47.949  1.00  0.00     0.134 C 
HETATM    2  N2  UNL     1      30.301   8.347  49.244  1.00  0.00    -0.227 NA
HETATM    3  C6  UNL     1      31.684   8.313  49.607  1.00  0.00     0.231 C 
HETATM    4  N3  UNL     1      31.704   7.141  49.306  1.00  0.00    -0.257 NA
HETATM    5  C7  UNL     1      32.544   6.003  49.230  1.00  0.00     0.325 C 
HETATM    6  O1  UNL     1      33.055   5.836  47.963  1.00  0.00    -0.330 OA
HETATM    7  C8  UNL     1      33.810   4.994  47.312  1.00  0.00     0.079 A 
HETATM    8  C9  UNL     1      34.725   3.993  47.448  1.00  0.00     0.037 A 
HETATM    9  C10 UNL     1      35.259   3.373  46.350  1.00  0.00     0.003 A 
HETATM   10  C11 UNL     1      34.851   3.787  45.079  1.00  0.00     0.001 A 
HETATM   11  C12 UNL     1      33.929   4.798  44.969  1.00  0.00     0.012 A 
HETATM   12  C13 UNL     1      33.362   5.452  46.054  1.00  0.00     0.003 A 
HETATM   13  C14 UNL     1      32.396   6.523  45.643  1.00  0.00     0.311 C 
HETATM   14  N4  UNL     1      31.449   6.648  46.729  1.00  0.00     0.094 N 
HETATM   15  C15 UNL     1      31.082   8.029  46.889  1.00  0.00     0.347 C 
HETATM   16  H13 UNL     1      30.580   6.080  46.569  1.00  0.00     0.316 HD
ENDROOT
BRANCH   1  17
HETATM   17  N1  UNL     1      28.648   8.261  47.630  1.00  0.00    -0.343 N 
HETATM   18  H3  UNL     1      28.350   9.056  46.976  1.00  0.00     0.167 HD
BRANCH  17  19
HETATM   19  C4  UNL     1      27.858   7.217  48.251  1.00  0.00     0.035 A 
HETATM   20  C3  UNL     1      28.175   5.909  48.099  1.00  0.00     0.032 A 
HETATM   21  C2  UNL     1      27.371   4.951  48.730  1.00  0.00     0.046 A 
HETATM   22  C1  UNL     1      26.287   5.398  49.483  1.00  0.00     0.138 A 
HETATM   23  F1  UNL     1      25.470   4.507  50.125  1.00  0.00    -0.204 F 
HETATM   24  C17 UNL     1      25.988   6.749  49.618  1.00  0.00     0.074 A 
HETATM   25  C16 UNL     1      26.771   7.692  49.003  1.00  0.00     0.056 A 
HETATM   26 CL1  UNL     1      24.617   7.356  50.556  1.00  0.00    -0.081 Cl
ENDBRANCH  17  19
ENDBRANCH   1  17
TORSDOF 2
ENDMDL
MODEL 8
REMARK VINA RESULT:      -7.9      3.738      7.171
REMARK  2 active torsions:
REMARK  status: ('A' for Active; 'I' for Inactive)
REMARK    1  A    between atoms: C4_5  and  N1_6 
REMARK    2  A    between atoms: N1_6  and  C5_7 
ROOT
HETATM    1  C5  UNL     1      23.582   4.349  50.364  1.00  0.00     0.134 C 
HETATM    2  N2  UNL     1      22.594   5.206  50.589  1.00  0.00    -0.227 NA
HETATM    3  C6  UNL     1      22.067   5.217  51.919  1.00  0.00     0.231 C 
HETATM    4  N3  UNL     1      21.598   4.121  51.711  1.00  0.00    -0.257 NA
HETATM    5  C7  UNL     1      20.843   3.079  52.302  1.00  0.00     0.325 C 
HETATM    6  O1  UNL     1      21.655   2.098  52.823  1.00  0.00    -0.330 OA
HETATM    7  C8  UNL     1      21.541   0.942  53.417  1.00  0.00     0.079 A 
HETATM    8  C9  UNL     1      20.688   0.127  54.100  1.00  0.00     0.037 A 
HETATM    9  C10 UNL     1      21.094  -1.104  54.544  1.00  0.00     0.003 A 
HETATM   10  C11 UNL     1      22.405  -1.513  54.286  1.00  0.00     0.001 A 
HETATM   11  C12 UNL     1      23.245  -0.674  53.597  1.00  0.00     0.012 A 
HETATM   12  C13 UNL     1      22.875   0.580  53.128  1.00  0.00     0.003 A 
HETATM   13  C14 UNL     1      23.994   1.285  52.421  1.00  0.00     0.311 C 
HETATM   14  N4  UNL     1      23.368   2.181  51.474  1.00  0.00     0.094 N 
HETATM   15  C15 UNL     1      24.128   3.400  51.391  1.00  0.00     0.347 C 
HETATM   16  H13 UNL     1      23.294   1.760  50.515  1.00  0.00     0.316 HD
ENDROOT
BRANCH   1  17
HETATM   17  N1  UNL     1      24.076   4.365  49.026  1.00  0.00    -0.343 N 
HETATM   18  H3  UNL     1      23.452   3.876  48.305  1.00  0.00     0.167 HD
BRANCH  17  19
HETATM   19  C4  UNL     1      25.349   5.034  48.858  1.00  0.00     0.035 A 
HETATM   20  C3  UNL     1      26.520   4.372  49.015  1.00  0.00     0.032 A 
HETATM   21  C2  UNL     1      27.715   5.079  48.833  1.00  0.00     0.046 A 
HETATM   22  C1  UNL     1      27.634   6.429  48.499  1.00  0.00     0.138 A 
HETATM   23  F1  UNL     1      28.770   7.169  48.306  1.00  0.00    -0.204 F 
HETATM   24  C17 UNL     1      26.416   7.081  48.346  1.00  0.00     0.074 A 
HETATM   25  C16 UNL     1      25.241   6.395  48.522  1.00  0.00     0.056 A 
HETATM   26 CL1  UNL     1      26.270   8.794  47.932  1.00  0.00    -0.081 Cl
ENDBRANCH  17  19
ENDBRANCH   1  17
TORSDOF 2
ENDMDL
MODEL 9
REMARK VINA RESULT:      -7.9      5.193      7.349
REMARK  2 active torsions:
REMARK  status: ('A' for Active; 'I' for Inactive)
REMARK    1  A    between atoms: C4_5  and  N1_6 
REMARK    2  A    between atoms: N1_6  and  C5_7 
ROOT
HETATM    1  C5  UNL     1      27.854   8.112  49.286  1.00  0.00     0.134 C 
HETATM    2  N2  UNL     1      28.285   9.351  49.488  1.00  0.00    -0.227 NA
HETATM    3  C6  UNL     1      29.387   9.770  48.678  1.00  0.00     0.231 C 
HETATM    4  N3  UNL     1      30.092   9.001  49.292  1.00  0.00    -0.257 NA
HETATM    5  C7  UNL     1      31.418   8.513  49.395  1.00  0.00     0.325 C 
HETATM    6  O1  UNL     1      31.580   7.339  48.696  1.00  0.00    -0.330 OA
HETATM    7  C8  UNL     1      32.509   6.451  48.470  1.00  0.00     0.079 A 
HETATM    8  C9  UNL     1      33.851   6.218  48.511  1.00  0.00     0.037 A 
HETATM    9  C10 UNL     1      34.367   5.005  48.139  1.00  0.00     0.003 A 
HETATM   10  C11 UNL     1      33.491   4.004  47.712  1.00  0.00     0.001 A 
HETATM   11  C12 UNL     1      32.143   4.264  47.679  1.00  0.00     0.012 A 
HETATM   12  C13 UNL     1      31.578   5.478  48.047  1.00  0.00     0.003 A 
HETATM   13  C14 UNL     1      30.085   5.488  47.901  1.00  0.00     0.311 C 
HETATM   14  N4  UNL     1      29.594   6.448  48.864  1.00  0.00     0.094 N 
HETATM   15  C15 UNL     1      28.469   7.152  48.310  1.00  0.00     0.347 C 
HETATM   16  H13 UNL     1      29.303   5.996  49.766  1.00  0.00     0.316 HD
ENDROOT
BRANCH   1  17
HETATM   17  N1  UNL     1      26.758   7.732  50.117  1.00  0.00    -0.343 N 
HETATM   18  H3  UNL     1      26.858   7.998  51.150  1.00  0.00     0.167 HD
BRANCH  17  19
HETATM   19  C4  UNL     1      25.688   7.040  49.429  1.00  0.00     0.035 A 
HETATM   20  C3  UNL     1      24.883   7.682  48.550  1.00  0.00     0.032 A 
HETATM   21  C2  UNL     1      23.870   6.950  47.916  1.00  0.00     0.046 A 
HETATM   22  C1  UNL     1      23.747   5.598  48.226  1.00  0.00     0.138 A 
HETATM   23  F1  UNL     1      22.778   4.833  47.634  1.00  0.00    -0.204 F 
HETATM   24  C17 UNL     1      24.590   4.967  49.135  1.00  0.00     0.074 A 
HETATM   25  C16 UNL     1      25.584   5.677  49.758  1.00  0.00     0.056 A 
HETATM   26 CL1  UNL     1      24.460   3.256  49.562  1.00  0.00    -0.081 Cl
ENDBRANCH  17  19
ENDBRANCH   1  17
TORSDOF 2
ENDMDL
