MODEL 1
REMARK VINA RESULT:      -9.0      0.000      0.000
REMARK  9 active torsions:
REMARK  status: ('A' for Active; 'I' for Inactive)
REMARK    1  A    between atoms: O1_2  and  C2_3 
REMARK    2  A    between atoms: C6_7  and  C7_8 
REMARK    3  A    between atoms: C16_19  and  C17_20 
REMARK    4  A    between atoms: C17_20  and  N2_21 
REMARK    5  A    between atoms: N2_21  and  C18_22 
REMARK    6  A    between atoms: C19_23  and  C20_24 
REMARK    7  A    between atoms: C20_24  and  C21_25 
REMARK    8  A    between atoms: C21_25  and  C22_26 
REMARK    9  A    between atoms: C22_26  and  O4_28 
ROOT
HETATM    1  C7  UNL     1      26.053   4.365  49.466  1.00  0.00    -0.024 A 
HETATM    2  C8  UNL     1      26.648   3.384  50.234  1.00  0.00     0.013 A 
HETATM    3  C9  UNL     1      25.861   2.444  50.901  1.00  0.00     0.015 A 
HETATM    4  C10 UNL     1      24.477   2.525  50.771  1.00  0.00    -0.003 A 
HETATM    5  C11 UNL     1      23.850   3.509  50.000  1.00  0.00     0.046 A 
HETATM    6  C12 UNL     1      24.677   4.412  49.363  1.00  0.00     0.042 A 
HETATM    7  N1  UNL     1      22.419   3.546  49.895  1.00  0.00    -0.326 N 
HETATM    8  C13 UNL     1      21.581   2.597  50.563  1.00  0.00     0.226 C 
HETATM    9  O2  UNL     1      20.417   3.055  50.768  1.00  0.00    -0.273 OA
HETATM   10  C14 UNL     1      22.294   1.321  50.840  1.00  0.00     0.142 C 
HETATM   11  C15 UNL     1      23.617   1.558  51.459  1.00  0.00    -0.039 C 
HETATM   12  C16 UNL     1      24.033   0.961  52.562  1.00  0.00     0.001 C 
HETATM   13  H10 UNL     1      22.092   4.340  49.282  1.00  0.00     0.169 HD
ENDROOT
BRANCH  12  14
HETATM   14  C17 UNL     1      23.418  -0.036  53.464  1.00  0.00     0.147 C 
BRANCH  14  15
HETATM   15  N2  UNL     1      24.493  -0.736  54.146  1.00  0.00    -0.396 N 
HETATM   16  H16 UNL     1      24.327  -1.454  54.890  1.00  0.00     0.159 HD
BRANCH  15  17
HETATM   17  C18 UNL     1      25.865  -0.567  53.927  1.00  0.00     0.079 C 
HETATM   18  C19 UNL     1      26.845  -0.817  53.086  1.00  0.00    -0.009 C 
BRANCH  18  19
HETATM   19  C20 UNL     1      28.251  -0.390  53.328  1.00  0.00     0.039 C 
BRANCH  19  20
HETATM   20  C21 UNL     1      28.272   0.557  54.516  1.00  0.00     0.113 C 
BRANCH  20  21
HETATM   21  C22 UNL     1      29.032   1.793  54.186  1.00  0.00     0.139 C 
HETATM   22  O3  UNL     1      29.715   2.370  55.068  1.00  0.00    -0.650 OA
BRANCH  21  23
HETATM   23  O4  UNL     1      28.931   2.243  52.880  1.00  0.00    -0.776 OA
HETATM   24  H23 UNL     1      28.010   2.376  52.498  1.00  0.00     0.167 HD
ENDBRANCH  21  23
ENDBRANCH  20  21
ENDBRANCH  19  20
ENDBRANCH  18  19
ENDBRANCH  15  17
ENDBRANCH  14  15
ENDBRANCH  12  14
BRANCH   1  25
HETATM   25  C6  UNL     1      26.924   5.321  48.792  1.00  0.00    -0.023 A 
HETATM   26  C5  UNL     1      26.309   6.509  48.409  1.00  0.00     0.012 A 
HETATM   27  C4  UNL     1      27.060   7.483  47.761  1.00  0.00     0.004 A 
HETATM   28  C3  UNL     1      28.388   7.257  47.509  1.00  0.00     0.037 A 
HETATM   29  C2  UNL     1      29.014   6.088  47.879  1.00  0.00     0.069 A 
HETATM   30  C23 UNL     1      28.268   5.103  48.532  1.00  0.00     0.049 A 
BRANCH  29  31
HETATM   31  O1  UNL     1      30.341   5.728  47.690  1.00  0.00    -0.356 OA
HETATM   32  C1  UNL     1      31.331   5.896  48.682  1.00  0.00     0.210 C 
ENDBRANCH  29  31
ENDBRANCH   1  25
TORSDOF 9
ENDMDL
MODEL 2
REMARK VINA RESULT:      -8.8      1.130      1.861
REMARK  9 active torsions:
REMARK  status: ('A' for Active; 'I' for Inactive)
REMARK    1  A    between atoms: O1_2  and  C2_3 
REMARK    2  A    between atoms: C6_7  and  C7_8 
REMARK    3  A    between atoms: C16_19  and  C17_20 
REMARK    4  A    between atoms: C17_20  and  N2_21 
REMARK    5  A    between atoms: N2_21  and  C18_22 
REMARK    6  A    between atoms: C19_23  and  C20_24 
REMARK    7  A    between atoms: C20_24  and  C21_25 
REMARK    8  A    between atoms: C21_25  and  C22_26 
REMARK    9  A    between atoms: C22_26  and  O4_28 
ROOT
HETATM    1  C7  UNL     1      25.889   4.567  49.321  1.00  0.00    -0.024 A 
HETATM    2  C8  UNL     1      26.448   3.632  50.169  1.00  0.00     0.013 A 
HETATM    3  C9  UNL     1      25.637   2.689  50.801  1.00  0.00     0.015 A 
HETATM    4  C10 UNL     1      24.267   2.719  50.556  1.00  0.00    -0.003 A 
HETATM    5  C11 UNL     1      23.676   3.656  49.702  1.00  0.00     0.046 A 
HETATM    6  C12 UNL     1      24.526   4.565  49.104  1.00  0.00     0.042 A 
HETATM    7  N1  UNL     1      22.259   3.642  49.479  1.00  0.00    -0.326 N 
HETATM    8  C13 UNL     1      21.397   2.688  50.108  1.00  0.00     0.226 C 
HETATM    9  O2  UNL     1      20.207   3.113  50.201  1.00  0.00    -0.273 OA
HETATM   10  C14 UNL     1      22.124   1.446  50.488  1.00  0.00     0.142 C 
HETATM   11  C15 UNL     1      23.383   1.747  51.204  1.00  0.00    -0.039 C 
HETATM   12  C16 UNL     1      23.723   1.200  52.358  1.00  0.00     0.001 C 
HETATM   13  H10 UNL     1      21.959   4.405  48.814  1.00  0.00     0.169 HD
ENDROOT
BRANCH  12  14
HETATM   14  C17 UNL     1      23.066   0.213  53.240  1.00  0.00     0.147 C 
BRANCH  14  15
HETATM   15  N2  UNL     1      24.099  -0.663  53.768  1.00  0.00    -0.396 N 
HETATM   16  H16 UNL     1      23.891  -1.491  54.374  1.00  0.00     0.159 HD
BRANCH  15  17
HETATM   17  C18 UNL     1      25.477  -0.542  53.559  1.00  0.00     0.079 C 
HETATM   18  C19 UNL     1      26.549  -1.183  53.147  1.00  0.00    -0.009 C 
BRANCH  18  19
HETATM   19  C20 UNL     1      27.903  -0.562  53.111  1.00  0.00     0.039 C 
BRANCH  19  20
HETATM   20  C21 UNL     1      27.750   0.913  52.780  1.00  0.00     0.113 C 
BRANCH  20  21
HETATM   21  C22 UNL     1      28.613   1.740  53.666  1.00  0.00     0.139 C 
HETATM   22  O3  UNL     1      28.869   1.359  54.835  1.00  0.00    -0.650 OA
BRANCH  21  23
HETATM   23  O4  UNL     1      29.093   2.920  53.123  1.00  0.00    -0.776 OA
HETATM   24  H23 UNL     1      29.840   3.391  53.606  1.00  0.00     0.167 HD
ENDBRANCH  21  23
ENDBRANCH  20  21
ENDBRANCH  19  20
ENDBRANCH  18  19
ENDBRANCH  15  17
ENDBRANCH  14  15
ENDBRANCH  12  14
BRANCH   1  25
HETATM   25  C6  UNL     1      26.783   5.529  48.688  1.00  0.00    -0.023 A 
HETATM   26  C5  UNL     1      28.103   5.107  48.553  1.00  0.00     0.012 A 
HETATM   27  C4  UNL     1      29.029   5.955  47.959  1.00  0.00     0.004 A 
HETATM   28  C3  UNL     1      28.631   7.189  47.518  1.00  0.00     0.037 A 
HETATM   29  C2  UNL     1      27.331   7.626  47.642  1.00  0.00     0.069 A 
HETATM   30  C23 UNL     1      26.391   6.780  48.237  1.00  0.00     0.049 A 
BRANCH  29  31
HETATM   31  O1  UNL     1      26.791   8.841  47.243  1.00  0.00    -0.356 OA
HETATM   32  C1  UNL     1      25.664   9.421  47.864  1.00  0.00     0.210 C 
ENDBRANCH  29  31
ENDBRANCH   1  25
TORSDOF 9
ENDMDL
MODEL 3
REMARK VINA RESULT:      -8.7      2.436      5.483
REMARK  9 active torsions:
REMARK  status: ('A' for Active; 'I' for Inactive)
REMARK    1  A    between atoms: O1_2  and  C2_3 
REMARK    2  A    between atoms: C6_7  and  C7_8 
REMARK    3  A    between atoms: C16_19  and  C17_20 
REMARK    4  A    between atoms: C17_20  and  N2_21 
REMARK    5  A    between atoms: N2_21  and  C18_22 
REMARK    6  A    between atoms: C19_23  and  C20_24 
REMARK    7  A    between atoms: C20_24  and  C21_25 
REMARK    8  A    between atoms: C21_25  and  C22_26 
REMARK    9  A    between atoms: C22_26  and  O4_28 
ROOT
HETATM    1  C7  UNL     1      25.317   3.006  50.978  1.00  0.00    -0.024 A 
HETATM    2  C8  UNL     1      24.081   3.048  51.591  1.00  0.00     0.013 A 
HETATM    3  C9  UNL     1      23.698   2.030  52.465  1.00  0.00     0.015 A 
HETATM    4  C10 UNL     1      24.588   0.985  52.696  1.00  0.00    -0.003 A 
HETATM    5  C11 UNL     1      25.845   0.917  52.088  1.00  0.00     0.046 A 
HETATM    6  C12 UNL     1      26.171   1.952  51.233  1.00  0.00     0.042 A 
HETATM    7  N1  UNL     1      26.728  -0.180  52.364  1.00  0.00    -0.326 N 
HETATM    8  C13 UNL     1      26.370  -1.240  53.257  1.00  0.00     0.226 C 
HETATM    9  O2  UNL     1      27.002  -2.308  53.002  1.00  0.00    -0.273 OA
HETATM   10  C14 UNL     1      25.349  -0.811  54.251  1.00  0.00     0.142 C 
HETATM   11  C15 UNL     1      24.220  -0.105  53.605  1.00  0.00    -0.039 C 
HETATM   12  C16 UNL     1      22.950  -0.409  53.804  1.00  0.00     0.001 C 
HETATM   13  H10 UNL     1      27.637  -0.094  51.835  1.00  0.00     0.169 HD
ENDROOT
BRANCH  12  14
HETATM   14  C17 UNL     1      22.273  -1.425  54.639  1.00  0.00     0.147 C 
BRANCH  14  15
HETATM   15  N2  UNL     1      20.841  -1.207  54.523  1.00  0.00    -0.396 N 
HETATM   16  H16 UNL     1      20.148  -1.587  55.210  1.00  0.00     0.159 HD
BRANCH  15  17
HETATM   17  C18 UNL     1      20.189  -0.485  53.517  1.00  0.00     0.079 C 
HETATM   18  C19 UNL     1      19.105  -0.443  52.773  1.00  0.00    -0.009 C 
BRANCH  18  19
HETATM   19  C20 UNL     1      18.857   0.620  51.760  1.00  0.00     0.039 C 
BRANCH  19  20
HETATM   20  C21 UNL     1      20.074   1.529  51.704  1.00  0.00     0.113 C 
BRANCH  20  21
HETATM   21  C22 UNL     1      19.716   2.907  52.134  1.00  0.00     0.139 C 
HETATM   22  O3  UNL     1      20.588   3.661  52.635  1.00  0.00    -0.650 OA
BRANCH  21  23
HETATM   23  O4  UNL     1      18.396   3.283  51.948  1.00  0.00    -0.776 OA
HETATM   24  H23 UNL     1      17.869   2.812  51.231  1.00  0.00     0.167 HD
ENDBRANCH  21  23
ENDBRANCH  20  21
ENDBRANCH  19  20
ENDBRANCH  18  19
ENDBRANCH  15  17
ENDBRANCH  14  15
ENDBRANCH  12  14
BRANCH   1  25
HETATM   25  C6  UNL     1      25.665   4.096  50.074  1.00  0.00    -0.023 A 
HETATM   26  C5  UNL     1      24.635   4.996  49.815  1.00  0.00     0.012 A 
HETATM   27  C4  UNL     1      24.872   6.070  48.965  1.00  0.00     0.004 A 
HETATM   28  C3  UNL     1      26.110   6.225  48.399  1.00  0.00     0.037 A 
HETATM   29  C2  UNL     1      27.141   5.345  48.642  1.00  0.00     0.069 A 
HETATM   30  C23 UNL     1      26.913   4.262  49.496  1.00  0.00     0.049 A 
BRANCH  29  31
HETATM   31  O1  UNL     1      28.435   5.379  48.141  1.00  0.00    -0.356 OA
HETATM   32  C1  UNL     1      29.120   6.582  47.865  1.00  0.00     0.210 C 
ENDBRANCH  29  31
ENDBRANCH   1  25
TORSDOF 9
ENDMDL
MODEL 4
REMARK VINA RESULT:      -8.2      2.971      8.300
REMARK  9 active torsions:
REMARK  status: ('A' for Active; 'I' for Inactive)
REMARK    1  A    between atoms: O1_2  and  C2_3 
REMARK    2  A    between atoms: C6_7  and  C7_8 
REMARK    3  A    between atoms: C16_19  and  C17_20 
REMARK    4  A    between atoms: C17_20  and  N2_21 
REMARK    5  A    between atoms: N2_21  and  C18_22 
REMARK    6  A    between atoms: C19_23  and  C20_24 
REMARK    7  A    between atoms: C20_24  and  C21_25 
REMARK    8  A    between atoms: C21_25  and  C22_26 
REMARK    9  A    between atoms: C22_26  and  O4_28 
ROOT
HETATM    1  C7  UNL     1      24.012   2.563  51.936  1.00  0.00    -0.024 A 
HETATM    2  C8  UNL     1      23.364   3.762  52.160  1.00  0.00     0.013 A 
HETATM    3  C9  UNL     1      23.799   4.922  51.520  1.00  0.00     0.015 A 
HETATM    4  C10 UNL     1      24.891   4.837  50.661  1.00  0.00    -0.003 A 
HETATM    5  C11 UNL     1      25.566   3.636  50.417  1.00  0.00     0.046 A 
HETATM    6  C12 UNL     1      25.091   2.520  51.078  1.00  0.00     0.042 A 
HETATM    7  N1  UNL     1      26.684   3.601  49.519  1.00  0.00    -0.326 N 
HETATM    8  C13 UNL     1      27.156   4.770  48.843  1.00  0.00     0.226 C 
HETATM    9  O2  UNL     1      28.377   4.670  48.519  1.00  0.00    -0.273 OA
HETATM   10  C14 UNL     1      26.090   5.798  48.696  1.00  0.00     0.142 C 
HETATM   11  C15 UNL     1      25.380   6.035  49.973  1.00  0.00    -0.039 C 
HETATM   12  C16 UNL     1      25.183   7.233  50.495  1.00  0.00     0.001 C 
HETATM   13  H10 UNL     1      27.089   2.630  49.436  1.00  0.00     0.169 HD
ENDROOT
BRANCH  12  14
HETATM   14  C17 UNL     1      25.542   8.598  50.056  1.00  0.00     0.147 C 
BRANCH  14  15
HETATM   15  N2  UNL     1      26.876   8.884  50.556  1.00  0.00    -0.396 N 
HETATM   16  H16 UNL     1      27.075   9.107  51.560  1.00  0.00     0.159 HD
BRANCH  15  17
HETATM   17  C18 UNL     1      28.058   8.908  49.806  1.00  0.00     0.079 C 
HETATM   18  C19 UNL     1      28.816   9.665  49.043  1.00  0.00    -0.009 C 
BRANCH  18  19
HETATM   19  C20 UNL     1      30.086   9.185  48.430  1.00  0.00     0.039 C 
BRANCH  19  20
HETATM   20  C21 UNL     1      30.009   7.675  48.278  1.00  0.00     0.113 C 
BRANCH  20  21
HETATM   21  C22 UNL     1      31.085   7.015  49.065  1.00  0.00     0.139 C 
HETATM   22  O3  UNL     1      32.225   7.537  49.143  1.00  0.00    -0.650 OA
BRANCH  21  23
HETATM   23  O4  UNL     1      30.746   5.823  49.683  1.00  0.00    -0.776 OA
HETATM   24  H23 UNL     1      31.173   5.614  50.570  1.00  0.00     0.167 HD
ENDBRANCH  21  23
ENDBRANCH  20  21
ENDBRANCH  19  20
ENDBRANCH  18  19
ENDBRANCH  15  17
ENDBRANCH  14  15
ENDBRANCH  12  14
BRANCH   1  25
HETATM   25  C6  UNL     1      23.514   1.382  52.632  1.00  0.00    -0.023 A 
HETATM   26  C5  UNL     1      24.493   0.601  53.240  1.00  0.00     0.012 A 
HETATM   27  C4  UNL     1      24.115  -0.545  53.929  1.00  0.00     0.004 A 
HETATM   28  C3  UNL     1      22.789  -0.886  53.998  1.00  0.00     0.037 A 
HETATM   29  C2  UNL     1      21.807  -0.127  53.403  1.00  0.00     0.069 A 
HETATM   30  C23 UNL     1      22.177   1.027  52.708  1.00  0.00     0.049 A 
BRANCH  29  31
HETATM   31  O1  UNL     1      20.437  -0.351  53.393  1.00  0.00    -0.356 OA
HETATM   32  C1  UNL     1      19.566   0.262  52.467  1.00  0.00     0.210 C 
ENDBRANCH  29  31
ENDBRANCH   1  25
TORSDOF 9
ENDMDL
MODEL 5
REMARK VINA RESULT:      -8.2      3.468      6.882
REMARK  9 active torsions:
REMARK  status: ('A' for Active; 'I' for Inactive)
REMARK    1  A    between atoms: O1_2  and  C2_3 
REMARK    2  A    between atoms: C6_7  and  C7_8 
REMARK    3  A    between atoms: C16_19  and  C17_20 
REMARK    4  A    between atoms: C17_20  and  N2_21 
REMARK    5  A    between atoms: N2_21  and  C18_22 
REMARK    6  A    between atoms: C19_23  and  C20_24 
REMARK    7  A    between atoms: C20_24  and  C21_25 
REMARK    8  A    between atoms: C21_25  and  C22_26 
REMARK    9  A    between atoms: C22_26  and  O4_28 
ROOT
HETATM    1  C7  UNL     1      25.386   0.675  53.122  1.00  0.00    -0.024 A 
HETATM    2  C8  UNL     1      24.822   1.430  52.113  1.00  0.00     0.013 A 
HETATM    3  C9  UNL     1      23.451   1.354  51.866  1.00  0.00     0.015 A 
HETATM    4  C10 UNL     1      22.680   0.506  52.655  1.00  0.00    -0.003 A 
HETATM    5  C11 UNL     1      23.226  -0.270  53.683  1.00  0.00     0.046 A 
HETATM    6  C12 UNL     1      24.587  -0.155  53.883  1.00  0.00     0.042 A 
HETATM    7  N1  UNL     1      22.386  -1.125  54.472  1.00  0.00    -0.326 N 
HETATM    8  C13 UNL     1      20.976  -1.226  54.249  1.00  0.00     0.226 C 
HETATM    9  O2  UNL     1      20.509  -2.331  54.658  1.00  0.00    -0.273 OA
HETATM   10  C14 UNL     1      20.427  -0.007  53.594  1.00  0.00     0.142 C 
HETATM   11  C15 UNL     1      21.237   0.397  52.424  1.00  0.00    -0.039 C 
HETATM   12  C16 UNL     1      20.731   0.647  51.229  1.00  0.00     0.001 C 
HETATM   13  H10 UNL     1      22.937  -1.646  55.206  1.00  0.00     0.169 HD
ENDROOT
BRANCH  12  14
HETATM   14  C17 UNL     1      19.354   0.627  50.690  1.00  0.00     0.147 C 
BRANCH  14  15
HETATM   15  N2  UNL     1      19.357   1.381  49.448  1.00  0.00    -0.396 N 
HETATM   16  H16 UNL     1      18.480   1.660  48.947  1.00  0.00     0.159 HD
BRANCH  15  17
HETATM   17  C18 UNL     1      20.484   1.833  48.752  1.00  0.00     0.079 C 
HETATM   18  C19 UNL     1      20.879   2.541  47.716  1.00  0.00    -0.009 C 
BRANCH  18  19
HETATM   19  C20 UNL     1      22.313   2.742  47.371  1.00  0.00     0.039 C 
BRANCH  19  20
HETATM   20  C21 UNL     1      23.108   2.872  48.660  1.00  0.00     0.113 C 
BRANCH  20  21
HETATM   21  C22 UNL     1      23.327   4.304  48.997  1.00  0.00     0.139 C 
HETATM   22  O3  UNL     1      23.368   5.170  48.089  1.00  0.00    -0.650 OA
BRANCH  21  23
HETATM   23  O4  UNL     1      23.478   4.599  50.342  1.00  0.00    -0.776 OA
HETATM   24  H23 UNL     1      23.902   3.902  50.932  1.00  0.00     0.167 HD
ENDBRANCH  21  23
ENDBRANCH  20  21
ENDBRANCH  19  20
ENDBRANCH  18  19
ENDBRANCH  15  17
ENDBRANCH  14  15
ENDBRANCH  12  14
BRANCH   1  25
HETATM   25  C6  UNL     1      26.823   0.793  53.336  1.00  0.00    -0.023 A 
HETATM   26  C5  UNL     1      27.297   2.097  53.450  1.00  0.00     0.012 A 
HETATM   27  C4  UNL     1      28.654   2.310  53.657  1.00  0.00     0.004 A 
HETATM   28  C3  UNL     1      29.502   1.237  53.744  1.00  0.00     0.037 A 
HETATM   29  C2  UNL     1      29.054  -0.060  53.635  1.00  0.00     0.069 A 
HETATM   30  C23 UNL     1      27.690  -0.285  53.427  1.00  0.00     0.049 A 
BRANCH  29  31
HETATM   31  O1  UNL     1      29.793  -1.232  53.704  1.00  0.00    -0.356 OA
HETATM   32  C1  UNL     1      29.290  -2.483  53.285  1.00  0.00     0.210 C 
ENDBRANCH  29  31
ENDBRANCH   1  25
TORSDOF 9
ENDMDL
MODEL 6
REMARK VINA RESULT:      -8.2      4.790      8.608
REMARK  9 active torsions:
REMARK  status: ('A' for Active; 'I' for Inactive)
REMARK    1  A    between atoms: O1_2  and  C2_3 
REMARK    2  A    between atoms: C6_7  and  C7_8 
REMARK    3  A    between atoms: C16_19  and  C17_20 
REMARK    4  A    between atoms: C17_20  and  N2_21 
REMARK    5  A    between atoms: N2_21  and  C18_22 
REMARK    6  A    between atoms: C19_23  and  C20_24 
REMARK    7  A    between atoms: C20_24  and  C21_25 
REMARK    8  A    between atoms: C21_25  and  C22_26 
REMARK    9  A    between atoms: C22_26  and  O4_28 
ROOT
HETATM    1  C7  UNL     1      24.842   0.622  53.191  1.00  0.00    -0.024 A 
HETATM    2  C8  UNL     1      24.210  -0.592  53.373  1.00  0.00     0.013 A 
HETATM    3  C9  UNL     1      22.829  -0.693  53.207  1.00  0.00     0.015 A 
HETATM    4  C10 UNL     1      22.117   0.451  52.857  1.00  0.00    -0.003 A 
HETATM    5  C11 UNL     1      22.732   1.693  52.667  1.00  0.00     0.046 A 
HETATM    6  C12 UNL     1      24.101   1.734  52.845  1.00  0.00     0.042 A 
HETATM    7  N1  UNL     1      21.953   2.841  52.302  1.00  0.00    -0.326 N 
HETATM    8  C13 UNL     1      20.535   2.774  52.120  1.00  0.00     0.226 C 
HETATM    9  O2  UNL     1      19.981   3.900  52.297  1.00  0.00    -0.273 OA
HETATM   10  C14 UNL     1      20.082   1.400  51.769  1.00  0.00     0.142 C 
HETATM   11  C15 UNL     1      20.664   0.386  52.676  1.00  0.00    -0.039 C 
HETATM   12  C16 UNL     1      19.953  -0.534  53.304  1.00  0.00     0.001 C 
HETATM   13  H10 UNL     1      22.553   3.703  52.195  1.00  0.00     0.169 HD
ENDROOT
BRANCH  12  14
HETATM   14  C17 UNL     1      18.510  -0.854  53.328  1.00  0.00     0.147 C 
BRANCH  14  15
HETATM   15  N2  UNL     1      18.360  -2.168  53.929  1.00  0.00    -0.396 N 
HETATM   16  H16 UNL     1      18.955  -2.506  54.721  1.00  0.00     0.159 HD
BRANCH  15  17
HETATM   17  C18 UNL     1      17.434  -3.151  53.559  1.00  0.00     0.079 C 
HETATM   18  C19 UNL     1      17.031  -4.378  53.808  1.00  0.00    -0.009 C 
BRANCH  18  19
HETATM   19  C20 UNL     1      15.906  -5.026  53.079  1.00  0.00     0.039 C 
BRANCH  19  20
HETATM   20  C21 UNL     1      14.845  -3.977  52.795  1.00  0.00     0.113 C 
BRANCH  20  21
HETATM   21  C22 UNL     1      14.650  -3.813  51.329  1.00  0.00     0.139 C 
HETATM   22  O3  UNL     1      14.842  -2.698  50.785  1.00  0.00    -0.650 OA
BRANCH  21  23
HETATM   23  O4  UNL     1      14.253  -4.944  50.635  1.00  0.00    -0.776 OA
HETATM   24  H23 UNL     1      13.930  -4.827  49.689  1.00  0.00     0.167 HD
ENDBRANCH  21  23
ENDBRANCH  20  21
ENDBRANCH  19  20
ENDBRANCH  18  19
ENDBRANCH  15  17
ENDBRANCH  14  15
ENDBRANCH  12  14
BRANCH   1  25
HETATM   25  C6  UNL     1      26.287   0.670  53.379  1.00  0.00    -0.023 A 
HETATM   26  C5  UNL     1      26.827   1.949  53.474  1.00  0.00     0.012 A 
HETATM   27  C4  UNL     1      28.197   2.095  53.655  1.00  0.00     0.004 A 
HETATM   28  C3  UNL     1      28.991   0.982  53.737  1.00  0.00     0.037 A 
HETATM   29  C2  UNL     1      28.477  -0.292  53.645  1.00  0.00     0.069 A 
HETATM   30  C23 UNL     1      27.100  -0.450  53.463  1.00  0.00     0.049 A 
BRANCH  29  31
HETATM   31  O1  UNL     1      29.158  -1.500  53.711  1.00  0.00    -0.356 OA
HETATM   32  C1  UNL     1      28.674  -2.687  53.120  1.00  0.00     0.210 C 
ENDBRANCH  29  31
ENDBRANCH   1  25
TORSDOF 9
ENDMDL
MODEL 7
REMARK VINA RESULT:      -8.0      3.091      8.655
REMARK  9 active torsions:
REMARK  status: ('A' for Active; 'I' for Inactive)
REMARK    1  A    between atoms: O1_2  and  C2_3 
REMARK    2  A    between atoms: C6_7  and  C7_8 
REMARK    3  A    between atoms: C16_19  and  C17_20 
REMARK    4  A    between atoms: C17_20  and  N2_21 
REMARK    5  A    between atoms: N2_21  and  C18_22 
REMARK    6  A    between atoms: C19_23  and  C20_24 
REMARK    7  A    between atoms: C20_24  and  C21_25 
REMARK    8  A    between atoms: C21_25  and  C22_26 
REMARK    9  A    between atoms: C22_26  and  O4_28 
ROOT
HETATM    1  C7  UNL     1      21.309   1.093  51.149  1.00  0.00    -0.024 A 
HETATM    2  C8  UNL     1      21.708   1.598  49.927  1.00  0.00     0.013 A 
HETATM    3  C9  UNL     1      23.008   2.078  49.760  1.00  0.00     0.015 A 
HETATM    4  C10 UNL     1      23.877   2.034  50.847  1.00  0.00    -0.003 A 
HETATM    5  C11 UNL     1      23.497   1.528  52.095  1.00  0.00     0.046 A 
HETATM    6  C12 UNL     1      22.200   1.067  52.202  1.00  0.00     0.042 A 
HETATM    7  N1  UNL     1      24.433   1.501  53.182  1.00  0.00    -0.326 N 
HETATM    8  C13 UNL     1      25.774   1.982  53.046  1.00  0.00     0.226 C 
HETATM    9  O2  UNL     1      26.265   2.338  54.159  1.00  0.00    -0.273 OA
HETATM   10  C14 UNL     1      26.242   1.938  51.634  1.00  0.00     0.142 C 
HETATM   11  C15 UNL     1      25.248   2.532  50.711  1.00  0.00    -0.039 C 
HETATM   12  C16 UNL     1      25.538   3.456  49.812  1.00  0.00     0.001 C 
HETATM   13  H10 UNL     1      24.005   1.094  54.056  1.00  0.00     0.169 HD
ENDROOT
BRANCH  12  14
HETATM   14  C17 UNL     1      26.792   4.144  49.438  1.00  0.00     0.147 C 
BRANCH  14  15
HETATM   15  N2  UNL     1      26.536   5.574  49.470  1.00  0.00    -0.396 N 
HETATM   16  H16 UNL     1      27.227   6.285  49.134  1.00  0.00     0.159 HD
BRANCH  15  17
HETATM   17  C18 UNL     1      25.375   6.200  49.936  1.00  0.00     0.079 C 
HETATM   18  C19 UNL     1      24.926   7.185  50.684  1.00  0.00    -0.009 C 
BRANCH  18  19
HETATM   19  C20 UNL     1      23.476   7.462  50.878  1.00  0.00     0.039 C 
BRANCH  19  20
HETATM   20  C21 UNL     1      22.684   6.264  50.379  1.00  0.00     0.113 C 
BRANCH  20  21
HETATM   21  C22 UNL     1      22.184   5.455  51.523  1.00  0.00     0.139 C 
HETATM   22  O3  UNL     1      21.078   4.864  51.445  1.00  0.00    -0.650 OA
BRANCH  21  23
HETATM   23  O4  UNL     1      23.001   5.406  52.640  1.00  0.00    -0.776 OA
HETATM   24  H23 UNL     1      22.719   5.928  53.453  1.00  0.00     0.167 HD
ENDBRANCH  21  23
ENDBRANCH  20  21
ENDBRANCH  19  20
ENDBRANCH  18  19
ENDBRANCH  15  17
ENDBRANCH  14  15
ENDBRANCH  12  14
BRANCH   1  25
HETATM   25  C6  UNL     1      19.939   0.606  51.267  1.00  0.00    -0.023 A 
HETATM   26  C5  UNL     1      19.132   0.845  50.159  1.00  0.00     0.012 A 
HETATM   27  C4  UNL     1      17.811   0.415  50.177  1.00  0.00     0.004 A 
HETATM   28  C3  UNL     1      17.326  -0.234  51.282  1.00  0.00     0.037 A 
HETATM   29  C2  UNL     1      18.108  -0.480  52.388  1.00  0.00     0.069 A 
HETATM   30  C23 UNL     1      19.438  -0.052  52.379  1.00  0.00     0.049 A 
BRANCH  29  31
HETATM   31  O1  UNL     1      17.752  -1.121  53.567  1.00  0.00    -0.356 OA
HETATM   32  C1  UNL     1      17.976  -2.496  53.790  1.00  0.00     0.210 C 
ENDBRANCH  29  31
ENDBRANCH   1  25
TORSDOF 9
ENDMDL
MODEL 8
REMARK VINA RESULT:      -8.0      5.573      9.003
REMARK  9 active torsions:
REMARK  status: ('A' for Active; 'I' for Inactive)
REMARK    1  A    between atoms: O1_2  and  C2_3 
REMARK    2  A    between atoms: C6_7  and  C7_8 
REMARK    3  A    between atoms: C16_19  and  C17_20 
REMARK    4  A    between atoms: C17_20  and  N2_21 
REMARK    5  A    between atoms: N2_21  and  C18_22 
REMARK    6  A    between atoms: C19_23  and  C20_24 
REMARK    7  A    between atoms: C20_24  and  C21_25 
REMARK    8  A    between atoms: C21_25  and  C22_26 
REMARK    9  A    between atoms: C22_26  and  O4_28 
ROOT
HETATM    1  C7  UNL     1      24.512   0.646  53.239  1.00  0.00    -0.024 A 
HETATM    2  C8  UNL     1      23.964  -0.605  53.441  1.00  0.00     0.013 A 
HETATM    3  C9  UNL     1      22.593  -0.803  53.273  1.00  0.00     0.015 A 
HETATM    4  C10 UNL     1      21.806   0.283  52.901  1.00  0.00    -0.003 A 
HETATM    5  C11 UNL     1      22.337   1.560  52.690  1.00  0.00     0.046 A 
HETATM    6  C12 UNL     1      23.698   1.698  52.871  1.00  0.00     0.042 A 
HETATM    7  N1  UNL     1      21.482   2.647  52.303  1.00  0.00    -0.326 N 
HETATM    8  C13 UNL     1      20.073   2.479  52.119  1.00  0.00     0.226 C 
HETATM    9  O2  UNL     1      19.442   3.568  52.275  1.00  0.00    -0.273 OA
HETATM   10  C14 UNL     1      19.716   1.072  51.792  1.00  0.00     0.142 C 
HETATM   11  C15 UNL     1      20.362   0.116  52.718  1.00  0.00    -0.039 C 
HETATM   12  C16 UNL     1      19.713  -0.839  53.361  1.00  0.00     0.001 C 
HETATM   13  H10 UNL     1      22.022   3.545  52.181  1.00  0.00     0.169 HD
ENDROOT
BRANCH  12  14
HETATM   14  C17 UNL     1      18.295  -1.256  53.387  1.00  0.00     0.147 C 
BRANCH  14  15
HETATM   15  N2  UNL     1      18.263  -2.698  53.564  1.00  0.00    -0.396 N 
HETATM   16  H16 UNL     1      19.128  -3.284  53.640  1.00  0.00     0.159 HD
BRANCH  15  17
HETATM   17  C18 UNL     1      17.119  -3.499  53.657  1.00  0.00     0.079 C 
HETATM   18  C19 UNL     1      16.697  -4.742  53.745  1.00  0.00    -0.009 C 
BRANCH  18  19
HETATM   19  C20 UNL     1      15.255  -5.105  53.826  1.00  0.00     0.039 C 
BRANCH  19  20
HETATM   20  C21 UNL     1      15.012  -5.832  55.138  1.00  0.00     0.113 C 
BRANCH  20  21
HETATM   21  C22 UNL     1      13.704  -5.431  55.722  1.00  0.00     0.139 C 
HETATM   22  O3  UNL     1      13.055  -6.237  56.434  1.00  0.00    -0.650 OA
BRANCH  21  23
HETATM   23  O4  UNL     1      13.270  -4.149  55.430  1.00  0.00    -0.776 OA
HETATM   24  H23 UNL     1      12.939  -3.964  54.498  1.00  0.00     0.167 HD
ENDBRANCH  21  23
ENDBRANCH  20  21
ENDBRANCH  19  20
ENDBRANCH  18  19
ENDBRANCH  15  17
ENDBRANCH  14  15
ENDBRANCH  12  14
BRANCH   1  25
HETATM   25  C6  UNL     1      25.951   0.795  53.429  1.00  0.00    -0.023 A 
HETATM   26  C5  UNL     1      26.438   2.086  53.249  1.00  0.00     0.012 A 
HETATM   27  C4  UNL     1      27.796   2.328  53.411  1.00  0.00     0.004 A 
HETATM   28  C3  UNL     1      28.632   1.293  53.743  1.00  0.00     0.037 A 
HETATM   29  C2  UNL     1      28.170   0.009  53.924  1.00  0.00     0.069 A 
HETATM   30  C23 UNL     1      26.805  -0.243  53.764  1.00  0.00     0.049 A 
BRANCH  29  31
HETATM   31  O1  UNL     1      28.897  -1.125  54.259  1.00  0.00    -0.356 OA
HETATM   32  C1  UNL     1      29.484  -1.973  53.296  1.00  0.00     0.210 C 
ENDBRANCH  29  31
ENDBRANCH   1  25
TORSDOF 9
ENDMDL
MODEL 9
REMARK VINA RESULT:      -8.0      2.665      7.487
REMARK  9 active torsions:
REMARK  status: ('A' for Active; 'I' for Inactive)
REMARK    1  A    between atoms: O1_2  and  C2_3 
REMARK    2  A    between atoms: C6_7  and  C7_8 
REMARK    3  A    between atoms: C16_19  and  C17_20 
REMARK    4  A    between atoms: C17_20  and  N2_21 
REMARK    5  A    between atoms: N2_21  and  C18_22 
REMARK    6  A    between atoms: C19_23  and  C20_24 
REMARK    7  A    between atoms: C20_24  and  C21_25 
REMARK    8  A    between atoms: C21_25  and  C22_26 
REMARK    9  A    between atoms: C22_26  and  O4_28 
ROOT
HETATM    1  C7  UNL     1      25.131   2.798  51.345  1.00  0.00    -0.024 A 
HETATM    2  C8  UNL     1      26.020   3.113  50.336  1.00  0.00     0.013 A 
HETATM    3  C9  UNL     1      25.931   4.344  49.685  1.00  0.00     0.015 A 
HETATM    4  C10 UNL     1      24.932   5.231  50.076  1.00  0.00    -0.003 A 
HETATM    5  C11 UNL     1      24.019   4.937  51.093  1.00  0.00     0.046 A 
HETATM    6  C12 UNL     1      24.155   3.705  51.703  1.00  0.00     0.042 A 
HETATM    7  N1  UNL     1      23.010   5.888  51.462  1.00  0.00    -0.326 N 
HETATM    8  C13 UNL     1      22.891   7.161  50.817  1.00  0.00     0.226 C 
HETATM    9  O2  UNL     1      21.715   7.626  50.902  1.00  0.00    -0.273 OA
HETATM   10  C14 UNL     1      24.178   7.605  50.217  1.00  0.00     0.142 C 
HETATM   11  C15 UNL     1      24.804   6.532  49.413  1.00  0.00    -0.039 C 
HETATM   12  C16 UNL     1      25.229   6.694  48.172  1.00  0.00     0.001 C 
HETATM   13  H10 UNL     1      22.398   5.528  52.241  1.00  0.00     0.169 HD
ENDROOT
BRANCH  12  14
HETATM   14  C17 UNL     1      25.243   7.851  47.252  1.00  0.00     0.147 C 
BRANCH  14  15
HETATM   15  N2  UNL     1      26.575   8.432  47.294  1.00  0.00    -0.396 N 
HETATM   16  H16 UNL     1      26.749   9.464  47.282  1.00  0.00     0.159 HD
BRANCH  15  17
HETATM   17  C18 UNL     1      27.785   7.731  47.355  1.00  0.00     0.079 C 
HETATM   18  C19 UNL     1      28.563   7.021  48.143  1.00  0.00    -0.009 C 
BRANCH  18  19
HETATM   19  C20 UNL     1      29.862   6.446  47.697  1.00  0.00     0.039 C 
BRANCH  19  20
HETATM   20  C21 UNL     1      30.929   6.817  48.713  1.00  0.00     0.113 C 
BRANCH  20  21
HETATM   21  C22 UNL     1      31.518   5.594  49.323  1.00  0.00     0.139 C 
HETATM   22  O3  UNL     1      31.997   4.690  48.594  1.00  0.00    -0.650 OA
BRANCH  21  23
HETATM   23  O4  UNL     1      31.496   5.530  50.706  1.00  0.00    -0.776 OA
HETATM   24  H23 UNL     1      31.371   4.628  51.134  1.00  0.00     0.167 HD
ENDBRANCH  21  23
ENDBRANCH  20  21
ENDBRANCH  19  20
ENDBRANCH  18  19
ENDBRANCH  15  17
ENDBRANCH  14  15
ENDBRANCH  12  14
BRANCH   1  25
HETATM   25  C6  UNL     1      25.271   1.499  51.991  1.00  0.00    -0.023 A 
HETATM   26  C5  UNL     1      26.509   0.886  51.821  1.00  0.00     0.012 A 
HETATM   27  C4  UNL     1      26.738  -0.355  52.401  1.00  0.00     0.004 A 
HETATM   28  C3  UNL     1      25.743  -0.955  53.129  1.00  0.00     0.037 A 
HETATM   29  C2  UNL     1      24.512  -0.366  53.309  1.00  0.00     0.069 A 
HETATM   30  C23 UNL     1      24.272   0.883  52.729  1.00  0.00     0.049 A 
BRANCH  29  31
HETATM   31  O1  UNL     1      23.421  -0.854  54.016  1.00  0.00    -0.356 OA
HETATM   32  C1  UNL     1      23.503  -1.270  55.362  1.00  0.00     0.210 C 
ENDBRANCH  29  31
ENDBRANCH   1  25
TORSDOF 9
ENDMDL
