MODEL 1
REMARK VINA RESULT:      -7.9      0.000      0.000
REMARK  3 active torsions:
REMARK  status: ('A' for Active; 'I' for Inactive)
REMARK    1  A    between atoms: O1_1  and  C1_2 
REMARK    2  A    between atoms: C6_10  and  N3_11 
REMARK    3  A    between atoms: N3_11  and  C7_12 
ROOT
HETATM    1  C1  UNL     1      22.354  -0.968  54.487  1.00  0.00     0.045 C 
HETATM    2  C2  UNL     1      21.136  -0.454  54.313  1.00  0.00     0.032 C 
HETATM    3  C3  UNL     1      20.271   0.260  53.379  1.00  0.00     0.005 C 
HETATM    4  C4  UNL     1      20.378   0.764  52.168  1.00  0.00     0.035 C 
HETATM    5  P1  UNL     1      21.708   0.867  50.935  1.00  0.00     0.073 P 
HETATM    6  N1  UNL     1      21.122   1.129  49.263  1.00  0.00    -0.245 NA
HETATM    7  C5  UNL     1      21.503   2.221  48.691  1.00  0.00     0.234 A 
HETATM    8  N2  UNL     1      22.307   3.276  49.118  1.00  0.00    -0.224 NA
HETATM    9  C6  UNL     1      22.888   3.414  50.237  1.00  0.00     0.144 A 
HETATM   10  C13 UNL     1      22.752   2.374  51.249  1.00  0.00     0.062 A 
HETATM   11  C14 UNL     1      23.403   2.552  52.390  1.00  0.00     0.152 C 
HETATM   12  O2  UNL     1      23.042   1.393  53.065  1.00  0.00    -0.362 OA
HETATM   13  C15 UNL     1      24.043   0.423  53.452  1.00  0.00     0.181 C 
HETATM   14  C16 UNL     1      23.428  -0.950  53.463  1.00  0.00     0.091 C 
ENDROOT
BRANCH   9  15
HETATM   15  N3  UNL     1      23.657   4.595  50.427  1.00  0.00    -0.340 N 
HETATM   16  H6  UNL     1      23.252   5.298  51.086  1.00  0.00     0.167 HD
BRANCH  15  17
HETATM   17  C7  UNL     1      24.903   4.857  49.797  1.00  0.00     0.035 A 
HETATM   18  C8  UNL     1      25.872   3.844  49.782  1.00  0.00     0.029 A 
HETATM   19  C9  UNL     1      27.095   4.034  49.182  1.00  0.00     0.004 A 
HETATM   20  C10 UNL     1      27.442   5.207  48.569  1.00  0.00     0.019 A 
HETATM   21  C11 UNL     1      26.486   6.224  48.578  1.00  0.00     0.013 A 
HETATM   22 BR1  UNL     1      26.920   7.882  47.738  1.00  0.00    -0.051 Br
HETATM   23  C12 UNL     1      25.288   6.012  49.176  1.00  0.00     0.048 A 
ENDBRANCH  15  17
ENDBRANCH   9  15
BRANCH   1  24
HETATM   24  O1  UNL     1      22.769  -1.614  55.677  1.00  0.00    -0.365 OA
HETATM   25  H1  UNL     1      22.101  -1.644  56.442  1.00  0.00     0.217 HD
ENDBRANCH   1  24
TORSDOF 3
ENDMDL
MODEL 2
REMARK VINA RESULT:      -7.8      2.485      3.637
REMARK  3 active torsions:
REMARK  status: ('A' for Active; 'I' for Inactive)
REMARK    1  A    between atoms: O1_1  and  C1_2 
REMARK    2  A    between atoms: C6_10  and  N3_11 
REMARK    3  A    between atoms: N3_11  and  C7_12 
ROOT
HETATM    1  C1  UNL     1      21.084   0.250  53.291  1.00  0.00     0.045 C 
HETATM    2  C2  UNL     1      21.959  -0.757  53.288  1.00  0.00     0.032 C 
HETATM    3  C3  UNL     1      23.378  -1.097  53.322  1.00  0.00     0.005 C 
HETATM    4  C4  UNL     1      24.519  -0.443  53.359  1.00  0.00     0.035 C 
HETATM    5  P1  UNL     1      24.992   1.312  53.381  1.00  0.00     0.073 P 
HETATM    6  N1  UNL     1      26.637   1.606  54.025  1.00  0.00    -0.245 NA
HETATM    7  C5  UNL     1      27.479   2.145  53.209  1.00  0.00     0.234 A 
HETATM    8  N2  UNL     1      27.371   2.562  51.884  1.00  0.00    -0.224 NA
HETATM    9  C6  UNL     1      26.354   2.508  51.127  1.00  0.00     0.144 A 
HETATM   10  C13 UNL     1      25.105   1.962  51.642  1.00  0.00     0.062 A 
HETATM   11  C14 UNL     1      24.065   1.955  50.820  1.00  0.00     0.152 C 
HETATM   12  O2  UNL     1      23.101   1.387  51.645  1.00  0.00    -0.362 OA
HETATM   13  C15 UNL     1      21.918   2.132  52.016  1.00  0.00     0.181 C 
HETATM   14  C16 UNL     1      21.455   1.685  53.376  1.00  0.00     0.091 C 
ENDROOT
BRANCH   9  15
HETATM   15  N3  UNL     1      26.505   3.003  49.802  1.00  0.00    -0.340 N 
HETATM   16  H6  UNL     1      26.559   2.278  49.052  1.00  0.00     0.167 HD
BRANCH  15  17
HETATM   17  C7  UNL     1      26.578   4.379  49.459  1.00  0.00     0.035 A 
HETATM   18  C8  UNL     1      27.618   4.807  48.620  1.00  0.00     0.029 A 
HETATM   19  C9  UNL     1      27.737   6.125  48.246  1.00  0.00     0.004 A 
HETATM   20  C10 UNL     1      26.863   7.092  48.660  1.00  0.00     0.019 A 
HETATM   21  C11 UNL     1      25.824   6.680  49.496  1.00  0.00     0.013 A 
HETATM   22 BR1  UNL     1      24.576   7.989  50.104  1.00  0.00    -0.051 Br
HETATM   23  C12 UNL     1      25.727   5.375  49.851  1.00  0.00     0.048 A 
ENDBRANCH  15  17
ENDBRANCH   9  15
BRANCH   1  24
HETATM   24  O1  UNL     1      19.681   0.068  53.227  1.00  0.00    -0.365 OA
HETATM   25  H1  UNL     1      19.214   0.385  52.383  1.00  0.00     0.217 HD
ENDBRANCH   1  24
TORSDOF 3
ENDMDL
MODEL 3
REMARK VINA RESULT:      -7.6      2.502      3.673
REMARK  3 active torsions:
REMARK  status: ('A' for Active; 'I' for Inactive)
REMARK    1  A    between atoms: O1_1  and  C1_2 
REMARK    2  A    between atoms: C6_10  and  N3_11 
REMARK    3  A    between atoms: N3_11  and  C7_12 
ROOT
HETATM    1  C1  UNL     1      20.585   0.904  52.681  1.00  0.00     0.045 C 
HETATM    2  C2  UNL     1      21.359  -0.174  52.812  1.00  0.00     0.032 C 
HETATM    3  C3  UNL     1      22.730  -0.637  53.002  1.00  0.00     0.005 C 
HETATM    4  C4  UNL     1      23.919  -0.085  53.120  1.00  0.00     0.035 C 
HETATM    5  P1  UNL     1      24.550   1.619  53.106  1.00  0.00     0.073 P 
HETATM    6  N1  UNL     1      26.147   1.802  53.894  1.00  0.00    -0.245 NA
HETATM    7  C5  UNL     1      27.109   2.217  53.141  1.00  0.00     0.234 A 
HETATM    8  N2  UNL     1      27.165   2.567  51.793  1.00  0.00    -0.224 NA
HETATM    9  C6  UNL     1      26.224   2.561  50.944  1.00  0.00     0.144 A 
HETATM   10  C13 UNL     1      24.886   2.158  51.358  1.00  0.00     0.062 A 
HETATM   11  C14 UNL     1      23.931   2.197  50.439  1.00  0.00     0.152 C 
HETATM   12  O2  UNL     1      22.846   1.764  51.190  1.00  0.00    -0.362 OA
HETATM   13  C15 UNL     1      21.708   2.631  51.408  1.00  0.00     0.181 C 
HETATM   14  C16 UNL     1      21.079   2.304  52.735  1.00  0.00     0.091 C 
ENDROOT
BRANCH   9  15
HETATM   15  N3  UNL     1      26.544   2.966  49.618  1.00  0.00    -0.340 N 
HETATM   16  H6  UNL     1      26.625   2.195  48.916  1.00  0.00     0.167 HD
BRANCH  15  17
HETATM   17  C7  UNL     1      26.745   4.312  49.212  1.00  0.00     0.035 A 
HETATM   18  C8  UNL     1      25.705   5.232  49.402  1.00  0.00     0.029 A 
HETATM   19  C9  UNL     1      25.841   6.551  49.036  1.00  0.00     0.004 A 
HETATM   20  C10 UNL     1      26.984   7.045  48.469  1.00  0.00     0.019 A 
HETATM   21  C11 UNL     1      28.028   6.139  48.274  1.00  0.00     0.013 A 
HETATM   22 BR1  UNL     1      29.645   6.776  47.487  1.00  0.00    -0.051 Br
HETATM   23  C12 UNL     1      27.869   4.844  48.643  1.00  0.00     0.048 A 
ENDBRANCH  15  17
ENDBRANCH   9  15
BRANCH   1  24
HETATM   24  O1  UNL     1      19.184   0.845  52.489  1.00  0.00    -0.365 OA
HETATM   25  H1  UNL     1      18.855   0.450  51.613  1.00  0.00     0.217 HD
ENDBRANCH   1  24
TORSDOF 3
ENDMDL
MODEL 4
REMARK VINA RESULT:      -7.4      3.769      4.972
REMARK  3 active torsions:
REMARK  status: ('A' for Active; 'I' for Inactive)
REMARK    1  A    between atoms: O1_1  and  C1_2 
REMARK    2  A    between atoms: C6_10  and  N3_11 
REMARK    3  A    between atoms: N3_11  and  C7_12 
ROOT
HETATM    1  C1  UNL     1      19.749   0.662  52.213  1.00  0.00     0.045 C 
HETATM    2  C2  UNL     1      19.651   1.980  52.035  1.00  0.00     0.032 C 
HETATM    3  C3  UNL     1      20.330   3.162  51.512  1.00  0.00     0.005 C 
HETATM    4  C4  UNL     1      21.484   3.428  50.940  1.00  0.00     0.035 C 
HETATM    5  P1  UNL     1      22.939   2.447  50.468  1.00  0.00     0.073 P 
HETATM    6  N1  UNL     1      23.948   3.217  49.205  1.00  0.00    -0.245 NA
HETATM    7  C5  UNL     1      25.161   3.503  49.541  1.00  0.00     0.234 A 
HETATM    8  N2  UNL     1      25.875   3.328  50.724  1.00  0.00    -0.224 NA
HETATM    9  C6  UNL     1      25.473   2.814  51.812  1.00  0.00     0.144 A 
HETATM   10  C13 UNL     1      24.109   2.311  51.907  1.00  0.00     0.062 A 
HETATM   11  C14 UNL     1      23.748   1.756  53.055  1.00  0.00     0.152 C 
HETATM   12  O2  UNL     1      22.435   1.411  52.762  1.00  0.00    -0.362 OA
HETATM   13  C15 UNL     1      22.019   0.025  52.763  1.00  0.00     0.181 C 
HETATM   14  C16 UNL     1      20.903  -0.161  51.772  1.00  0.00     0.091 C 
ENDROOT
BRANCH   9  15
HETATM   15  N3  UNL     1      26.406   2.753  52.884  1.00  0.00    -0.340 N 
HETATM   16  H6  UNL     1      26.395   3.565  53.541  1.00  0.00     0.167 HD
BRANCH  15  17
HETATM   17  C7  UNL     1      27.314   1.682  53.104  1.00  0.00     0.035 A 
HETATM   18  C8  UNL     1      28.573   1.973  53.648  1.00  0.00     0.029 A 
HETATM   19  C9  UNL     1      29.493   0.979  53.892  1.00  0.00     0.004 A 
HETATM   20  C10 UNL     1      29.244  -0.339  53.623  1.00  0.00     0.019 A 
HETATM   21  C11 UNL     1      27.994  -0.641  53.080  1.00  0.00     0.013 A 
HETATM   22 BR1  UNL     1      27.595  -2.465  52.686  1.00  0.00    -0.051 Br
HETATM   23  C12 UNL     1      27.105   0.356  52.850  1.00  0.00     0.048 A 
ENDBRANCH  15  17
ENDBRANCH   9  15
BRANCH   1  24
HETATM   24  O1  UNL     1      18.748  -0.121  52.837  1.00  0.00    -0.365 OA
HETATM   25  H1  UNL     1      19.052  -0.970  53.305  1.00  0.00     0.217 HD
ENDBRANCH   1  24
TORSDOF 3
ENDMDL
MODEL 5
REMARK VINA RESULT:      -7.3      3.277      7.006
REMARK  3 active torsions:
REMARK  status: ('A' for Active; 'I' for Inactive)
REMARK    1  A    between atoms: O1_1  and  C1_2 
REMARK    2  A    between atoms: C6_10  and  N3_11 
REMARK    3  A    between atoms: N3_11  and  C7_12 
ROOT
HETATM    1  C1  UNL     1      24.655   7.085  50.294  1.00  0.00     0.045 C 
HETATM    2  C2  UNL     1      25.518   6.096  50.057  1.00  0.00     0.032 C 
HETATM    3  C3  UNL     1      25.646   4.714  49.608  1.00  0.00     0.005 C 
HETATM    4  C4  UNL     1      24.834   3.755  49.218  1.00  0.00     0.035 C 
HETATM    5  P1  UNL     1      23.034   3.600  49.018  1.00  0.00     0.073 P 
HETATM    6  N1  UNL     1      22.544   2.285  47.906  1.00  0.00    -0.245 NA
HETATM    7  C5  UNL     1      21.832   1.340  48.421  1.00  0.00     0.234 A 
HETATM    8  N2  UNL     1      21.344   1.124  49.708  1.00  0.00    -0.224 NA
HETATM    9  C6  UNL     1      21.497   1.852  50.735  1.00  0.00     0.144 A 
HETATM   10  C13 UNL     1      22.256   3.092  50.629  1.00  0.00     0.062 A 
HETATM   11  C14 UNL     1      22.361   3.832  51.724  1.00  0.00     0.152 C 
HETATM   12  O2  UNL     1      23.120   4.889  51.237  1.00  0.00    -0.362 OA
HETATM   13  C15 UNL     1      22.587   6.233  51.220  1.00  0.00     0.181 C 
HETATM   14  C16 UNL     1      23.190   6.993  50.070  1.00  0.00     0.091 C 
ENDROOT
BRANCH   9  15
HETATM   15  N3  UNL     1      20.895   1.404  51.943  1.00  0.00    -0.340 N 
HETATM   16  H6  UNL     1      19.925   1.751  52.121  1.00  0.00     0.167 HD
BRANCH  15  17
HETATM   17  C7  UNL     1      21.516   0.538  52.882  1.00  0.00     0.035 A 
HETATM   18  C8  UNL     1      20.701  -0.249  53.708  1.00  0.00     0.029 A 
HETATM   19  C9  UNL     1      21.243  -1.113  54.632  1.00  0.00     0.004 A 
HETATM   20  C10 UNL     1      22.592  -1.259  54.804  1.00  0.00     0.019 A 
HETATM   21  C11 UNL     1      23.414  -0.480  53.987  1.00  0.00     0.013 A 
HETATM   22 BR1  UNL     1      25.305  -0.645  54.186  1.00  0.00    -0.051 Br
HETATM   23  C12 UNL     1      22.857   0.363  53.085  1.00  0.00     0.048 A 
ENDBRANCH  15  17
ENDBRANCH   9  15
BRANCH   1  24
HETATM   24  O1  UNL     1      25.037   8.360  50.777  1.00  0.00    -0.365 OA
HETATM   25  H1  UNL     1      25.190   8.447  51.777  1.00  0.00     0.217 HD
ENDBRANCH   1  24
TORSDOF 3
ENDMDL
MODEL 6
REMARK VINA RESULT:      -7.3      2.297      3.126
REMARK  3 active torsions:
REMARK  status: ('A' for Active; 'I' for Inactive)
REMARK    1  A    between atoms: O1_1  and  C1_2 
REMARK    2  A    between atoms: C6_10  and  N3_11 
REMARK    3  A    between atoms: N3_11  and  C7_12 
ROOT
HETATM    1  C1  UNL     1      26.442  -0.858  53.178  1.00  0.00     0.045 C 
HETATM    2  C2  UNL     1      25.349  -0.880  53.942  1.00  0.00     0.032 C 
HETATM    3  C3  UNL     1      23.976  -0.402  54.065  1.00  0.00     0.005 C 
HETATM    4  C4  UNL     1      23.163   0.365  53.370  1.00  0.00     0.035 C 
HETATM    5  P1  UNL     1      23.296   1.301  51.818  1.00  0.00     0.073 P 
HETATM    6  N1  UNL     1      21.716   1.671  51.062  1.00  0.00    -0.245 NA
HETATM    7  C5  UNL     1      21.423   2.921  50.938  1.00  0.00     0.234 A 
HETATM    8  N2  UNL     1      22.107   4.086  51.279  1.00  0.00    -0.224 NA
HETATM    9  C6  UNL     1      23.248   4.193  51.823  1.00  0.00     0.144 A 
HETATM   10  C13 UNL     1      24.001   2.990  52.152  1.00  0.00     0.062 A 
HETATM   11  C14 UNL     1      25.200   3.156  52.692  1.00  0.00     0.152 C 
HETATM   12  O2  UNL     1      25.588   1.831  52.850  1.00  0.00    -0.362 OA
HETATM   13  C15 UNL     1      26.742   1.313  52.149  1.00  0.00     0.181 C 
HETATM   14  C16 UNL     1      26.542  -0.153  51.875  1.00  0.00     0.091 C 
ENDROOT
BRANCH   9  15
HETATM   15  N3  UNL     1      23.727   5.509  52.071  1.00  0.00    -0.340 N 
HETATM   16  H6  UNL     1      23.699   5.821  53.068  1.00  0.00     0.167 HD
BRANCH  15  17
HETATM   17  C7  UNL     1      24.231   6.386  51.073  1.00  0.00     0.035 A 
HETATM   18  C8  UNL     1      23.546   7.585  50.827  1.00  0.00     0.029 A 
HETATM   19  C9  UNL     1      23.988   8.478  49.879  1.00  0.00     0.004 A 
HETATM   20  C10 UNL     1      25.108   8.259  49.124  1.00  0.00     0.019 A 
HETATM   21  C11 UNL     1      25.798   7.069  49.358  1.00  0.00     0.013 A 
HETATM   22 BR1  UNL     1      27.367   6.714  48.332  1.00  0.00    -0.051 Br
HETATM   23  C12 UNL     1      25.343   6.205  50.298  1.00  0.00     0.048 A 
ENDBRANCH  15  17
ENDBRANCH   9  15
BRANCH   1  24
HETATM   24  O1  UNL     1      27.645  -1.525  53.512  1.00  0.00    -0.365 OA
HETATM   25  H1  UNL     1      27.561  -2.454  53.915  1.00  0.00     0.217 HD
ENDBRANCH   1  24
TORSDOF 3
ENDMDL
MODEL 7
REMARK VINA RESULT:      -7.2      3.995      7.112
REMARK  3 active torsions:
REMARK  status: ('A' for Active; 'I' for Inactive)
REMARK    1  A    between atoms: O1_1  and  C1_2 
REMARK    2  A    between atoms: C6_10  and  N3_11 
REMARK    3  A    between atoms: N3_11  and  C7_12 
ROOT
HETATM    1  C1  UNL     1      27.548   0.012  53.911  1.00  0.00     0.045 C 
HETATM    2  C2  UNL     1      27.380   0.230  52.606  1.00  0.00     0.032 C 
HETATM    3  C3  UNL     1      26.490   0.807  51.603  1.00  0.00     0.005 C 
HETATM    4  C4  UNL     1      25.323   1.414  51.594  1.00  0.00     0.035 C 
HETATM    5  P1  UNL     1      24.114   1.888  52.866  1.00  0.00     0.073 P 
HETATM    6  N1  UNL     1      23.006   3.198  52.353  1.00  0.00    -0.245 NA
HETATM    7  C5  UNL     1      21.751   2.900  52.313  1.00  0.00     0.234 A 
HETATM    8  N2  UNL     1      21.053   1.728  52.599  1.00  0.00    -0.224 NA
HETATM    9  C6  UNL     1      21.520   0.615  52.991  1.00  0.00     0.144 A 
HETATM   10  C13 UNL     1      22.954   0.472  53.200  1.00  0.00     0.062 A 
HETATM   11  C14 UNL     1      23.387  -0.701  53.639  1.00  0.00     0.152 C 
HETATM   12  O2  UNL     1      24.751  -0.450  53.715  1.00  0.00    -0.362 OA
HETATM   13  C15 UNL     1      25.441  -0.505  54.986  1.00  0.00     0.181 C 
HETATM   14  C16 UNL     1      26.600   0.453  54.965  1.00  0.00     0.091 C 
ENDROOT
BRANCH   9  15
HETATM   15  N3  UNL     1      20.587  -0.436  53.213  1.00  0.00    -0.340 N 
HETATM   16  H6  UNL     1      20.927  -1.224  53.809  1.00  0.00     0.167 HD
BRANCH  15  17
HETATM   17  C7  UNL     1      19.266  -0.466  52.694  1.00  0.00     0.035 A 
HETATM   18  C8  UNL     1      18.305  -1.248  53.351  1.00  0.00     0.029 A 
HETATM   19  C9  UNL     1      17.007  -1.312  52.901  1.00  0.00     0.004 A 
HETATM   20  C10 UNL     1      16.573  -0.630  51.798  1.00  0.00     0.019 A 
HETATM   21  C11 UNL     1      17.521   0.151  51.133  1.00  0.00     0.013 A 
HETATM   22 BR1  UNL     1      16.968   1.124  49.587  1.00  0.00    -0.051 Br
HETATM   23  C12 UNL     1      18.793   0.199  51.597  1.00  0.00     0.048 A 
ENDBRANCH  15  17
ENDBRANCH   9  15
BRANCH   1  24
HETATM   24  O1  UNL     1      28.669  -0.660  54.455  1.00  0.00    -0.365 OA
HETATM   25  H1  UNL     1      28.620  -1.673  54.505  1.00  0.00     0.217 HD
ENDBRANCH   1  24
TORSDOF 3
ENDMDL
MODEL 8
REMARK VINA RESULT:      -7.0      6.270     10.310
REMARK  3 active torsions:
REMARK  status: ('A' for Active; 'I' for Inactive)
REMARK    1  A    between atoms: O1_1  and  C1_2 
REMARK    2  A    between atoms: C6_10  and  N3_11 
REMARK    3  A    between atoms: N3_11  and  C7_12 
ROOT
HETATM    1  C1  UNL     1      34.214   6.309  47.708  1.00  0.00     0.045 C 
HETATM    2  C2  UNL     1      33.934   7.387  46.976  1.00  0.00     0.032 C 
HETATM    3  C3  UNL     1      33.020   8.515  46.823  1.00  0.00     0.005 C 
HETATM    4  C4  UNL     1      31.944   8.965  47.433  1.00  0.00     0.035 C 
HETATM    5  P1  UNL     1      30.950   8.416  48.853  1.00  0.00     0.073 P 
HETATM    6  N1  UNL     1      29.967   9.719  49.590  1.00  0.00    -0.245 NA
HETATM    7  C5  UNL     1      28.688   9.551  49.562  1.00  0.00     0.234 A 
HETATM    8  N2  UNL     1      27.883   8.529  49.064  1.00  0.00    -0.224 NA
HETATM    9  C6  UNL     1      28.246   7.459  48.486  1.00  0.00     0.144 A 
HETATM   10  C13 UNL     1      29.666   7.193  48.295  1.00  0.00     0.062 A 
HETATM   11  C14 UNL     1      29.992   6.048  47.713  1.00  0.00     0.152 C 
HETATM   12  O2  UNL     1      31.377   6.154  47.714  1.00  0.00    -0.362 OA
HETATM   13  C15 UNL     1      32.189   5.209  48.450  1.00  0.00     0.181 C 
HETATM   14  C16 UNL     1      33.450   5.887  48.910  1.00  0.00     0.091 C 
ENDROOT
BRANCH   9  15
HETATM   15  N3  UNL     1      27.219   6.570  48.065  1.00  0.00    -0.340 N 
HETATM   16  H6  UNL     1      26.945   6.638  47.059  1.00  0.00     0.167 HD
BRANCH  15  17
HETATM   17  C7  UNL     1      26.574   5.625  48.907  1.00  0.00     0.035 A 
HETATM   18  C8  UNL     1      27.109   4.331  48.994  1.00  0.00     0.029 A 
HETATM   19  C9  UNL     1      26.535   3.374  49.798  1.00  0.00     0.004 A 
HETATM   20  C10 UNL     1      25.420   3.615  50.553  1.00  0.00     0.019 A 
HETATM   21  C11 UNL     1      24.877   4.899  50.474  1.00  0.00     0.013 A 
HETATM   22 BR1  UNL     1      23.321   5.289  51.507  1.00  0.00    -0.051 Br
HETATM   23  C12 UNL     1      25.462   5.825  49.675  1.00  0.00     0.048 A 
ENDBRANCH  15  17
ENDBRANCH   9  15
BRANCH   1  24
HETATM   24  O1  UNL     1      35.295   5.435  47.435  1.00  0.00    -0.365 OA
HETATM   25  H1  UNL     1      36.136   5.555  47.992  1.00  0.00     0.217 HD
ENDBRANCH   1  24
TORSDOF 3
ENDMDL
MODEL 9
REMARK VINA RESULT:      -6.9      2.567      3.095
REMARK  3 active torsions:
REMARK  status: ('A' for Active; 'I' for Inactive)
REMARK    1  A    between atoms: O1_1  and  C1_2 
REMARK    2  A    between atoms: C6_10  and  N3_11 
REMARK    3  A    between atoms: N3_11  and  C7_12 
ROOT
HETATM    1  C1  UNL     1      25.255  -0.377  53.575  1.00  0.00     0.045 C 
HETATM    2  C2  UNL     1      23.992  -0.519  53.980  1.00  0.00     0.032 C 
HETATM    3  C3  UNL     1      22.606  -0.161  53.695  1.00  0.00     0.005 C 
HETATM    4  C4  UNL     1      21.969   0.564  52.801  1.00  0.00     0.035 C 
HETATM    5  P1  UNL     1      22.468   1.569  51.372  1.00  0.00     0.073 P 
HETATM    6  N1  UNL     1      21.154   1.837  50.186  1.00  0.00    -0.245 NA
HETATM    7  C5  UNL     1      20.799   3.064  49.997  1.00  0.00     0.234 A 
HETATM    8  N2  UNL     1      21.244   4.266  50.543  1.00  0.00    -0.224 NA
HETATM    9  C6  UNL     1      22.159   4.444  51.403  1.00  0.00     0.144 A 
HETATM   10  C13 UNL     1      22.887   3.295  51.925  1.00  0.00     0.062 A 
HETATM   11  C14 UNL     1      23.853   3.538  52.799  1.00  0.00     0.152 C 
HETATM   12  O2  UNL     1      24.296   2.244  53.046  1.00  0.00    -0.362 OA
HETATM   13  C15 UNL     1      25.648   1.851  52.713  1.00  0.00     0.181 C 
HETATM   14  C16 UNL     1      25.670   0.386  52.371  1.00  0.00     0.091 C 
ENDROOT
BRANCH   9  15
HETATM   15  N3  UNL     1      22.423   5.785  51.801  1.00  0.00    -0.340 N 
HETATM   16  H6  UNL     1      22.285   5.991  52.816  1.00  0.00     0.167 HD
BRANCH  15  17
HETATM   17  C7  UNL     1      22.854   6.816  50.925  1.00  0.00     0.035 A 
HETATM   18  C8  UNL     1      24.228   6.967  50.693  1.00  0.00     0.029 A 
HETATM   19  C9  UNL     1      24.708   7.943  49.850  1.00  0.00     0.004 A 
HETATM   20  C10 UNL     1      23.888   8.818  49.192  1.00  0.00     0.019 A 
HETATM   21  C11 UNL     1      22.517   8.679  49.416  1.00  0.00     0.013 A 
HETATM   22 BR1  UNL     1      21.328   9.876  48.524  1.00  0.00    -0.051 Br
HETATM   23  C12 UNL     1      22.069   7.710  50.251  1.00  0.00     0.048 A 
ENDBRANCH  15  17
ENDBRANCH   9  15
BRANCH   1  24
HETATM   24  O1  UNL     1      26.362  -0.956  54.242  1.00  0.00    -0.365 OA
HETATM   25  H1  UNL     1      26.464  -0.748  55.231  1.00  0.00     0.217 HD
ENDBRANCH   1  24
TORSDOF 3
ENDMDL
