MODEL 1
REMARK VINA RESULT:      -7.8      0.000      0.000
REMARK  4 active torsions:
REMARK  status: ('A' for Active; 'I' for Inactive)
REMARK    1  A    between atoms: C1_2  and  C2_3 
REMARK       I    between atoms: C1_2  and  N1_11 
REMARK    2  A    between atoms: C2_3  and  C3_4 
REMARK    3  A    between atoms: N1_11  and  S1_12 
REMARK    4  A    between atoms: S1_12  and  C9_15 
ROOT
HETATM    1  O1  UNL     1      24.089   2.570  53.216  1.00  0.00    -0.272 OA
HETATM    2  C1  UNL     1      23.862   1.391  52.790  1.00  0.00     0.235 C 
HETATM    3  N1  UNL     1      23.295   1.306  51.496  1.00  0.00    -0.250 N 
HETATM    4  H7  UNL     1      23.065   0.385  51.045  1.00  0.00     0.181 HD
ENDROOT
BRANCH   3   5
HETATM    5  S1  UNL     1      23.033   2.856  50.765  1.00  0.00     0.265 S 
HETATM    6  O2  UNL     1      22.063   2.702  49.607  1.00  0.00    -0.200 OA
HETATM    7  O3  UNL     1      22.433   3.783  51.771  1.00  0.00    -0.200 OA
BRANCH   5   8
HETATM    8  C9  UNL     1      24.490   3.550  50.132  1.00  0.00     0.080 A 
HETATM    9  C10 UNL     1      24.448   4.816  49.544  1.00  0.00     0.027 A 
HETATM   10  C11 UNL     1      25.538   5.470  49.005  1.00  0.00     0.020 A 
HETATM   11  C12 UNL     1      26.760   4.821  49.054  1.00  0.00     0.011 A 
HETATM   12 BR1  UNL     1      28.250   5.730  48.312  1.00  0.00    -0.051 Br
HETATM   13  C13 UNL     1      26.838   3.569  49.629  1.00  0.00     0.020 A 
HETATM   14  C14 UNL     1      25.734   2.921  50.167  1.00  0.00     0.027 A 
ENDBRANCH   5   8
ENDBRANCH   3   5
BRANCH   2  15
HETATM   15  C2  UNL     1      24.155   0.150  53.565  1.00  0.00     0.142 C 
BRANCH  15  16
HETATM   16  C3  UNL     1      25.625  -0.073  53.606  1.00  0.00    -0.049 A 
HETATM   17  C4  UNL     1      26.376   0.544  54.594  1.00  0.00     0.009 A 
HETATM   18  C5  UNL     1      27.749   0.340  54.638  1.00  0.00     0.024 A 
HETATM   19  C6  UNL     1      28.287  -0.482  53.670  1.00  0.00     0.034 A 
HETATM   20 CL1  UNL     1      30.026  -0.765  53.695  1.00  0.00    -0.084 Cl
HETATM   21  C7  UNL     1      27.569  -1.113  52.671  1.00  0.00     0.024 A 
HETATM   22  C8  UNL     1      26.207  -0.891  52.654  1.00  0.00     0.009 A 
ENDBRANCH  15  16
ENDBRANCH   2  15
TORSDOF 4
ENDMDL
MODEL 2
REMARK VINA RESULT:      -7.7      0.585      1.144
REMARK  4 active torsions:
REMARK  status: ('A' for Active; 'I' for Inactive)
REMARK    1  A    between atoms: C1_2  and  C2_3 
REMARK       I    between atoms: C1_2  and  N1_11 
REMARK    2  A    between atoms: C2_3  and  C3_4 
REMARK    3  A    between atoms: N1_11  and  S1_12 
REMARK    4  A    between atoms: S1_12  and  C9_15 
ROOT
HETATM    1  O1  UNL     1      24.126   3.069  52.914  1.00  0.00    -0.272 OA
HETATM    2  C1  UNL     1      23.771   1.911  52.521  1.00  0.00     0.235 C 
HETATM    3  N1  UNL     1      23.182   1.855  51.235  1.00  0.00    -0.250 N 
HETATM    4  H7  UNL     1      22.851   0.952  50.810  1.00  0.00     0.181 HD
ENDROOT
BRANCH   3   5
HETATM    5  S1  UNL     1      23.075   3.406  50.468  1.00  0.00     0.265 S 
HETATM    6  O2  UNL     1      22.143   3.306  49.273  1.00  0.00    -0.200 OA
HETATM    7  O3  UNL     1      22.511   4.398  51.432  1.00  0.00    -0.200 OA
BRANCH   5   8
HETATM    8  C9  UNL     1      24.606   3.969  49.884  1.00  0.00     0.080 A 
HETATM    9  C10 UNL     1      24.727   5.284  49.430  1.00  0.00     0.027 A 
HETATM   10  C11 UNL     1      25.891   5.845  48.942  1.00  0.00     0.020 A 
HETATM   11  C12 UNL     1      27.018   5.043  48.904  1.00  0.00     0.011 A 
HETATM   12 BR1  UNL     1      28.611   5.825  48.234  1.00  0.00    -0.051 Br
HETATM   13  C13 UNL     1      26.936   3.739  49.346  1.00  0.00     0.020 A 
HETATM   14  C14 UNL     1      25.759   3.185  49.834  1.00  0.00     0.027 A 
ENDBRANCH   5   8
ENDBRANCH   3   5
BRANCH   2  15
HETATM   15  C2  UNL     1      23.942   0.665  53.324  1.00  0.00     0.142 C 
BRANCH  15  16
HETATM   16  C3  UNL     1      25.390   0.337  53.426  1.00  0.00    -0.049 A 
HETATM   17  C4  UNL     1      26.104   0.064  52.270  1.00  0.00     0.009 A 
HETATM   18  C5  UNL     1      27.455  -0.243  52.357  1.00  0.00     0.024 A 
HETATM   19  C6  UNL     1      28.010  -0.257  53.620  1.00  0.00     0.034 A 
HETATM   20 CL1  UNL     1      29.723  -0.641  53.769  1.00  0.00    -0.084 Cl
HETATM   21  C7  UNL     1      27.328   0.011  54.793  1.00  0.00     0.024 A 
HETATM   22  C8  UNL     1      25.987   0.312  54.672  1.00  0.00     0.009 A 
ENDBRANCH  15  16
ENDBRANCH   2  15
TORSDOF 4
ENDMDL
MODEL 3
REMARK VINA RESULT:      -7.5      4.430      6.810
REMARK  4 active torsions:
REMARK  status: ('A' for Active; 'I' for Inactive)
REMARK    1  A    between atoms: C1_2  and  C2_3 
REMARK       I    between atoms: C1_2  and  N1_11 
REMARK    2  A    between atoms: C2_3  and  C3_4 
REMARK    3  A    between atoms: N1_11  and  S1_12 
REMARK    4  A    between atoms: S1_12  and  C9_15 
ROOT
HETATM    1  O1  UNL     1      26.399  -0.040  51.918  1.00  0.00    -0.272 OA
HETATM    2  C1  UNL     1      26.561   1.043  52.569  1.00  0.00     0.235 C 
HETATM    3  N1  UNL     1      26.133   1.016  53.917  1.00  0.00    -0.250 N 
HETATM    4  H7  UNL     1      26.218   1.853  54.548  1.00  0.00     0.181 HD
ENDROOT
BRANCH   3   5
HETATM    5  S1  UNL     1      25.472  -0.515  54.391  1.00  0.00     0.265 S 
HETATM    6  O2  UNL     1      26.117  -1.612  53.562  1.00  0.00    -0.200 OA
HETATM    7  O3  UNL     1      25.779  -0.763  55.832  1.00  0.00    -0.200 OA
BRANCH   5   8
HETATM    8  C9  UNL     1      23.761  -0.611  54.136  1.00  0.00     0.080 A 
HETATM    9  C10 UNL     1      23.206  -0.039  52.989  1.00  0.00     0.027 A 
HETATM   10  C11 UNL     1      21.860  -0.050  52.676  1.00  0.00     0.020 A 
HETATM   11  C12 UNL     1      21.004  -0.675  53.566  1.00  0.00     0.011 A 
HETATM   12 BR1  UNL     1      19.160  -0.685  53.125  1.00  0.00    -0.051 Br
HETATM   13  C13 UNL     1      21.519  -1.252  54.708  1.00  0.00     0.020 A 
HETATM   14  C14 UNL     1      22.874  -1.234  55.013  1.00  0.00     0.027 A 
ENDBRANCH   5   8
ENDBRANCH   3   5
BRANCH   2  15
HETATM   15  C2  UNL     1      27.156   2.285  51.994  1.00  0.00     0.142 C 
BRANCH  15  16
HETATM   16  C3  UNL     1      26.177   2.921  51.071  1.00  0.00    -0.049 A 
HETATM   17  C4  UNL     1      24.821   2.782  51.321  1.00  0.00     0.009 A 
HETATM   18  C5  UNL     1      23.902   3.373  50.465  1.00  0.00     0.024 A 
HETATM   19  C6  UNL     1      24.413   4.077  49.394  1.00  0.00     0.034 A 
HETATM   20 CL1  UNL     1      23.277   4.842  48.287  1.00  0.00    -0.084 Cl
HETATM   21  C7  UNL     1      25.758   4.237  49.115  1.00  0.00     0.024 A 
HETATM   22  C8  UNL     1      26.645   3.637  49.985  1.00  0.00     0.009 A 
ENDBRANCH  15  16
ENDBRANCH   2  15
TORSDOF 4
ENDMDL
MODEL 4
REMARK VINA RESULT:      -7.4      1.588      2.112
REMARK  4 active torsions:
REMARK  status: ('A' for Active; 'I' for Inactive)
REMARK    1  A    between atoms: C1_2  and  C2_3 
REMARK       I    between atoms: C1_2  and  N1_11 
REMARK    2  A    between atoms: C2_3  and  C3_4 
REMARK    3  A    between atoms: N1_11  and  S1_12 
REMARK    4  A    between atoms: S1_12  and  C9_15 
ROOT
HETATM    1  O1  UNL     1      23.340   1.875  50.899  1.00  0.00    -0.272 OA
HETATM    2  C1  UNL     1      24.107   2.301  51.822  1.00  0.00     0.235 C 
HETATM    3  N1  UNL     1      24.836   3.476  51.520  1.00  0.00    -0.250 N 
HETATM    4  H7  UNL     1      25.499   3.916  52.207  1.00  0.00     0.181 HD
ENDROOT
BRANCH   3   5
HETATM    5  S1  UNL     1      24.514   4.086  49.929  1.00  0.00     0.265 S 
HETATM    6  O2  UNL     1      24.177   2.924  49.011  1.00  0.00    -0.200 OA
HETATM    7  O3  UNL     1      23.342   5.010  49.980  1.00  0.00    -0.200 OA
BRANCH   5   8
HETATM    8  C9  UNL     1      25.875   4.909  49.243  1.00  0.00     0.080 A 
HETATM    9  C10 UNL     1      25.733   6.231  48.815  1.00  0.00     0.027 A 
HETATM   10  C11 UNL     1      26.741   6.990  48.253  1.00  0.00     0.020 A 
HETATM   11  C12 UNL     1      27.981   6.394  48.106  1.00  0.00     0.011 A 
HETATM   12 BR1  UNL     1      29.358   7.445  47.335  1.00  0.00    -0.051 Br
HETATM   13  C13 UNL     1      28.158   5.089  48.519  1.00  0.00     0.020 A 
HETATM   14  C14 UNL     1      27.136   4.336  49.082  1.00  0.00     0.027 A 
ENDBRANCH   5   8
ENDBRANCH   3   5
BRANCH   2  15
HETATM   15  C2  UNL     1      24.264   1.641  53.151  1.00  0.00     0.142 C 
BRANCH  15  16
HETATM   16  C3  UNL     1      25.594   0.977  53.220  1.00  0.00    -0.049 A 
HETATM   17  C4  UNL     1      25.847  -0.118  52.411  1.00  0.00     0.009 A 
HETATM   18  C5  UNL     1      27.086  -0.742  52.470  1.00  0.00     0.024 A 
HETATM   19  C6  UNL     1      28.006  -0.216  53.353  1.00  0.00     0.034 A 
HETATM   20 CL1  UNL     1      29.589  -0.980  53.455  1.00  0.00    -0.084 Cl
HETATM   21  C7  UNL     1      27.788   0.875  54.175  1.00  0.00     0.024 A 
HETATM   22  C8  UNL     1      26.547   1.472  54.092  1.00  0.00     0.009 A 
ENDBRANCH  15  16
ENDBRANCH   2  15
TORSDOF 4
ENDMDL
MODEL 5
REMARK VINA RESULT:      -6.9      1.409      2.377
REMARK  4 active torsions:
REMARK  status: ('A' for Active; 'I' for Inactive)
REMARK    1  A    between atoms: C1_2  and  C2_3 
REMARK       I    between atoms: C1_2  and  N1_11 
REMARK    2  A    between atoms: C2_3  and  C3_4 
REMARK    3  A    between atoms: N1_11  and  S1_12 
REMARK    4  A    between atoms: S1_12  and  C9_15 
ROOT
HETATM    1  O1  UNL     1      22.095   3.469  51.580  1.00  0.00    -0.272 OA
HETATM    2  C1  UNL     1      22.473   2.255  51.646  1.00  0.00     0.235 C 
HETATM    3  N1  UNL     1      22.731   1.625  50.405  1.00  0.00    -0.250 N 
HETATM    4  H7  UNL     1      23.048   0.625  50.340  1.00  0.00     0.181 HD
ENDROOT
BRANCH   3   5
HETATM    5  S1  UNL     1      22.469   2.669  49.046  1.00  0.00     0.265 S 
HETATM    6  O2  UNL     1      22.566   1.854  47.768  1.00  0.00    -0.200 OA
HETATM    7  O3  UNL     1      21.100   3.261  49.132  1.00  0.00    -0.200 OA
BRANCH   5   8
HETATM    8  C9  UNL     1      23.645   3.937  48.942  1.00  0.00     0.080 A 
HETATM    9  C10 UNL     1      24.956   3.693  49.359  1.00  0.00     0.027 A 
HETATM   10  C11 UNL     1      25.979   4.620  49.326  1.00  0.00     0.020 A 
HETATM   11  C12 UNL     1      25.680   5.882  48.841  1.00  0.00     0.011 A 
HETATM   12 BR1  UNL     1      27.092   7.146  48.799  1.00  0.00    -0.051 Br
HETATM   13  C13 UNL     1      24.396   6.158  48.419  1.00  0.00     0.020 A 
HETATM   14  C14 UNL     1      23.374   5.217  48.458  1.00  0.00     0.027 A 
ENDBRANCH   5   8
ENDBRANCH   3   5
BRANCH   2  15
HETATM   15  C2  UNL     1      22.649   1.501  52.921  1.00  0.00     0.142 C 
BRANCH  15  16
HETATM   16  C3  UNL     1      24.086   1.157  53.099  1.00  0.00    -0.049 A 
HETATM   17  C4  UNL     1      24.458  -0.175  53.182  1.00  0.00     0.009 A 
HETATM   18  C5  UNL     1      25.797  -0.503  53.347  1.00  0.00     0.024 A 
HETATM   19  C6  UNL     1      26.690   0.545  53.421  1.00  0.00     0.034 A 
HETATM   20 CL1  UNL     1      28.397   0.168  53.630  1.00  0.00    -0.084 Cl
HETATM   21  C7  UNL     1      26.354   1.885  53.342  1.00  0.00     0.024 A 
HETATM   22  C8  UNL     1      25.016   2.178  53.178  1.00  0.00     0.009 A 
ENDBRANCH  15  16
ENDBRANCH   2  15
TORSDOF 4
ENDMDL
MODEL 6
REMARK VINA RESULT:      -6.9      3.327      4.273
REMARK  4 active torsions:
REMARK  status: ('A' for Active; 'I' for Inactive)
REMARK    1  A    between atoms: C1_2  and  C2_3 
REMARK       I    between atoms: C1_2  and  N1_11 
REMARK    2  A    between atoms: C2_3  and  C3_4 
REMARK    3  A    between atoms: N1_11  and  S1_12 
REMARK    4  A    between atoms: S1_12  and  C9_15 
ROOT
HETATM    1  O1  UNL     1      22.041   4.076  50.419  1.00  0.00    -0.272 OA
HETATM    2  C1  UNL     1      22.672   3.140  49.830  1.00  0.00     0.235 C 
HETATM    3  N1  UNL     1      23.935   3.493  49.299  1.00  0.00    -0.250 N 
HETATM    4  H7  UNL     1      24.543   2.800  48.792  1.00  0.00     0.181 HD
ENDROOT
BRANCH   3   5
HETATM    5  S1  UNL     1      24.350   5.154  49.576  1.00  0.00     0.265 S 
HETATM    6  O2  UNL     1      23.362   6.041  48.839  1.00  0.00    -0.200 OA
HETATM    7  O3  UNL     1      24.261   5.450  51.037  1.00  0.00    -0.200 OA
BRANCH   5   8
HETATM    8  C9  UNL     1      25.934   5.551  48.997  1.00  0.00     0.080 A 
HETATM    9  C10 UNL     1      26.189   6.840  48.526  1.00  0.00     0.027 A 
HETATM   10  C11 UNL     1      27.407   7.275  48.040  1.00  0.00     0.020 A 
HETATM   11  C12 UNL     1      28.448   6.363  48.021  1.00  0.00     0.011 A 
HETATM   12 BR1  UNL     1      30.116   6.972  47.354  1.00  0.00    -0.051 Br
HETATM   13  C13 UNL     1      28.232   5.080  48.480  1.00  0.00     0.020 A 
HETATM   14  C14 UNL     1      27.002   4.655  48.967  1.00  0.00     0.027 A 
ENDBRANCH   5   8
ENDBRANCH   3   5
BRANCH   2  15
HETATM   15  C2  UNL     1      22.157   1.747  49.682  1.00  0.00     0.142 C 
BRANCH  15  16
HETATM   16  C3  UNL     1      22.091   1.100  51.021  1.00  0.00    -0.049 A 
HETATM   17  C4  UNL     1      23.207   1.127  51.842  1.00  0.00     0.009 A 
HETATM   18  C5  UNL     1      23.153   0.526  53.091  1.00  0.00     0.024 A 
HETATM   19  C6  UNL     1      21.961  -0.075  53.442  1.00  0.00     0.034 A 
HETATM   20 CL1  UNL     1      21.854  -0.848  55.021  1.00  0.00    -0.084 Cl
HETATM   21  C7  UNL     1      20.829  -0.121  52.649  1.00  0.00     0.024 A 
HETATM   22  C8  UNL     1      20.916   0.486  51.413  1.00  0.00     0.009 A 
ENDBRANCH  15  16
ENDBRANCH   2  15
TORSDOF 4
ENDMDL
MODEL 7
REMARK VINA RESULT:      -6.9      1.897      2.570
REMARK  4 active torsions:
REMARK  status: ('A' for Active; 'I' for Inactive)
REMARK    1  A    between atoms: C1_2  and  C2_3 
REMARK       I    between atoms: C1_2  and  N1_11 
REMARK    2  A    between atoms: C2_3  and  C3_4 
REMARK    3  A    between atoms: N1_11  and  S1_12 
REMARK    4  A    between atoms: S1_12  and  C9_15 
ROOT
HETATM    1  O1  UNL     1      23.124   4.758  52.043  1.00  0.00    -0.272 OA
HETATM    2  C1  UNL     1      22.707   3.644  51.589  1.00  0.00     0.235 C 
HETATM    3  N1  UNL     1      22.580   3.564  50.182  1.00  0.00    -0.250 N 
HETATM    4  H7  UNL     1      22.244   2.693  49.698  1.00  0.00     0.181 HD
ENDROOT
BRANCH   3   5
HETATM    5  S1  UNL     1      23.032   5.030  49.374  1.00  0.00     0.265 S 
HETATM    6  O2  UNL     1      22.353   5.079  48.017  1.00  0.00    -0.200 OA
HETATM    7  O3  UNL     1      22.574   6.201  50.180  1.00  0.00    -0.200 OA
BRANCH   5   8
HETATM    8  C9  UNL     1      24.739   5.143  49.103  1.00  0.00     0.080 A 
HETATM    9  C10 UNL     1      25.269   6.306  48.538  1.00  0.00     0.027 A 
HETATM   10  C11 UNL     1      26.609   6.513  48.273  1.00  0.00     0.020 A 
HETATM   11  C12 UNL     1      27.487   5.493  48.594  1.00  0.00     0.011 A 
HETATM   12 BR1  UNL     1      29.324   5.789  48.228  1.00  0.00    -0.051 Br
HETATM   13  C13 UNL     1      26.999   4.331  49.155  1.00  0.00     0.020 A 
HETATM   14  C14 UNL     1      25.649   4.133  49.416  1.00  0.00     0.027 A 
ENDBRANCH   5   8
ENDBRANCH   3   5
BRANCH   2  15
HETATM   15  C2  UNL     1      22.360   2.470  52.442  1.00  0.00     0.142 C 
BRANCH  15  16
HETATM   16  C3  UNL     1      23.538   1.567  52.544  1.00  0.00    -0.049 A 
HETATM   17  C4  UNL     1      23.435   0.399  53.283  1.00  0.00     0.009 A 
HETATM   18  C5  UNL     1      24.530  -0.448  53.382  1.00  0.00     0.024 A 
HETATM   19  C6  UNL     1      25.678  -0.061  52.721  1.00  0.00     0.034 A 
HETATM   20 CL1  UNL     1      27.088  -1.112  52.823  1.00  0.00    -0.084 Cl
HETATM   21  C7  UNL     1      25.816   1.095  51.975  1.00  0.00     0.024 A 
HETATM   22  C8  UNL     1      24.710   1.916  51.897  1.00  0.00     0.009 A 
ENDBRANCH  15  16
ENDBRANCH   2  15
TORSDOF 4
ENDMDL
MODEL 8
REMARK VINA RESULT:      -6.8      3.347      6.294
REMARK  4 active torsions:
REMARK  status: ('A' for Active; 'I' for Inactive)
REMARK    1  A    between atoms: C1_2  and  C2_3 
REMARK       I    between atoms: C1_2  and  N1_11 
REMARK    2  A    between atoms: C2_3  and  C3_4 
REMARK    3  A    between atoms: N1_11  and  S1_12 
REMARK    4  A    between atoms: S1_12  and  C9_15 
ROOT
HETATM    1  O1  UNL     1      22.727   3.909  51.068  1.00  0.00    -0.272 OA
HETATM    2  C1  UNL     1      23.765   4.593  51.343  1.00  0.00     0.235 C 
HETATM    3  N1  UNL     1      24.828   3.877  51.943  1.00  0.00    -0.250 N 
HETATM    4  H7  UNL     1      25.733   4.341  52.213  1.00  0.00     0.181 HD
ENDROOT
BRANCH   3   5
HETATM    5  S1  UNL     1      24.472   2.196  52.173  1.00  0.00     0.265 S 
HETATM    6  O2  UNL     1      23.490   2.050  53.322  1.00  0.00    -0.200 OA
HETATM    7  O3  UNL     1      23.845   1.649  50.934  1.00  0.00    -0.200 OA
BRANCH   5   8
HETATM    8  C9  UNL     1      25.878   1.266  52.573  1.00  0.00     0.080 A 
HETATM    9  C10 UNL     1      27.088   1.920  52.814  1.00  0.00     0.027 A 
HETATM   10  C11 UNL     1      28.274   1.289  53.140  1.00  0.00     0.020 A 
HETATM   11  C12 UNL     1      28.256  -0.092  53.234  1.00  0.00     0.011 A 
HETATM   12 BR1  UNL     1      29.888  -0.946  53.683  1.00  0.00    -0.051 Br
HETATM   13  C13 UNL     1      27.077  -0.770  53.003  1.00  0.00     0.020 A 
HETATM   14  C14 UNL     1      25.891  -0.125  52.676  1.00  0.00     0.027 A 
ENDBRANCH   5   8
ENDBRANCH   3   5
BRANCH   2  15
HETATM   15  C2  UNL     1      23.902   6.054  51.071  1.00  0.00     0.142 C 
BRANCH  15  16
HETATM   16  C3  UNL     1      25.106   6.290  50.230  1.00  0.00    -0.049 A 
HETATM   17  C4  UNL     1      25.732   7.525  50.276  1.00  0.00     0.009 A 
HETATM   18  C5  UNL     1      26.856   7.753  49.494  1.00  0.00     0.024 A 
HETATM   19  C6  UNL     1      27.286   6.708  48.702  1.00  0.00     0.034 A 
HETATM   20 CL1  UNL     1      28.710   6.959  47.697  1.00  0.00    -0.084 Cl
HETATM   21  C7  UNL     1      26.686   5.463  48.632  1.00  0.00     0.024 A 
HETATM   22  C8  UNL     1      25.571   5.269  49.421  1.00  0.00     0.009 A 
ENDBRANCH  15  16
ENDBRANCH   2  15
TORSDOF 4
ENDMDL
MODEL 9
REMARK VINA RESULT:      -6.6      3.513      6.307
REMARK  4 active torsions:
REMARK  status: ('A' for Active; 'I' for Inactive)
REMARK    1  A    between atoms: C1_2  and  C2_3 
REMARK       I    between atoms: C1_2  and  N1_11 
REMARK    2  A    between atoms: C2_3  and  C3_4 
REMARK    3  A    between atoms: N1_11  and  S1_12 
REMARK    4  A    between atoms: S1_12  and  C9_15 
ROOT
HETATM    1  O1  UNL     1      22.147   1.368  49.544  1.00  0.00    -0.272 OA
HETATM    2  C1  UNL     1      21.887   2.605  49.388  1.00  0.00     0.235 C 
HETATM    3  N1  UNL     1      21.241   3.238  50.476  1.00  0.00    -0.250 N 
HETATM    4  H7  UNL     1      20.978   4.256  50.456  1.00  0.00     0.181 HD
ENDROOT
BRANCH   3   5
HETATM    5  S1  UNL     1      20.941   2.166  51.805  1.00  0.00     0.265 S 
HETATM    6  O2  UNL     1      20.238   2.933  52.912  1.00  0.00    -0.200 OA
HETATM    7  O3  UNL     1      20.053   1.054  51.355  1.00  0.00    -0.200 OA
BRANCH   5   8
HETATM    8  C9  UNL     1      22.399   1.512  52.475  1.00  0.00     0.080 A 
HETATM    9  C10 UNL     1      23.509   2.341  52.645  1.00  0.00     0.027 A 
HETATM   10  C11 UNL     1      24.723   1.937  53.166  1.00  0.00     0.020 A 
HETATM   11  C12 UNL     1      24.843   0.612  53.548  1.00  0.00     0.011 A 
HETATM   12 BR1  UNL     1      26.513   0.068  54.263  1.00  0.00    -0.051 Br
HETATM   13  C13 UNL     1      23.765  -0.236  53.395  1.00  0.00     0.020 A 
HETATM   14  C14 UNL     1      22.549   0.182  52.869  1.00  0.00     0.027 A 
ENDBRANCH   5   8
ENDBRANCH   3   5
BRANCH   2  15
HETATM   15  C2  UNL     1      22.221   3.382  48.158  1.00  0.00     0.142 C 
BRANCH  15  16
HETATM   16  C3  UNL     1      23.312   4.347  48.463  1.00  0.00    -0.049 A 
HETATM   17  C4  UNL     1      23.205   5.653  48.015  1.00  0.00     0.009 A 
HETATM   18  C5  UNL     1      24.218   6.559  48.296  1.00  0.00     0.024 A 
HETATM   19  C6  UNL     1      25.292   6.086  49.022  1.00  0.00     0.034 A 
HETATM   20 CL1  UNL     1      26.597   7.207  49.399  1.00  0.00    -0.084 Cl
HETATM   21  C7  UNL     1      25.432   4.790  49.485  1.00  0.00     0.024 A 
HETATM   22  C8  UNL     1      24.407   3.915  49.189  1.00  0.00     0.009 A 
ENDBRANCH  15  16
ENDBRANCH   2  15
TORSDOF 4
ENDMDL
