MODEL 1
REMARK VINA RESULT:      -8.0      0.000      0.000
REMARK  8 active torsions:
REMARK  status: ('A' for Active; 'I' for Inactive)
REMARK    1  A    between atoms: C2_2  and  C3_4 
REMARK    2  A    between atoms: C4_5  and  C5_6 
REMARK    3  A    between atoms: C6_7  and  N1_8 
REMARK    4  A    between atoms: N1_8  and  C7_9 
REMARK    5  A    between atoms: C12_16  and  N4_17 
REMARK       I    between atoms: N4_17  and  C13_18 
REMARK    6  A    between atoms: C13_18  and  C14_20 
REMARK    7  A    between atoms: C15_21  and  C16_22 
REMARK    8  A    between atoms: C16_22  and  C17_23 
ROOT
HETATM    1  C7  UNL     1      23.176  -0.468  53.668  1.00  0.00     0.141 A 
HETATM    2  N2  UNL     1      22.622  -1.235  54.627  1.00  0.00    -0.224 NA
HETATM    3  C8  UNL     1      21.273  -1.430  54.563  1.00  0.00     0.236 A 
HETATM    4  N3  UNL     1      20.536  -0.877  53.581  1.00  0.00    -0.241 NA
HETATM    5  C9  UNL     1      21.095  -0.110  52.622  1.00  0.00     0.072 A 
HETATM    6  C10 UNL     1      20.336   0.444  51.635  1.00  0.00     0.035 A 
HETATM    7  C11 UNL     1      20.933   1.237  50.651  1.00  0.00     0.032 A 
HETATM    8  C12 UNL     1      22.314   1.444  50.706  1.00  0.00     0.036 A 
HETATM    9  C20 UNL     1      23.083   0.885  51.704  1.00  0.00     0.047 A 
HETATM   10  C21 UNL     1      22.456   0.109  52.657  1.00  0.00     0.041 A 
ENDROOT
BRANCH   8  11
HETATM   11  N4  UNL     1      22.836   2.264  49.664  1.00  0.00    -0.324 N 
HETATM   12  C13 UNL     1      22.625   3.666  49.936  1.00  0.00     0.245 C 
HETATM   13  O1  UNL     1      22.027   3.788  51.037  1.00  0.00    -0.268 OA
HETATM   14  H11 UNL     1      23.332   1.987  48.765  1.00  0.00     0.169 HD
BRANCH  12  15
HETATM   15  C14 UNL     1      23.059   4.723  49.038  1.00  0.00     0.070 C 
HETATM   16  C15 UNL     1      24.228   5.335  49.033  1.00  0.00    -0.021 C 
BRANCH  16  17
HETATM   17  C16 UNL     1      25.400   5.128  49.917  1.00  0.00     0.031 C 
BRANCH  17  18
HETATM   18  C17 UNL     1      26.244   4.019  49.322  1.00  0.00    -0.019 C 
HETATM   19  C18 UNL     1      27.513   4.657  48.784  1.00  0.00     0.010 C 
HETATM   20  C19 UNL     1      26.550   3.005  50.390  1.00  0.00     0.010 C 
ENDBRANCH  17  18
ENDBRANCH  16  17
ENDBRANCH  12  15
ENDBRANCH   8  11
BRANCH   1  21
HETATM   21  N1  UNL     1      24.565  -0.275  53.746  1.00  0.00    -0.350 N 
HETATM   22  H7  UNL     1      25.285   0.001  53.079  1.00  0.00     0.166 HD
BRANCH  21  23
HETATM   23  C6  UNL     1      25.234  -0.481  54.991  1.00  0.00     0.090 C 
HETATM   24  C5  UNL     1      26.387   0.167  55.001  1.00  0.00     0.017 C 
BRANCH  24  25
HETATM   25  C4  UNL     1      26.681   0.904  53.789  1.00  0.00     0.004 C 
HETATM   26  C3  UNL     1      27.817   0.727  53.142  1.00  0.00     0.036 C 
BRANCH  26  27
HETATM   27  C2  UNL     1      28.988  -0.111  53.348  1.00  0.00     0.077 A 
HETATM   28  C1  UNL     1      29.896  -1.064  53.444  1.00  0.00     0.250 A 
HETATM   29  F1  UNL     1      30.199   0.328  53.827  1.00  0.00    -0.367 F 
ENDBRANCH  26  27
ENDBRANCH  24  25
ENDBRANCH  21  23
ENDBRANCH   1  21
TORSDOF 8
ENDMDL
MODEL 2
REMARK VINA RESULT:      -7.9      1.678      1.900
REMARK  8 active torsions:
REMARK  status: ('A' for Active; 'I' for Inactive)
REMARK    1  A    between atoms: C2_2  and  C3_4 
REMARK    2  A    between atoms: C4_5  and  C5_6 
REMARK    3  A    between atoms: C6_7  and  N1_8 
REMARK    4  A    between atoms: N1_8  and  C7_9 
REMARK    5  A    between atoms: C12_16  and  N4_17 
REMARK       I    between atoms: N4_17  and  C13_18 
REMARK    6  A    between atoms: C13_18  and  C14_20 
REMARK    7  A    between atoms: C15_21  and  C16_22 
REMARK    8  A    between atoms: C16_22  and  C17_23 
ROOT
HETATM    1  C7  UNL     1      23.123   0.210  53.399  1.00  0.00     0.141 A 
HETATM    2  N2  UNL     1      22.598  -0.762  54.170  1.00  0.00    -0.224 NA
HETATM    3  C8  UNL     1      21.262  -0.687  54.436  1.00  0.00     0.236 A 
HETATM    4  N3  UNL     1      20.509   0.317  53.946  1.00  0.00    -0.241 NA
HETATM    5  C9  UNL     1      21.039   1.288  53.175  1.00  0.00     0.072 A 
HETATM    6  C10 UNL     1      20.266   2.298  52.687  1.00  0.00     0.035 A 
HETATM    7  C11 UNL     1      20.833   3.296  51.890  1.00  0.00     0.032 A 
HETATM    8  C12 UNL     1      22.201   3.231  51.610  1.00  0.00     0.036 A 
HETATM    9  C20 UNL     1      22.985   2.210  52.103  1.00  0.00     0.047 A 
HETATM   10  C21 UNL     1      22.387   1.245  52.886  1.00  0.00     0.041 A 
ENDROOT
BRANCH   8  11
HETATM   11  N4  UNL     1      22.693   4.288  50.792  1.00  0.00    -0.324 N 
HETATM   12  C13 UNL     1      23.502   5.213  51.549  1.00  0.00     0.245 C 
HETATM   13  O1  UNL     1      23.556   4.830  52.747  1.00  0.00    -0.268 OA
HETATM   14  H11 UNL     1      22.546   4.469  49.754  1.00  0.00     0.169 HD
BRANCH  12  15
HETATM   15  C14 UNL     1      24.130   6.385  50.961  1.00  0.00     0.070 C 
HETATM   16  C15 UNL     1      24.869   6.429  49.869  1.00  0.00    -0.021 C 
BRANCH  16  17
HETATM   17  C16 UNL     1      25.260   5.330  48.954  1.00  0.00     0.031 C 
BRANCH  17  18
HETATM   18  C17 UNL     1      26.515   4.685  49.508  1.00  0.00    -0.019 C 
HETATM   19  C18 UNL     1      26.261   3.190  49.577  1.00  0.00     0.010 C 
HETATM   20  C19 UNL     1      27.673   5.004  48.604  1.00  0.00     0.010 C 
ENDBRANCH  17  18
ENDBRANCH  16  17
ENDBRANCH  12  15
ENDBRANCH   8  11
BRANCH   1  21
HETATM   21  N1  UNL     1      24.500   0.123  53.133  1.00  0.00    -0.350 N 
HETATM   22  H7  UNL     1      25.133   0.597  52.490  1.00  0.00     0.166 HD
BRANCH  21  23
HETATM   23  C6  UNL     1      25.298  -0.807  53.865  1.00  0.00     0.090 C 
HETATM   24  C5  UNL     1      26.523  -0.846  53.366  1.00  0.00     0.017 C 
BRANCH  24  25
HETATM   25  C4  UNL     1      26.749   0.034  52.239  1.00  0.00     0.004 C 
HETATM   26  C3  UNL     1      27.573   1.059  52.328  1.00  0.00     0.036 C 
BRANCH  26  27
HETATM   27  C2  UNL     1      28.414   1.604  53.384  1.00  0.00     0.077 A 
HETATM   28  C1  UNL     1      29.297   1.864  54.330  1.00  0.00     0.250 A 
HETATM   29  F1  UNL     1      28.288   2.861  53.925  1.00  0.00    -0.367 F 
ENDBRANCH  26  27
ENDBRANCH  24  25
ENDBRANCH  21  23
ENDBRANCH   1  21
TORSDOF 8
ENDMDL
MODEL 3
REMARK VINA RESULT:      -7.8      1.966      2.750
REMARK  8 active torsions:
REMARK  status: ('A' for Active; 'I' for Inactive)
REMARK    1  A    between atoms: C2_2  and  C3_4 
REMARK    2  A    between atoms: C4_5  and  C5_6 
REMARK    3  A    between atoms: C6_7  and  N1_8 
REMARK    4  A    between atoms: N1_8  and  C7_9 
REMARK    5  A    between atoms: C12_16  and  N4_17 
REMARK       I    between atoms: N4_17  and  C13_18 
REMARK    6  A    between atoms: C13_18  and  C14_20 
REMARK    7  A    between atoms: C15_21  and  C16_22 
REMARK    8  A    between atoms: C16_22  and  C17_23 
ROOT
HETATM    1  C7  UNL     1      22.622   0.478  52.921  1.00  0.00     0.141 A 
HETATM    2  N2  UNL     1      21.435  -0.045  53.285  1.00  0.00    -0.224 NA
HETATM    3  C8  UNL     1      20.341   0.763  53.171  1.00  0.00     0.236 A 
HETATM    4  N3  UNL     1      20.452   2.025  52.713  1.00  0.00    -0.241 NA
HETATM    5  C9  UNL     1      21.642   2.544  52.350  1.00  0.00     0.072 A 
HETATM    6  C10 UNL     1      21.740   3.823  51.890  1.00  0.00     0.035 A 
HETATM    7  C11 UNL     1      22.982   4.344  51.518  1.00  0.00     0.032 A 
HETATM    8  C12 UNL     1      24.110   3.527  51.631  1.00  0.00     0.036 A 
HETATM    9  C20 UNL     1      24.014   2.233  52.096  1.00  0.00     0.047 A 
HETATM   10  C21 UNL     1      22.770   1.757  52.453  1.00  0.00     0.041 A 
ENDROOT
BRANCH   8  11
HETATM   11  N4  UNL     1      25.333   4.140  51.231  1.00  0.00    -0.324 N 
HETATM   12  C13 UNL     1      25.609   3.909  49.832  1.00  0.00     0.245 C 
HETATM   13  O1  UNL     1      24.682   3.218  49.336  1.00  0.00    -0.268 OA
HETATM   14  H11 UNL     1      26.024   4.711  51.801  1.00  0.00     0.169 HD
BRANCH  12  15
HETATM   15  C14 UNL     1      26.792   4.423  49.162  1.00  0.00     0.070 C 
HETATM   16  C15 UNL     1      26.963   5.631  48.662  1.00  0.00    -0.021 C 
BRANCH  16  17
HETATM   17  C16 UNL     1      26.026   6.780  48.641  1.00  0.00     0.031 C 
BRANCH  17  18
HETATM   18  C17 UNL     1      26.032   7.414  50.018  1.00  0.00    -0.019 C 
HETATM   19  C18 UNL     1      26.845   8.692  49.923  1.00  0.00     0.010 C 
HETATM   20  C19 UNL     1      24.615   7.695  50.436  1.00  0.00     0.010 C 
ENDBRANCH  17  18
ENDBRANCH  16  17
ENDBRANCH  12  15
ENDBRANCH   8  11
BRANCH   1  21
HETATM   21  N1  UNL     1      23.740  -0.363  53.043  1.00  0.00    -0.350 N 
HETATM   22  H7  UNL     1      24.314  -0.887  52.383  1.00  0.00     0.166 HD
BRANCH  21  23
HETATM   23  C6  UNL     1      24.288  -0.618  54.337  1.00  0.00     0.090 C 
HETATM   24  C5  UNL     1      25.584  -0.862  54.242  1.00  0.00     0.017 C 
BRANCH  24  25
HETATM   25  C4  UNL     1      26.116  -0.814  52.896  1.00  0.00     0.004 C 
HETATM   26  C3  UNL     1      27.314  -0.320  52.652  1.00  0.00     0.036 C 
BRANCH  26  27
HETATM   27  C2  UNL     1      28.367   0.256  53.477  1.00  0.00     0.077 A 
HETATM   28  C1  UNL     1      29.191   1.004  54.186  1.00  0.00     0.250 A 
HETATM   29  F1  UNL     1      29.411  -0.447  54.028  1.00  0.00    -0.367 F 
ENDBRANCH  26  27
ENDBRANCH  24  25
ENDBRANCH  21  23
ENDBRANCH   1  21
TORSDOF 8
ENDMDL
MODEL 4
REMARK VINA RESULT:      -7.6      2.722      6.474
REMARK  8 active torsions:
REMARK  status: ('A' for Active; 'I' for Inactive)
REMARK    1  A    between atoms: C2_2  and  C3_4 
REMARK    2  A    between atoms: C4_5  and  C5_6 
REMARK    3  A    between atoms: C6_7  and  N1_8 
REMARK    4  A    between atoms: N1_8  and  C7_9 
REMARK    5  A    between atoms: C12_16  and  N4_17 
REMARK       I    between atoms: N4_17  and  C13_18 
REMARK    6  A    between atoms: C13_18  and  C14_20 
REMARK    7  A    between atoms: C15_21  and  C16_22 
REMARK    8  A    between atoms: C16_22  and  C17_23 
ROOT
HETATM    1  C7  UNL     1      26.907   1.924  52.042  1.00  0.00     0.141 A 
HETATM    2  N2  UNL     1      28.090   2.480  52.363  1.00  0.00    -0.224 NA
HETATM    3  C8  UNL     1      28.613   2.162  53.583  1.00  0.00     0.236 A 
HETATM    4  N3  UNL     1      27.967   1.330  54.422  1.00  0.00    -0.241 NA
HETATM    5  C9  UNL     1      26.781   0.776  54.096  1.00  0.00     0.072 A 
HETATM    6  C10 UNL     1      26.138  -0.064  54.955  1.00  0.00     0.035 A 
HETATM    7  C11 UNL     1      24.909  -0.628  54.599  1.00  0.00     0.032 A 
HETATM    8  C12 UNL     1      24.364  -0.311  53.352  1.00  0.00     0.036 A 
HETATM    9  C20 UNL     1      25.013   0.539  52.482  1.00  0.00     0.047 A 
HETATM   10  C21 UNL     1      26.223   1.075  52.870  1.00  0.00     0.041 A 
ENDROOT
BRANCH   8  11
HETATM   11  N4  UNL     1      23.111  -0.930  53.074  1.00  0.00    -0.324 N 
HETATM   12  C13 UNL     1      22.016  -0.001  53.221  1.00  0.00     0.245 C 
HETATM   13  O1  UNL     1      22.470   1.123  53.561  1.00  0.00    -0.268 OA
HETATM   14  H11 UNL     1      22.897  -1.932  52.788  1.00  0.00     0.169 HD
BRANCH  12  15
HETATM   15  C14 UNL     1      20.628  -0.369  52.998  1.00  0.00     0.070 C 
HETATM   16  C15 UNL     1      19.709   0.335  52.366  1.00  0.00    -0.021 C 
BRANCH  16  17
HETATM   17  C16 UNL     1      19.823   1.666  51.721  1.00  0.00     0.031 C 
BRANCH  17  18
HETATM   18  C17 UNL     1      19.392   1.522  50.274  1.00  0.00    -0.019 C 
HETATM   19  C18 UNL     1      20.596   1.029  49.492  1.00  0.00     0.010 C 
HETATM   20  C19 UNL     1      18.249   0.548  50.196  1.00  0.00     0.010 C 
ENDBRANCH  17  18
ENDBRANCH  16  17
ENDBRANCH  12  15
ENDBRANCH   8  11
BRANCH   1  21
HETATM   21  N1  UNL     1      26.379   2.259  50.783  1.00  0.00    -0.350 N 
HETATM   22  H7  UNL     1      25.835   1.758  50.082  1.00  0.00     0.166 HD
BRANCH  21  23
HETATM   23  C6  UNL     1      26.588   3.572  50.262  1.00  0.00     0.090 C 
HETATM   24  C5  UNL     1      25.503   3.988  49.630  1.00  0.00     0.017 C 
BRANCH  24  25
HETATM   25  C4  UNL     1      24.405   3.044  49.620  1.00  0.00     0.004 C 
HETATM   26  C3  UNL     1      23.447   3.102  50.524  1.00  0.00     0.036 C 
BRANCH  26  27
HETATM   27  C2  UNL     1      23.170   3.966  51.662  1.00  0.00     0.077 A 
HETATM   28  C1  UNL     1      23.180   4.781  52.700  1.00  0.00     0.250 A 
HETATM   29  F1  UNL     1      21.919   4.235  52.164  1.00  0.00    -0.367 F 
ENDBRANCH  26  27
ENDBRANCH  24  25
ENDBRANCH  21  23
ENDBRANCH   1  21
TORSDOF 8
ENDMDL
MODEL 5
REMARK VINA RESULT:      -7.4      2.767      6.517
REMARK  8 active torsions:
REMARK  status: ('A' for Active; 'I' for Inactive)
REMARK    1  A    between atoms: C2_2  and  C3_4 
REMARK    2  A    between atoms: C4_5  and  C5_6 
REMARK    3  A    between atoms: C6_7  and  N1_8 
REMARK    4  A    between atoms: N1_8  and  C7_9 
REMARK    5  A    between atoms: C12_16  and  N4_17 
REMARK       I    between atoms: N4_17  and  C13_18 
REMARK    6  A    between atoms: C13_18  and  C14_20 
REMARK    7  A    between atoms: C15_21  and  C16_22 
REMARK    8  A    between atoms: C16_22  and  C17_23 
ROOT
HETATM    1  C7  UNL     1      26.746   1.918  52.136  1.00  0.00     0.141 A 
HETATM    2  N2  UNL     1      27.936   2.438  52.493  1.00  0.00    -0.224 NA
HETATM    3  C8  UNL     1      28.454   2.038  53.690  1.00  0.00     0.236 A 
HETATM    4  N3  UNL     1      27.797   1.162  54.474  1.00  0.00    -0.241 NA
HETATM    5  C9  UNL     1      26.606   0.643  54.114  1.00  0.00     0.072 A 
HETATM    6  C10 UNL     1      25.952  -0.242  54.917  1.00  0.00     0.035 A 
HETATM    7  C11 UNL     1      24.718  -0.769  54.526  1.00  0.00     0.032 A 
HETATM    8  C12 UNL     1      24.177  -0.366  53.302  1.00  0.00     0.036 A 
HETATM    9  C20 UNL     1      24.837   0.530  52.488  1.00  0.00     0.047 A 
HETATM   10  C21 UNL     1      26.052   1.026  52.910  1.00  0.00     0.041 A 
ENDROOT
BRANCH   8  11
HETATM   11  N4  UNL     1      22.918  -0.952  52.985  1.00  0.00    -0.324 N 
HETATM   12  C13 UNL     1      21.822  -0.156  53.485  1.00  0.00     0.245 C 
HETATM   13  O1  UNL     1      22.281   0.856  54.075  1.00  0.00    -0.268 OA
HETATM   14  H11 UNL     1      22.700  -1.850  52.458  1.00  0.00     0.169 HD
BRANCH  12  15
HETATM   15  C14 UNL     1      20.427  -0.523  53.301  1.00  0.00     0.070 C 
HETATM   16  C15 UNL     1      19.603  -0.082  52.371  1.00  0.00    -0.021 C 
BRANCH  16  17
HETATM   17  C16 UNL     1      19.854   0.886  51.275  1.00  0.00     0.031 C 
BRANCH  17  18
HETATM   18  C17 UNL     1      19.963   2.268  51.889  1.00  0.00    -0.019 C 
HETATM   19  C18 UNL     1      21.189   2.933  51.288  1.00  0.00     0.010 C 
HETATM   20  C19 UNL     1      18.712   3.043  51.581  1.00  0.00     0.010 C 
ENDBRANCH  17  18
ENDBRANCH  16  17
ENDBRANCH  12  15
ENDBRANCH   8  11
BRANCH   1  21
HETATM   21  N1  UNL     1      26.223   2.338  50.902  1.00  0.00    -0.350 N 
HETATM   22  H7  UNL     1      26.307   2.005  49.942  1.00  0.00     0.166 HD
BRANCH  21  23
HETATM   23  C6  UNL     1      25.369   3.481  50.854  1.00  0.00     0.090 C 
HETATM   24  C5  UNL     1      25.797   4.331  49.936  1.00  0.00     0.017 C 
BRANCH  24  25
HETATM   25  C4  UNL     1      26.987   3.911  49.225  1.00  0.00     0.004 C 
HETATM   26  C3  UNL     1      27.741   4.781  48.581  1.00  0.00     0.036 C 
BRANCH  26  27
HETATM   27  C2  UNL     1      27.685   6.220  48.373  1.00  0.00     0.077 A 
HETATM   28  C1  UNL     1      27.879   7.523  48.283  1.00  0.00     0.250 A 
HETATM   29  F1  UNL     1      26.616   6.901  47.843  1.00  0.00    -0.367 F 
ENDBRANCH  26  27
ENDBRANCH  24  25
ENDBRANCH  21  23
ENDBRANCH   1  21
TORSDOF 8
ENDMDL
MODEL 6
REMARK VINA RESULT:      -7.3      2.379      3.253
REMARK  8 active torsions:
REMARK  status: ('A' for Active; 'I' for Inactive)
REMARK    1  A    between atoms: C2_2  and  C3_4 
REMARK    2  A    between atoms: C4_5  and  C5_6 
REMARK    3  A    between atoms: C6_7  and  N1_8 
REMARK    4  A    between atoms: N1_8  and  C7_9 
REMARK    5  A    between atoms: C12_16  and  N4_17 
REMARK       I    between atoms: N4_17  and  C13_18 
REMARK    6  A    between atoms: C13_18  and  C14_20 
REMARK    7  A    between atoms: C15_21  and  C16_22 
REMARK    8  A    between atoms: C16_22  and  C17_23 
ROOT
HETATM    1  C7  UNL     1      22.957   1.930  52.646  1.00  0.00     0.141 A 
HETATM    2  N2  UNL     1      22.022   0.961  52.616  1.00  0.00    -0.224 NA
HETATM    3  C8  UNL     1      20.780   1.312  52.172  1.00  0.00     0.236 A 
HETATM    4  N3  UNL     1      20.510   2.573  51.783  1.00  0.00    -0.241 NA
HETATM    5  C9  UNL     1      21.450   3.540  51.814  1.00  0.00     0.072 A 
HETATM    6  C10 UNL     1      21.163   4.812  51.418  1.00  0.00     0.035 A 
HETATM    7  C11 UNL     1      22.150   5.800  51.459  1.00  0.00     0.032 A 
HETATM    8  C12 UNL     1      23.425   5.454  51.912  1.00  0.00     0.036 A 
HETATM    9  C20 UNL     1      23.717   4.168  52.313  1.00  0.00     0.047 A 
HETATM   10  C21 UNL     1      22.716   3.221  52.259  1.00  0.00     0.041 A 
ENDROOT
BRANCH   8  11
HETATM   11  N4  UNL     1      24.366   6.523  51.919  1.00  0.00    -0.324 N 
HETATM   12  C13 UNL     1      24.951   6.725  50.614  1.00  0.00     0.245 C 
HETATM   13  O1  UNL     1      24.464   5.889  49.810  1.00  0.00    -0.268 OA
HETATM   14  H11 UNL     1      24.673   7.153  52.720  1.00  0.00     0.169 HD
BRANCH  12  15
HETATM   15  C14 UNL     1      25.942   7.752  50.339  1.00  0.00     0.070 C 
HETATM   16  C15 UNL     1      26.644   7.906  49.233  1.00  0.00    -0.021 C 
BRANCH  16  17
HETATM   17  C16 UNL     1      26.624   7.100  47.988  1.00  0.00     0.031 C 
BRANCH  17  18
HETATM   18  C17 UNL     1      27.986   6.453  47.828  1.00  0.00    -0.019 C 
HETATM   19  C18 UNL     1      29.012   7.418  48.394  1.00  0.00     0.010 C 
HETATM   20  C19 UNL     1      27.998   5.143  48.567  1.00  0.00     0.010 C 
ENDBRANCH  17  18
ENDBRANCH  16  17
ENDBRANCH  12  15
ENDBRANCH   8  11
BRANCH   1  21
HETATM   21  N1  UNL     1      24.231   1.557  53.106  1.00  0.00    -0.350 N 
HETATM   22  H7  UNL     1      25.023   2.063  53.500  1.00  0.00     0.166 HD
BRANCH  21  23
HETATM   23  C6  UNL     1      24.618   0.183  53.061  1.00  0.00     0.090 C 
HETATM   24  C5  UNL     1      25.922   0.085  52.864  1.00  0.00     0.017 C 
BRANCH  24  25
HETATM   25  C4  UNL     1      26.617   1.350  52.747  1.00  0.00     0.004 C 
HETATM   26  C3  UNL     1      27.904   1.449  53.016  1.00  0.00     0.036 C 
BRANCH  26  27
HETATM   27  C2  UNL     1      28.930   0.513  53.451  1.00  0.00     0.077 A 
HETATM   28  C1  UNL     1      30.012  -0.211  53.670  1.00  0.00     0.250 A 
HETATM   29  F1  UNL     1      28.761  -0.454  54.413  1.00  0.00    -0.367 F 
ENDBRANCH  26  27
ENDBRANCH  24  25
ENDBRANCH  21  23
ENDBRANCH   1  21
TORSDOF 8
ENDMDL
MODEL 7
REMARK VINA RESULT:      -7.3      3.418      6.111
REMARK  8 active torsions:
REMARK  status: ('A' for Active; 'I' for Inactive)
REMARK    1  A    between atoms: C2_2  and  C3_4 
REMARK    2  A    between atoms: C4_5  and  C5_6 
REMARK    3  A    between atoms: C6_7  and  N1_8 
REMARK    4  A    between atoms: N1_8  and  C7_9 
REMARK    5  A    between atoms: C12_16  and  N4_17 
REMARK       I    between atoms: N4_17  and  C13_18 
REMARK    6  A    between atoms: C13_18  and  C14_20 
REMARK    7  A    between atoms: C15_21  and  C16_22 
REMARK    8  A    between atoms: C16_22  and  C17_23 
ROOT
HETATM    1  C7  UNL     1      21.180  -0.249  53.701  1.00  0.00     0.141 A 
HETATM    2  N2  UNL     1      21.227  -1.107  54.738  1.00  0.00    -0.224 NA
HETATM    3  C8  UNL     1      22.464  -1.464  55.191  1.00  0.00     0.236 A 
HETATM    4  N3  UNL     1      23.582  -0.976  54.620  1.00  0.00    -0.241 NA
HETATM    5  C9  UNL     1      23.529  -0.117  53.581  1.00  0.00     0.072 A 
HETATM    6  C10 UNL     1      24.669   0.369  53.013  1.00  0.00     0.035 A 
HETATM    7  C11 UNL     1      24.594   1.258  51.937  1.00  0.00     0.032 A 
HETATM    8  C12 UNL     1      23.333   1.631  51.464  1.00  0.00     0.036 A 
HETATM    9  C20 UNL     1      22.179   1.140  52.038  1.00  0.00     0.047 A 
HETATM   10  C21 UNL     1      22.296   0.265  53.097  1.00  0.00     0.041 A 
ENDROOT
BRANCH   8  11
HETATM   11  N4  UNL     1      23.352   2.539  50.366  1.00  0.00    -0.324 N 
HETATM   12  C13 UNL     1      23.192   3.905  50.805  1.00  0.00     0.245 C 
HETATM   13  O1  UNL     1      23.075   3.926  52.058  1.00  0.00    -0.268 OA
HETATM   14  H11 UNL     1      23.463   2.345  49.327  1.00  0.00     0.169 HD
BRANCH  12  15
HETATM   15  C14 UNL     1      23.175   5.035  49.891  1.00  0.00     0.070 C 
HETATM   16  C15 UNL     1      24.199   5.786  49.533  1.00  0.00    -0.021 C 
BRANCH  16  17
HETATM   17  C16 UNL     1      25.619   5.697  49.949  1.00  0.00     0.031 C 
BRANCH  17  18
HETATM   18  C17 UNL     1      26.347   4.830  48.940  1.00  0.00    -0.019 C 
HETATM   19  C18 UNL     1      27.588   5.590  48.505  1.00  0.00     0.010 C 
HETATM   20  C19 UNL     1      26.705   3.520  49.585  1.00  0.00     0.010 C 
ENDBRANCH  17  18
ENDBRANCH  16  17
ENDBRANCH  12  15
ENDBRANCH   8  11
BRANCH   1  21
HETATM   21  N1  UNL     1      19.900   0.110  53.244  1.00  0.00    -0.350 N 
HETATM   22  H7  UNL     1      19.492   0.965  52.868  1.00  0.00     0.166 HD
BRANCH  21  23
HETATM   23  C6  UNL     1      18.852  -0.859  53.262  1.00  0.00     0.090 C 
HETATM   24  C5  UNL     1      18.120  -0.757  52.165  1.00  0.00     0.017 C 
BRANCH  24  25
HETATM   25  C4  UNL     1      18.546   0.275  51.243  1.00  0.00     0.004 C 
HETATM   26  C3  UNL     1      17.844   0.558  50.163  1.00  0.00     0.036 C 
BRANCH  26  27
HETATM   27  C2  UNL     1      16.609   0.046  49.586  1.00  0.00     0.077 A 
HETATM   28  C1  UNL     1      15.398  -0.176  49.110  1.00  0.00     0.250 A 
HETATM   29  F1  UNL     1      16.428  -1.232  49.113  1.00  0.00    -0.367 F 
ENDBRANCH  26  27
ENDBRANCH  24  25
ENDBRANCH  21  23
ENDBRANCH   1  21
TORSDOF 8
ENDMDL
MODEL 8
REMARK VINA RESULT:      -7.3      2.596      5.069
REMARK  8 active torsions:
REMARK  status: ('A' for Active; 'I' for Inactive)
REMARK    1  A    between atoms: C2_2  and  C3_4 
REMARK    2  A    between atoms: C4_5  and  C5_6 
REMARK    3  A    between atoms: C6_7  and  N1_8 
REMARK    4  A    between atoms: N1_8  and  C7_9 
REMARK    5  A    between atoms: C12_16  and  N4_17 
REMARK       I    between atoms: N4_17  and  C13_18 
REMARK    6  A    between atoms: C13_18  and  C14_20 
REMARK    7  A    between atoms: C15_21  and  C16_22 
REMARK    8  A    between atoms: C16_22  and  C17_23 
ROOT
HETATM    1  C7  UNL     1      23.906  -0.544  53.911  1.00  0.00     0.141 A 
HETATM    2  N2  UNL     1      23.969  -1.231  55.068  1.00  0.00    -0.224 NA
HETATM    3  C8  UNL     1      25.105  -1.092  55.811  1.00  0.00     0.236 A 
HETATM    4  N3  UNL     1      26.114  -0.300  55.399  1.00  0.00    -0.241 NA
HETATM    5  C9  UNL     1      26.047   0.386  54.239  1.00  0.00     0.072 A 
HETATM    6  C10 UNL     1      27.075   1.183  53.834  1.00  0.00     0.035 A 
HETATM    7  C11 UNL     1      26.987   1.886  52.629  1.00  0.00     0.032 A 
HETATM    8  C12 UNL     1      25.829   1.751  51.859  1.00  0.00     0.036 A 
HETATM    9  C20 UNL     1      24.788   0.945  52.267  1.00  0.00     0.047 A 
HETATM   10  C21 UNL     1      24.913   0.268  53.462  1.00  0.00     0.041 A 
ENDROOT
BRANCH   8  11
HETATM   11  N4  UNL     1      25.827   2.502  50.649  1.00  0.00    -0.324 N 
HETATM   12  C13 UNL     1      25.011   3.688  50.762  1.00  0.00     0.245 C 
HETATM   13  O1  UNL     1      24.514   3.740  51.917  1.00  0.00    -0.268 OA
HETATM   14  H11 UNL     1      26.322   2.308  49.728  1.00  0.00     0.169 HD
BRANCH  12  15
HETATM   15  C14 UNL     1      24.833   4.635  49.674  1.00  0.00     0.070 C 
HETATM   16  C15 UNL     1      25.773   5.153  48.906  1.00  0.00    -0.021 C 
BRANCH  16  17
HETATM   17  C16 UNL     1      27.238   4.925  48.931  1.00  0.00     0.031 C 
BRANCH  17  18
HETATM   18  C17 UNL     1      27.898   6.041  48.145  1.00  0.00    -0.019 C 
HETATM   19  C18 UNL     1      27.472   7.352  48.780  1.00  0.00     0.010 C 
HETATM   20  C19 UNL     1      29.390   5.864  48.199  1.00  0.00     0.010 C 
ENDBRANCH  17  18
ENDBRANCH  16  17
ENDBRANCH  12  15
ENDBRANCH   8  11
BRANCH   1  21
HETATM   21  N1  UNL     1      22.732  -0.697  53.155  1.00  0.00    -0.350 N 
HETATM   22  H7  UNL     1      22.526  -1.056  52.224  1.00  0.00     0.166 HD
BRANCH  21  23
HETATM   23  C6  UNL     1      21.482  -0.292  53.712  1.00  0.00     0.090 C 
HETATM   24  C5  UNL     1      20.691   0.177  52.761  1.00  0.00     0.017 C 
BRANCH  24  25
HETATM   25  C4  UNL     1      21.265   0.165  51.432  1.00  0.00     0.004 C 
HETATM   26  C3  UNL     1      21.466   1.285  50.765  1.00  0.00     0.036 C 
BRANCH  26  27
HETATM   27  C2  UNL     1      21.237   2.695  51.047  1.00  0.00     0.077 A 
HETATM   28  C1  UNL     1      21.041   3.898  51.554  1.00  0.00     0.250 A 
HETATM   29  F1  UNL     1      21.087   3.676  50.096  1.00  0.00    -0.367 F 
ENDBRANCH  26  27
ENDBRANCH  24  25
ENDBRANCH  21  23
ENDBRANCH   1  21
TORSDOF 8
ENDMDL
MODEL 9
REMARK VINA RESULT:      -7.3      2.369      3.179
REMARK  8 active torsions:
REMARK  status: ('A' for Active; 'I' for Inactive)
REMARK    1  A    between atoms: C2_2  and  C3_4 
REMARK    2  A    between atoms: C4_5  and  C5_6 
REMARK    3  A    between atoms: C6_7  and  N1_8 
REMARK    4  A    between atoms: N1_8  and  C7_9 
REMARK    5  A    between atoms: C12_16  and  N4_17 
REMARK       I    between atoms: N4_17  and  C13_18 
REMARK    6  A    between atoms: C13_18  and  C14_20 
REMARK    7  A    between atoms: C15_21  and  C16_22 
REMARK    8  A    between atoms: C16_22  and  C17_23 
ROOT
HETATM    1  C7  UNL     1      23.181   0.825  53.027  1.00  0.00     0.141 A 
HETATM    2  N2  UNL     1      22.384  -0.261  53.051  1.00  0.00    -0.224 NA
HETATM    3  C8  UNL     1      21.063  -0.067  52.772  1.00  0.00     0.236 A 
HETATM    4  N3  UNL     1      20.585   1.160  52.486  1.00  0.00    -0.241 NA
HETATM    5  C9  UNL     1      21.386   2.245  52.463  1.00  0.00     0.072 A 
HETATM    6  C10 UNL     1      20.889   3.480  52.174  1.00  0.00     0.035 A 
HETATM    7  C11 UNL     1      21.735   4.592  52.156  1.00  0.00     0.032 A 
HETATM    8  C12 UNL     1      23.090   4.405  52.440  1.00  0.00     0.036 A 
HETATM    9  C20 UNL     1      23.595   3.157  52.734  1.00  0.00     0.047 A 
HETATM   10  C21 UNL     1      22.728   2.085  52.742  1.00  0.00     0.041 A 
ENDROOT
BRANCH   8  11
HETATM   11  N4  UNL     1      23.877   5.593  52.399  1.00  0.00    -0.324 N 
HETATM   12  C13 UNL     1      24.264   5.926  51.048  1.00  0.00     0.245 C 
HETATM   13  O1  UNL     1      23.796   5.064  50.259  1.00  0.00    -0.268 OA
HETATM   14  H11 UNL     1      24.194   6.225  53.193  1.00  0.00     0.169 HD
BRANCH  12  15
HETATM   15  C14 UNL     1      25.071   7.089  50.719  1.00  0.00     0.070 C 
HETATM   16  C15 UNL     1      25.913   7.215  49.711  1.00  0.00    -0.021 C 
BRANCH  16  17
HETATM   17  C16 UNL     1      26.269   6.236  48.656  1.00  0.00     0.031 C 
BRANCH  17  18
HETATM   18  C17 UNL     1      27.588   6.666  48.044  1.00  0.00    -0.019 C 
HETATM   19  C18 UNL     1      27.984   7.975  48.703  1.00  0.00     0.010 C 
HETATM   20  C19 UNL     1      28.615   5.596  48.287  1.00  0.00     0.010 C 
ENDBRANCH  17  18
ENDBRANCH  16  17
ENDBRANCH  12  15
ENDBRANCH   8  11
BRANCH   1  21
HETATM   21  N1  UNL     1      24.539   0.611  53.317  1.00  0.00    -0.350 N 
HETATM   22  H7  UNL     1      25.204   1.033  53.964  1.00  0.00     0.166 HD
BRANCH  21  23
HETATM   23  C6  UNL     1      25.257  -0.398  52.608  1.00  0.00     0.090 C 
HETATM   24  C5  UNL     1      26.531  -0.060  52.501  1.00  0.00     0.017 C 
BRANCH  24  25
HETATM   25  C4  UNL     1      26.877   1.209  53.108  1.00  0.00     0.004 C 
HETATM   26  C3  UNL     1      26.912   2.319  52.397  1.00  0.00     0.036 C 
BRANCH  26  27
HETATM   27  C2  UNL     1      26.666   2.643  51.000  1.00  0.00     0.077 A 
HETATM   28  C1  UNL     1      26.311   2.710  49.730  1.00  0.00     0.250 A 
HETATM   29  F1  UNL     1      27.112   3.776  50.361  1.00  0.00    -0.367 F 
ENDBRANCH  26  27
ENDBRANCH  24  25
ENDBRANCH  21  23
ENDBRANCH   1  21
TORSDOF 8
ENDMDL
