MODEL 1
REMARK VINA RESULT:      -9.1      0.000      0.000
REMARK  3 active torsions:
REMARK  status: ('A' for Active; 'I' for Inactive)
REMARK    1  A    between atoms: N1_7  and  C7_8 
REMARK    2  A    between atoms: C7_8  and  C8_9 
REMARK    3  A    between atoms: C13_14  and  O1_15 
ROOT
HETATM    1  C1  UNL     1      18.901   0.820  51.599  1.00  0.00     0.049 C 
HETATM    2  C2  UNL     1      20.228   0.374  51.999  1.00  0.00    -0.055 C 
HETATM    3  C3  UNL     1      21.422  -0.138  52.367  1.00  0.00    -0.010 C 
HETATM    4  C4  UNL     1      22.817  -0.269  52.776  1.00  0.00     0.040 C 
HETATM    5  C5  UNL     1      23.947   0.412  53.137  1.00  0.00    -0.014 C 
HETATM    6  C6  UNL     1      24.529   1.747  53.378  1.00  0.00     0.300 A 
HETATM    7  N1  UNL     1      25.490   2.246  52.421  1.00  0.00     0.134 N 
HETATM    8  C14 UNL     1      24.985   2.833  51.098  1.00  0.00     0.351 A 
HETATM    9  O2  UNL     1      24.301   2.121  51.804  1.00  0.00     0.000 OA
HETATM   10  N2  UNL     1      23.951   3.037  50.029  1.00  0.00    -0.348 N 
HETATM   11  C15 UNL     1      22.564   2.466  49.850  1.00  0.00     0.030 A 
HETATM   12  C16 UNL     1      22.485   2.043  48.567  1.00  0.00     0.029 A 
HETATM   13  C17 UNL     1      21.515   1.013  48.557  1.00  0.00     0.003 A 
HETATM   14  C18 UNL     1      20.941   0.736  49.838  1.00  0.00     0.012 A 
HETATM   15  C19 UNL     1      21.100   1.262  51.184  1.00  0.00    -0.028 A 
HETATM   16  C20 UNL     1      22.038   2.250  51.084  1.00  0.00     0.041 A 
HETATM   17  H16 UNL     1      24.499   3.670  49.478  1.00  0.00     0.162 HD
ENDROOT
BRANCH   7  18
HETATM   18  C7  UNL     1      26.937   2.386  52.327  1.00  0.00     0.318 C 
BRANCH  18  19
HETATM   19  C8  UNL     1      27.692   1.219  52.778  1.00  0.00     0.003 A 
HETATM   20  C9  UNL     1      27.207  -0.053  52.499  1.00  0.00     0.012 A 
HETATM   21  C10 UNL     1      27.825  -1.227  52.879  1.00  0.00     0.001 A 
HETATM   22  C11 UNL     1      29.007  -1.125  53.585  1.00  0.00     0.003 A 
HETATM   23  C12 UNL     1      29.554   0.104  53.902  1.00  0.00     0.037 A 
HETATM   24  C13 UNL     1      28.873   1.251  53.484  1.00  0.00     0.073 A 
BRANCH  24  25
HETATM   25  O1  UNL     1      29.414   2.488  53.795  1.00  0.00    -0.360 OA
HETATM   26  H15 UNL     1      29.125   3.035  54.595  1.00  0.00     0.217 HD
ENDBRANCH  24  25
ENDBRANCH  18  19
ENDBRANCH   7  18
TORSDOF 3
ENDMDL
MODEL 2
REMARK VINA RESULT:      -8.8      2.957      5.386
REMARK  3 active torsions:
REMARK  status: ('A' for Active; 'I' for Inactive)
REMARK    1  A    between atoms: N1_7  and  C7_8 
REMARK    2  A    between atoms: C7_8  and  C8_9 
REMARK    3  A    between atoms: C13_14  and  O1_15 
ROOT
HETATM    1  C1  UNL     1      24.942  -0.932  55.666  1.00  0.00     0.049 C 
HETATM    2  C2  UNL     1      25.522  -0.609  54.370  1.00  0.00    -0.055 C 
HETATM    3  C3  UNL     1      26.093  -0.409  53.163  1.00  0.00    -0.010 C 
HETATM    4  C4  UNL     1      26.567   0.213  51.931  1.00  0.00     0.040 C 
HETATM    5  C5  UNL     1      26.688   1.390  51.244  1.00  0.00    -0.014 C 
HETATM    6  C6  UNL     1      26.439   2.844  51.285  1.00  0.00     0.300 A 
HETATM    7  N1  UNL     1      25.398   3.373  50.434  1.00  0.00     0.134 N 
HETATM    8  C14 UNL     1      23.935   3.227  50.870  1.00  0.00     0.351 A 
HETATM    9  O2  UNL     1      24.831   2.557  51.342  1.00  0.00     0.000 OA
HETATM   10  N2  UNL     1      22.833   2.612  51.682  1.00  0.00    -0.348 N 
HETATM   11  C15 UNL     1      22.831   1.475  52.677  1.00  0.00     0.030 A 
HETATM   12  C16 UNL     1      21.793   0.673  52.344  1.00  0.00     0.029 A 
HETATM   13  C17 UNL     1      22.132  -0.616  52.815  1.00  0.00     0.003 A 
HETATM   14  C18 UNL     1      23.404  -0.688  53.465  1.00  0.00     0.012 A 
HETATM   15  C19 UNL     1      24.466   0.255  53.778  1.00  0.00    -0.028 A 
HETATM   16  C20 UNL     1      24.039   1.461  53.298  1.00  0.00     0.041 A 
HETATM   17  H16 UNL     1      22.105   3.205  51.332  1.00  0.00     0.162 HD
ENDROOT
BRANCH   7  18
HETATM   18  C7  UNL     1      25.306   4.085  49.166  1.00  0.00     0.318 C 
BRANCH  18  19
HETATM   19  C8  UNL     1      26.334   5.105  48.967  1.00  0.00     0.003 A 
HETATM   20  C9  UNL     1      27.614   4.716  48.592  1.00  0.00     0.012 A 
HETATM   21  C10 UNL     1      28.666   5.584  48.383  1.00  0.00     0.001 A 
HETATM   22  C11 UNL     1      28.425   6.932  48.559  1.00  0.00     0.003 A 
HETATM   23  C12 UNL     1      27.178   7.399  48.930  1.00  0.00     0.037 A 
HETATM   24  C13 UNL     1      26.159   6.461  49.125  1.00  0.00     0.073 A 
BRANCH  24  25
HETATM   25  O1  UNL     1      24.905   6.919  49.495  1.00  0.00    -0.360 OA
HETATM   26  H15 UNL     1      24.556   6.874  50.444  1.00  0.00     0.217 HD
ENDBRANCH  24  25
ENDBRANCH  18  19
ENDBRANCH   7  18
TORSDOF 3
ENDMDL
MODEL 3
REMARK VINA RESULT:      -8.7      1.698      3.183
REMARK  3 active torsions:
REMARK  status: ('A' for Active; 'I' for Inactive)
REMARK    1  A    between atoms: N1_7  and  C7_8 
REMARK    2  A    between atoms: C7_8  and  C8_9 
REMARK    3  A    between atoms: C13_14  and  O1_15 
ROOT
HETATM    1  C1  UNL     1      21.561   3.540  47.503  1.00  0.00     0.049 C 
HETATM    2  C2  UNL     1      22.761   3.838  48.272  1.00  0.00    -0.055 C 
HETATM    3  C3  UNL     1      23.872   4.210  48.943  1.00  0.00    -0.010 C 
HETATM    4  C4  UNL     1      25.048   4.201  49.809  1.00  0.00     0.040 C 
HETATM    5  C5  UNL     1      25.844   3.427  50.608  1.00  0.00    -0.014 C 
HETATM    6  C6  UNL     1      26.072   2.067  51.132  1.00  0.00     0.300 A 
HETATM    7  N1  UNL     1      25.794   1.828  52.530  1.00  0.00     0.134 N 
HETATM    8  C14 UNL     1      24.341   1.629  52.975  1.00  0.00     0.351 A 
HETATM    9  O2  UNL     1      24.639   2.136  51.913  1.00  0.00     0.000 OA
HETATM   10  N2  UNL     1      22.855   1.740  52.792  1.00  0.00    -0.348 N 
HETATM   11  C15 UNL     1      22.020   2.363  51.697  1.00  0.00     0.030 A 
HETATM   12  C16 UNL     1      21.081   3.118  52.312  1.00  0.00     0.029 A 
HETATM   13  C17 UNL     1      20.730   4.129  51.388  1.00  0.00     0.003 A 
HETATM   14  C18 UNL     1      21.438   4.060  50.146  1.00  0.00     0.012 A 
HETATM   15  C19 UNL     1      22.450   3.187  49.574  1.00  0.00    -0.028 A 
HETATM   16  C20 UNL     1      22.707   2.247  50.530  1.00  0.00     0.041 A 
HETATM   17  H16 UNL     1      22.612   1.270  53.642  1.00  0.00     0.162 HD
ENDROOT
BRANCH   7  18
HETATM   18  C7  UNL     1      26.551   1.692  53.767  1.00  0.00     0.318 C 
BRANCH  18  19
HETATM   19  C8  UNL     1      27.708   0.803  53.677  1.00  0.00     0.003 A 
HETATM   20  C9  UNL     1      27.516  -0.531  53.337  1.00  0.00     0.012 A 
HETATM   21  C10 UNL     1      28.525  -1.464  53.229  1.00  0.00     0.001 A 
HETATM   22  C11 UNL     1      29.815  -1.040  53.479  1.00  0.00     0.003 A 
HETATM   23  C12 UNL     1      30.090   0.270  53.822  1.00  0.00     0.037 A 
HETATM   24  C13 UNL     1      29.016   1.162  53.912  1.00  0.00     0.073 A 
BRANCH  24  25
HETATM   25  O1  UNL     1      29.280   2.478  54.255  1.00  0.00    -0.360 OA
HETATM   26  H15 UNL     1      28.964   3.268  53.707  1.00  0.00     0.217 HD
ENDBRANCH  24  25
ENDBRANCH  18  19
ENDBRANCH   7  18
TORSDOF 3
ENDMDL
MODEL 4
REMARK VINA RESULT:      -8.7      1.686      3.019
REMARK  3 active torsions:
REMARK  status: ('A' for Active; 'I' for Inactive)
REMARK    1  A    between atoms: N1_7  and  C7_8 
REMARK    2  A    between atoms: C7_8  and  C8_9 
REMARK    3  A    between atoms: C13_14  and  O1_15 
ROOT
HETATM    1  C1  UNL     1      19.721   1.357  49.711  1.00  0.00     0.049 C 
HETATM    2  C2  UNL     1      20.723   1.990  50.557  1.00  0.00    -0.055 C 
HETATM    3  C3  UNL     1      21.589   2.662  51.345  1.00  0.00    -0.010 C 
HETATM    4  C4  UNL     1      22.758   3.023  52.141  1.00  0.00     0.040 C 
HETATM    5  C5  UNL     1      24.008   2.633  52.537  1.00  0.00    -0.014 C 
HETATM    6  C6  UNL     1      25.042   1.587  52.416  1.00  0.00     0.300 A 
HETATM    7  N1  UNL     1      25.280   0.739  53.562  1.00  0.00     0.134 N 
HETATM    8  C14 UNL     1      24.312  -0.415  53.846  1.00  0.00     0.351 A 
HETATM    9  O2  UNL     1      24.029   0.516  53.120  1.00  0.00     0.000 OA
HETATM   10  N2  UNL     1      23.002  -1.133  53.701  1.00  0.00    -0.348 N 
HETATM   11  C15 UNL     1      21.730  -0.767  52.974  1.00  0.00     0.030 A 
HETATM   12  C16 UNL     1      20.713  -0.992  53.838  1.00  0.00     0.029 A 
HETATM   13  C17 UNL     1      19.669  -0.123  53.444  1.00  0.00     0.003 A 
HETATM   14  C18 UNL     1      19.981   0.694  52.311  1.00  0.00     0.012 A 
HETATM   15  C19 UNL     1      21.129   0.860  51.435  1.00  0.00    -0.028 A 
HETATM   16  C20 UNL     1      22.068  -0.023  51.888  1.00  0.00     0.041 A 
HETATM   17  H16 UNL     1      23.259  -1.927  54.255  1.00  0.00     0.162 HD
ENDROOT
BRANCH   7  18
HETATM   18  C7  UNL     1      26.266   0.629  54.629  1.00  0.00     0.318 C 
BRANCH  18  19
HETATM   19  C8  UNL     1      27.622   0.324  54.176  1.00  0.00     0.003 A 
HETATM   20  C9  UNL     1      27.951  -0.987  53.853  1.00  0.00     0.012 A 
HETATM   21  C10 UNL     1      29.196  -1.397  53.423  1.00  0.00     0.001 A 
HETATM   22  C11 UNL     1      30.180  -0.434  53.308  1.00  0.00     0.003 A 
HETATM   23  C12 UNL     1      29.931   0.891  53.610  1.00  0.00     0.037 A 
HETATM   24  C13 UNL     1      28.645   1.234  54.040  1.00  0.00     0.073 A 
BRANCH  24  25
HETATM   25  O1  UNL     1      28.385   2.560  54.344  1.00  0.00    -0.360 OA
HETATM   26  H15 UNL     1      28.556   3.321  53.700  1.00  0.00     0.217 HD
ENDBRANCH  24  25
ENDBRANCH  18  19
ENDBRANCH   7  18
TORSDOF 3
ENDMDL
MODEL 5
REMARK VINA RESULT:      -8.1      8.198      9.847
REMARK  3 active torsions:
REMARK  status: ('A' for Active; 'I' for Inactive)
REMARK    1  A    between atoms: N1_7  and  C7_8 
REMARK    2  A    between atoms: C7_8  and  C8_9 
REMARK    3  A    between atoms: C13_14  and  O1_15 
ROOT
HETATM    1  C1  UNL     1      25.755   7.702  48.811  1.00  0.00     0.049 C 
HETATM    2  C2  UNL     1      26.910   6.853  48.552  1.00  0.00    -0.055 C 
HETATM    3  C3  UNL     1      27.915   5.998  48.268  1.00  0.00    -0.010 C 
HETATM    4  C4  UNL     1      29.235   5.383  48.160  1.00  0.00     0.040 C 
HETATM    5  C5  UNL     1      30.555   5.496  48.501  1.00  0.00    -0.014 C 
HETATM    6  C6  UNL     1      31.549   6.308  49.228  1.00  0.00     0.300 A 
HETATM    7  N1  UNL     1      32.506   7.060  48.447  1.00  0.00     0.134 N 
HETATM    8  C14 UNL     1      32.067   8.381  47.807  1.00  0.00     0.351 A 
HETATM    9  O2  UNL     1      31.277   7.548  48.199  1.00  0.00     0.000 OA
HETATM   10  N2  UNL     1      31.038   9.358  47.318  1.00  0.00    -0.348 N 
HETATM   11  C15 UNL     1      29.531   9.281  47.250  1.00  0.00     0.030 A 
HETATM   12  C16 UNL     1      29.180   9.690  46.009  1.00  0.00     0.029 A 
HETATM   13  C17 UNL     1      27.941   9.066  45.731  1.00  0.00     0.003 A 
HETATM   14  C18 UNL     1      27.454   8.231  46.786  1.00  0.00     0.012 A 
HETATM   15  C19 UNL     1      27.920   7.853  48.110  1.00  0.00    -0.028 A 
HETATM   16  C20 UNL     1      29.104   8.511  48.285  1.00  0.00     0.041 A 
HETATM   17  H16 UNL     1      31.691  10.068  47.047  1.00  0.00     0.162 HD
ENDROOT
BRANCH   7  18
HETATM   18  C7  UNL     1      33.904   6.937  48.055  1.00  0.00     0.318 C 
BRANCH  18  19
HETATM   19  C8  UNL     1      34.241   5.680  47.390  1.00  0.00     0.003 A 
HETATM   20  C9  UNL     1      33.962   5.531  46.037  1.00  0.00     0.012 A 
HETATM   21  C10 UNL     1      34.226   4.392  45.305  1.00  0.00     0.001 A 
HETATM   22  C11 UNL     1      34.808   3.329  45.967  1.00  0.00     0.003 A 
HETATM   23  C12 UNL     1      35.116   3.399  47.312  1.00  0.00     0.037 A 
HETATM   24  C13 UNL     1      34.820   4.585  47.991  1.00  0.00     0.073 A 
BRANCH  24  25
HETATM   25  O1  UNL     1      35.127   4.667  49.340  1.00  0.00    -0.360 OA
HETATM   26  H15 UNL     1      34.936   5.485  49.903  1.00  0.00     0.217 HD
ENDBRANCH  24  25
ENDBRANCH  18  19
ENDBRANCH   7  18
TORSDOF 3
ENDMDL
MODEL 6
REMARK VINA RESULT:      -7.9      3.929      8.875
REMARK  3 active torsions:
REMARK  status: ('A' for Active; 'I' for Inactive)
REMARK    1  A    between atoms: N1_7  and  C7_8 
REMARK    2  A    between atoms: C7_8  and  C8_9 
REMARK    3  A    between atoms: C13_14  and  O1_15 
ROOT
HETATM    1  C1  UNL     1      24.497   2.854  52.816  1.00  0.00     0.049 C 
HETATM    2  C2  UNL     1      23.548   2.158  51.958  1.00  0.00    -0.055 C 
HETATM    3  C3  UNL     1      22.745   1.503  51.093  1.00  0.00    -0.010 C 
HETATM    4  C4  UNL     1      21.585   0.870  50.472  1.00  0.00     0.040 C 
HETATM    5  C5  UNL     1      20.245   0.626  50.590  1.00  0.00    -0.014 C 
HETATM    6  C6  UNL     1      19.044   0.852  51.418  1.00  0.00     0.300 A 
HETATM    7  N1  UNL     1      18.507  -0.275  52.147  1.00  0.00     0.134 N 
HETATM    8  C14 UNL     1      19.183  -0.707  53.452  1.00  0.00     0.351 A 
HETATM    9  O2  UNL     1      19.731  -0.001  52.631  1.00  0.00     0.000 OA
HETATM   10  N2  UNL     1      20.331  -0.747  54.418  1.00  0.00    -0.348 N 
HETATM   11  C15 UNL     1      21.729  -0.178  54.344  1.00  0.00     0.030 A 
HETATM   12  C16 UNL     1      22.569  -1.170  54.721  1.00  0.00     0.029 A 
HETATM   13  C17 UNL     1      23.805  -0.890  54.094  1.00  0.00     0.003 A 
HETATM   14  C18 UNL     1      23.800   0.293  53.288  1.00  0.00     0.012 A 
HETATM   15  C19 UNL     1      22.822   1.311  52.943  1.00  0.00    -0.028 A 
HETATM   16  C20 UNL     1      21.678   0.960  53.602  1.00  0.00     0.041 A 
HETATM   17  H16 UNL     1      19.856  -1.283  55.119  1.00  0.00     0.162 HD
ENDROOT
BRANCH   7  18
HETATM   18  C7  UNL     1      17.399  -1.211  52.010  1.00  0.00     0.318 C 
BRANCH  18  19
HETATM   19  C8  UNL     1      16.202  -0.650  51.386  1.00  0.00     0.003 A 
HETATM   20  C9  UNL     1      16.098  -0.644  50.000  1.00  0.00     0.012 A 
HETATM   21  C10 UNL     1      15.024  -0.136  49.298  1.00  0.00     0.001 A 
HETATM   22  C11 UNL     1      13.983   0.402  50.028  1.00  0.00     0.003 A 
HETATM   23  C12 UNL     1      14.011   0.433  51.409  1.00  0.00     0.037 A 
HETATM   24  C13 UNL     1      15.132  -0.100  52.054  1.00  0.00     0.073 A 
BRANCH  24  25
HETATM   25  O1  UNL     1      15.169  -0.076  53.438  1.00  0.00    -0.360 OA
HETATM   26  H15 UNL     1      14.360   0.125  54.011  1.00  0.00     0.217 HD
ENDBRANCH  24  25
ENDBRANCH  18  19
ENDBRANCH   7  18
TORSDOF 3
ENDMDL
MODEL 7
REMARK VINA RESULT:      -7.8      3.064      4.541
REMARK  3 active torsions:
REMARK  status: ('A' for Active; 'I' for Inactive)
REMARK    1  A    between atoms: N1_7  and  C7_8 
REMARK    2  A    between atoms: C7_8  and  C8_9 
REMARK    3  A    between atoms: C13_14  and  O1_15 
ROOT
HETATM    1  C1  UNL     1      20.662   6.257  46.841  1.00  0.00     0.049 C 
HETATM    2  C2  UNL     1      21.603   5.271  47.355  1.00  0.00    -0.055 C 
HETATM    3  C3  UNL     1      22.513   4.349  47.735  1.00  0.00    -0.010 C 
HETATM    4  C4  UNL     1      23.301   3.413  48.530  1.00  0.00     0.040 C 
HETATM    5  C5  UNL     1      23.448   2.836  49.762  1.00  0.00    -0.014 C 
HETATM    6  C6  UNL     1      22.899   2.749  51.129  1.00  0.00     0.300 A 
HETATM    7  N1  UNL     1      23.658   3.354  52.200  1.00  0.00     0.134 N 
HETATM    8  C14 UNL     1      23.590   4.873  52.393  1.00  0.00     0.351 A 
HETATM    9  O2  UNL     1      23.255   4.327  51.362  1.00  0.00     0.000 OA
HETATM   10  N2  UNL     1      23.296   6.271  51.934  1.00  0.00    -0.348 N 
HETATM   11  C15 UNL     1      22.832   6.817  50.604  1.00  0.00     0.030 A 
HETATM   12  C16 UNL     1      23.634   7.870  50.319  1.00  0.00     0.029 A 
HETATM   13  C17 UNL     1      23.640   7.982  48.909  1.00  0.00     0.003 A 
HETATM   14  C18 UNL     1      22.844   7.001  48.239  1.00  0.00     0.012 A 
HETATM   15  C19 UNL     1      22.002   5.889  48.649  1.00  0.00    -0.028 A 
HETATM   16  C20 UNL     1      22.053   5.874  50.014  1.00  0.00     0.041 A 
HETATM   17  H16 UNL     1      23.520   6.714  52.805  1.00  0.00     0.162 HD
ENDROOT
BRANCH   7  18
HETATM   18  C7  UNL     1      24.549   2.914  53.265  1.00  0.00     0.318 C 
BRANCH  18  19
HETATM   19  C8  UNL     1      25.315   1.707  52.958  1.00  0.00     0.003 A 
HETATM   20  C9  UNL     1      24.851   0.476  53.407  1.00  0.00     0.012 A 
HETATM   21  C10 UNL     1      25.489  -0.727  53.188  1.00  0.00     0.001 A 
HETATM   22  C11 UNL     1      26.670  -0.702  52.473  1.00  0.00     0.003 A 
HETATM   23  C12 UNL     1      27.196   0.482  51.992  1.00  0.00     0.037 A 
HETATM   24  C13 UNL     1      26.495   1.664  52.252  1.00  0.00     0.073 A 
BRANCH  24  25
HETATM   25  O1  UNL     1      27.013   2.856  51.773  1.00  0.00    -0.360 OA
HETATM   26  H15 UNL     1      27.190   3.029  50.792  1.00  0.00     0.217 HD
ENDBRANCH  24  25
ENDBRANCH  18  19
ENDBRANCH   7  18
TORSDOF 3
ENDMDL
MODEL 8
REMARK VINA RESULT:      -7.5      3.937      8.938
REMARK  3 active torsions:
REMARK  status: ('A' for Active; 'I' for Inactive)
REMARK    1  A    between atoms: N1_7  and  C7_8 
REMARK    2  A    between atoms: C7_8  and  C8_9 
REMARK    3  A    between atoms: C13_14  and  O1_15 
ROOT
HETATM    1  C1  UNL     1      24.605   2.532  53.234  1.00  0.00     0.049 C 
HETATM    2  C2  UNL     1      23.685   1.977  52.250  1.00  0.00    -0.055 C 
HETATM    3  C3  UNL     1      22.915   1.450  51.275  1.00  0.00    -0.010 C 
HETATM    4  C4  UNL     1      21.769   0.965  50.512  1.00  0.00     0.040 C 
HETATM    5  C5  UNL     1      20.407   0.841  50.493  1.00  0.00    -0.014 C 
HETATM    6  C6  UNL     1      19.157   1.130  51.222  1.00  0.00     0.300 A 
HETATM    7  N1  UNL     1      18.456   0.018  51.823  1.00  0.00     0.134 N 
HETATM    8  C14 UNL     1      18.964  -0.549  53.153  1.00  0.00     0.351 A 
HETATM    9  O2  UNL     1      19.648   0.149  52.433  1.00  0.00     0.000 OA
HETATM   10  N2  UNL     1      20.006  -0.751  54.214  1.00  0.00    -0.348 N 
HETATM   11  C15 UNL     1      21.449  -0.311  54.304  1.00  0.00     0.030 A 
HETATM   12  C16 UNL     1      22.159  -1.397  54.689  1.00  0.00     0.029 A 
HETATM   13  C17 UNL     1      23.469  -1.198  54.196  1.00  0.00     0.003 A 
HETATM   14  C18 UNL     1      23.645   0.023  53.472  1.00  0.00     0.012 A 
HETATM   15  C19 UNL     1      22.797   1.147  53.108  1.00  0.00    -0.028 A 
HETATM   16  C20 UNL     1      21.569   0.866  53.637  1.00  0.00     0.041 A 
HETATM   17  H16 UNL     1      19.421  -1.279  54.833  1.00  0.00     0.162 HD
ENDROOT
BRANCH   7  18
HETATM   18  C7  UNL     1      17.288  -0.801  51.526  1.00  0.00     0.318 C 
BRANCH  18  19
HETATM   19  C8  UNL     1      16.068  -0.045  51.251  1.00  0.00     0.003 A 
HETATM   20  C9  UNL     1      15.236   0.310  52.306  1.00  0.00     0.012 A 
HETATM   21  C10 UNL     1      14.058   1.014  52.171  1.00  0.00     0.001 A 
HETATM   22  C11 UNL     1      13.683   1.390  50.897  1.00  0.00     0.003 A 
HETATM   23  C12 UNL     1      14.456   1.076  49.795  1.00  0.00     0.037 A 
HETATM   24  C13 UNL     1      15.638   0.360  50.008  1.00  0.00     0.073 A 
BRANCH  24  25
HETATM   25  O1  UNL     1      16.422   0.042  48.910  1.00  0.00    -0.360 OA
HETATM   26  H15 UNL     1      16.109   0.153  47.955  1.00  0.00     0.217 HD
ENDBRANCH  24  25
ENDBRANCH  18  19
ENDBRANCH   7  18
TORSDOF 3
ENDMDL
MODEL 9
REMARK VINA RESULT:      -7.3      3.761      7.539
REMARK  3 active torsions:
REMARK  status: ('A' for Active; 'I' for Inactive)
REMARK    1  A    between atoms: N1_7  and  C7_8 
REMARK    2  A    between atoms: C7_8  and  C8_9 
REMARK    3  A    between atoms: C13_14  and  O1_15 
ROOT
HETATM    1  C1  UNL     1      25.638   8.705  49.248  1.00  0.00     0.049 C 
HETATM    2  C2  UNL     1      24.743   7.779  48.568  1.00  0.00    -0.055 C 
HETATM    3  C3  UNL     1      23.930   6.976  47.849  1.00  0.00    -0.010 C 
HETATM    4  C4  UNL     1      23.001   5.918  47.461  1.00  0.00     0.040 C 
HETATM    5  C5  UNL     1      22.226   4.886  47.914  1.00  0.00    -0.014 C 
HETATM    6  C6  UNL     1      21.782   4.144  49.109  1.00  0.00     0.300 A 
HETATM    7  N1  UNL     1      22.283   2.800  49.293  1.00  0.00     0.134 N 
HETATM    8  C14 UNL     1      23.700   2.605  49.842  1.00  0.00     0.351 A 
HETATM    9  O2  UNL     1      23.319   3.655  49.367  1.00  0.00     0.000 OA
HETATM   10  N2  UNL     1      25.092   3.069  50.158  1.00  0.00    -0.348 N 
HETATM   11  C15 UNL     1      25.803   4.374  49.885  1.00  0.00     0.030 A 
HETATM   12  C16 UNL     1      27.011   4.053  49.365  1.00  0.00     0.029 A 
HETATM   13  C17 UNL     1      27.398   5.159  48.573  1.00  0.00     0.003 A 
HETATM   14  C18 UNL     1      26.448   6.229  48.554  1.00  0.00     0.012 A 
HETATM   15  C19 UNL     1      25.151   6.478  49.163  1.00  0.00    -0.028 A 
HETATM   16  C20 UNL     1      24.877   5.368  49.910  1.00  0.00     0.041 A 
HETATM   17  H16 UNL     1      25.385   2.219  50.600  1.00  0.00     0.162 HD
ENDROOT
BRANCH   7  18
HETATM   18  C7  UNL     1      21.797   1.439  49.108  1.00  0.00     0.318 C 
BRANCH  18  19
HETATM   19  C8  UNL     1      20.706   1.056  50.003  1.00  0.00     0.003 A 
HETATM   20  C9  UNL     1      21.004   0.423  51.204  1.00  0.00     0.012 A 
HETATM   21  C10 UNL     1      20.064   0.008  52.123  1.00  0.00     0.001 A 
HETATM   22  C11 UNL     1      18.735   0.239  51.825  1.00  0.00     0.003 A 
HETATM   23  C12 UNL     1      18.358   0.862  50.651  1.00  0.00     0.037 A 
HETATM   24  C13 UNL     1      19.366   1.256  49.766  1.00  0.00     0.073 A 
BRANCH  24  25
HETATM   25  O1  UNL     1      18.998   1.884  48.587  1.00  0.00    -0.360 OA
HETATM   26  H15 UNL     1      19.652   2.380  47.996  1.00  0.00     0.217 HD
ENDBRANCH  24  25
ENDBRANCH  18  19
ENDBRANCH   7  18
TORSDOF 3
ENDMDL
