MODEL 1
REMARK VINA RESULT:      -8.3      0.000      0.000
REMARK  5 active torsions:
REMARK  status: ('A' for Active; 'I' for Inactive)
REMARK    1  A    between atoms: O1_2  and  C2_3 
REMARK    2  A    between atoms: C6_9  and  N3_10 
REMARK    3  A    between atoms: N3_10  and  C7_11 
REMARK    4  A    between atoms: C9_13  and  C10_14 
REMARK    5  A    between atoms: C19_23  and  O2_24 
ROOT
HETATM    1  C2  UNL     1      27.401   0.016  53.707  1.00  0.00     0.102 A 
HETATM    2  C3  UNL     1      27.682   0.828  52.706  1.00  0.00     0.068 A 
HETATM    3  C4  UNL     1      26.613   1.721  52.276  1.00  0.00     0.050 A 
HETATM    4  N1  UNL     1      27.075   2.412  51.266  1.00  0.00    -0.245 NA
HETATM    5  C5  UNL     1      26.362   3.418  50.520  1.00  0.00     0.235 C 
HETATM    6  N2  UNL     1      25.086   3.396  50.320  1.00  0.00    -0.225 NA
HETATM    7  C6  UNL     1      24.111   2.429  50.755  1.00  0.00     0.122 C 
HETATM    8  C16 UNL     1      24.160   1.710  51.895  1.00  0.00     0.038 C 
HETATM    9  C17 UNL     1      25.252   1.835  52.857  1.00  0.00     0.089 A 
HETATM   10  C18 UNL     1      25.140   0.848  53.949  1.00  0.00     0.027 A 
HETATM   11  C19 UNL     1      26.082   0.008  54.367  1.00  0.00     0.096 A 
ENDROOT
BRANCH   7  12
HETATM   12  N3  UNL     1      22.940   2.124  49.994  1.00  0.00    -0.370 N 
HETATM   13  H6  UNL     1      22.849   2.650  49.096  1.00  0.00     0.161 HD
BRANCH  12  14
HETATM   14  C7  UNL     1      21.938   1.178  50.385  1.00  0.00     0.092 A 
HETATM   15  C8  UNL     1      20.890   0.936  49.285  1.00  0.00     0.037 A 
HETATM   16  C9  UNL     1      20.538   1.522  50.643  1.00  0.00     0.043 A 
BRANCH  16  17
HETATM   17  C10 UNL     1      19.739   0.597  51.493  1.00  0.00    -0.052 A 
HETATM   18  C11 UNL     1      18.470   0.237  51.130  1.00  0.00     0.007 A 
HETATM   19  C12 UNL     1      17.668  -0.617  51.871  1.00  0.00     0.001 A 
HETATM   20  C13 UNL     1      18.176  -1.147  53.061  1.00  0.00     0.000 A 
HETATM   21  C14 UNL     1      19.437  -0.802  53.442  1.00  0.00     0.001 A 
HETATM   22  C15 UNL     1      20.227   0.056  52.687  1.00  0.00     0.007 A 
ENDBRANCH  16  17
ENDBRANCH  12  14
ENDBRANCH   7  12
BRANCH  11  23
HETATM   23  O2  UNL     1      25.804  -0.871  55.431  1.00  0.00    -0.358 OA
HETATM   24  H19 UNL     1      24.856  -1.193  55.593  1.00  0.00     0.217 HD
ENDBRANCH  11  23
BRANCH   1  25
HETATM   25  O1  UNL     1      28.310  -0.880  54.213  1.00  0.00    -0.353 OA
HETATM   26  C1  UNL     1      29.629  -0.854  53.717  1.00  0.00     0.210 C 
ENDBRANCH   1  25
TORSDOF 5
ENDMDL
MODEL 2
REMARK VINA RESULT:      -7.9      2.772      7.066
REMARK  5 active torsions:
REMARK  status: ('A' for Active; 'I' for Inactive)
REMARK    1  A    between atoms: O1_2  and  C2_3 
REMARK    2  A    between atoms: C6_9  and  N3_10 
REMARK    3  A    between atoms: N3_10  and  C7_11 
REMARK    4  A    between atoms: C9_13  and  C10_14 
REMARK    5  A    between atoms: C19_23  and  O2_24 
ROOT
HETATM    1  C2  UNL     1      24.940  -0.426  54.224  1.00  0.00     0.102 A 
HETATM    2  C3  UNL     1      23.880  -0.150  53.490  1.00  0.00     0.068 A 
HETATM    3  C4  UNL     1      24.083   0.766  52.374  1.00  0.00     0.050 A 
HETATM    4  N1  UNL     1      22.919   0.932  51.799  1.00  0.00    -0.245 NA
HETATM    5  C5  UNL     1      22.643   1.759  50.651  1.00  0.00     0.235 C 
HETATM    6  N2  UNL     1      23.279   2.851  50.382  1.00  0.00    -0.225 NA
HETATM    7  C6  UNL     1      24.352   3.484  51.104  1.00  0.00     0.122 C 
HETATM    8  C16 UNL     1      25.304   2.856  51.825  1.00  0.00     0.038 C 
HETATM    9  C17 UNL     1      25.358   1.402  51.958  1.00  0.00     0.089 A 
HETATM   10  C18 UNL     1      26.408   0.974  52.902  1.00  0.00     0.027 A 
HETATM   11  C19 UNL     1      26.267   0.151  53.937  1.00  0.00     0.096 A 
ENDROOT
BRANCH   7  12
HETATM   12  N3  UNL     1      24.528   4.903  51.129  1.00  0.00    -0.370 N 
HETATM   13  H6  UNL     1      23.973   5.402  51.860  1.00  0.00     0.161 HD
BRANCH  12  14
HETATM   14  C7  UNL     1      25.387   5.633  50.246  1.00  0.00     0.092 A 
HETATM   15  C8  UNL     1      24.731   5.921  48.885  1.00  0.00     0.037 A 
HETATM   16  C9  UNL     1      25.986   5.074  49.032  1.00  0.00     0.043 A 
BRANCH  16  17
HETATM   17  C10 UNL     1      27.206   5.732  48.490  1.00  0.00    -0.052 A 
HETATM   18  C11 UNL     1      27.146   7.000  47.980  1.00  0.00     0.007 A 
HETATM   19  C12 UNL     1      28.240   7.675  47.458  1.00  0.00     0.001 A 
HETATM   20  C13 UNL     1      29.480   7.030  47.450  1.00  0.00     0.000 A 
HETATM   21  C14 UNL     1      29.563   5.767  47.952  1.00  0.00     0.001 A 
HETATM   22  C15 UNL     1      28.457   5.106  48.471  1.00  0.00     0.007 A 
ENDBRANCH  16  17
ENDBRANCH  12  14
ENDBRANCH   7  12
BRANCH  11  23
HETATM   23  O2  UNL     1      27.384  -0.154  54.737  1.00  0.00    -0.358 OA
HETATM   24  H19 UNL     1      28.320   0.067  54.413  1.00  0.00     0.217 HD
ENDBRANCH  11  23
BRANCH   1  25
HETATM   25  O1  UNL     1      24.895  -1.268  55.307  1.00  0.00    -0.353 OA
HETATM   26  C1  UNL     1      23.636  -1.619  55.835  1.00  0.00     0.210 C 
ENDBRANCH   1  25
TORSDOF 5
ENDMDL
MODEL 3
REMARK VINA RESULT:      -7.9      3.440      7.282
REMARK  5 active torsions:
REMARK  status: ('A' for Active; 'I' for Inactive)
REMARK    1  A    between atoms: O1_2  and  C2_3 
REMARK    2  A    between atoms: C6_9  and  N3_10 
REMARK    3  A    between atoms: N3_10  and  C7_11 
REMARK    4  A    between atoms: C9_13  and  C10_14 
REMARK    5  A    between atoms: C19_23  and  O2_24 
ROOT
HETATM    1  C2  UNL     1      25.480  -0.363  54.090  1.00  0.00     0.102 A 
HETATM    2  C3  UNL     1      24.456   0.200  53.479  1.00  0.00     0.068 A 
HETATM    3  C4  UNL     1      24.745   0.890  52.227  1.00  0.00     0.050 A 
HETATM    4  N1  UNL     1      23.619   1.400  51.802  1.00  0.00    -0.245 NA
HETATM    5  C5  UNL     1      23.429   2.170  50.598  1.00  0.00     0.235 C 
HETATM    6  N2  UNL     1      24.330   2.946  50.092  1.00  0.00    -0.225 NA
HETATM    7  C6  UNL     1      25.662   3.226  50.561  1.00  0.00     0.122 C 
HETATM    8  C16 UNL     1      26.467   2.371  51.224  1.00  0.00     0.038 C 
HETATM    9  C17 UNL     1      26.063   1.006  51.553  1.00  0.00     0.089 A 
HETATM   10  C18 UNL     1      27.065   0.321  52.393  1.00  0.00     0.027 A 
HETATM   11  C19 UNL     1      26.848  -0.309  53.543  1.00  0.00     0.096 A 
ENDROOT
BRANCH   7  12
HETATM   12  N3  UNL     1      26.296   4.492  50.362  1.00  0.00    -0.370 N 
HETATM   13  H6  UNL     1      26.730   4.907  51.216  1.00  0.00     0.161 HD
BRANCH  12  14
HETATM   14  C7  UNL     1      26.360   5.182  49.108  1.00  0.00     0.092 A 
HETATM   15  C8  UNL     1      27.785   5.228  48.530  1.00  0.00     0.037 A 
HETATM   16  C9  UNL     1      27.012   6.479  48.915  1.00  0.00     0.043 A 
BRANCH  16  17
HETATM   17  C10 UNL     1      26.598   7.299  47.744  1.00  0.00    -0.052 A 
HETATM   18  C11 UNL     1      27.535   7.860  46.920  1.00  0.00     0.007 A 
HETATM   19  C12 UNL     1      27.224   8.635  45.812  1.00  0.00     0.001 A 
HETATM   20  C13 UNL     1      25.878   8.863  45.512  1.00  0.00     0.000 A 
HETATM   21  C14 UNL     1      24.928   8.315  46.320  1.00  0.00     0.001 A 
HETATM   22  C15 UNL     1      25.257   7.540  47.426  1.00  0.00     0.007 A 
ENDBRANCH  16  17
ENDBRANCH  12  14
ENDBRANCH   7  12
BRANCH  11  23
HETATM   23  O2  UNL     1      27.927  -0.914  54.216  1.00  0.00    -0.358 OA
HETATM   24  H19 UNL     1      27.852  -1.870  54.546  1.00  0.00     0.217 HD
ENDBRANCH  11  23
BRANCH   1  25
HETATM   25  O1  UNL     1      25.354  -1.042  55.277  1.00  0.00    -0.353 OA
HETATM   26  C1  UNL     1      24.060  -1.340  55.748  1.00  0.00     0.210 C 
ENDBRANCH   1  25
TORSDOF 5
ENDMDL
MODEL 4
REMARK VINA RESULT:      -7.8      2.658      4.228
REMARK  5 active torsions:
REMARK  status: ('A' for Active; 'I' for Inactive)
REMARK    1  A    between atoms: O1_2  and  C2_3 
REMARK    2  A    between atoms: C6_9  and  N3_10 
REMARK    3  A    between atoms: N3_10  and  C7_11 
REMARK    4  A    between atoms: C9_13  and  C10_14 
REMARK    5  A    between atoms: C19_23  and  O2_24 
ROOT
HETATM    1  C2  UNL     1      27.149   0.960  54.043  1.00  0.00     0.102 A 
HETATM    2  C3  UNL     1      26.549   0.240  54.970  1.00  0.00     0.068 A 
HETATM    3  C4  UNL     1      25.284  -0.381  54.593  1.00  0.00     0.050 A 
HETATM    4  N1  UNL     1      24.840  -1.016  55.647  1.00  0.00    -0.245 NA
HETATM    5  C5  UNL     1      23.617  -1.774  55.737  1.00  0.00     0.235 C 
HETATM    6  N2  UNL     1      22.546  -1.491  55.073  1.00  0.00    -0.225 NA
HETATM    7  C6  UNL     1      22.307  -0.423  54.137  1.00  0.00     0.122 C 
HETATM    8  C16 UNL     1      23.220   0.130  53.312  1.00  0.00     0.038 C 
HETATM    9  C17 UNL     1      24.612  -0.312  53.271  1.00  0.00     0.089 A 
HETATM   10  C18 UNL     1      25.434   0.536  52.387  1.00  0.00     0.027 A 
HETATM   11  C19 UNL     1      26.584   1.130  52.691  1.00  0.00     0.096 A 
ENDROOT
BRANCH   7  12
HETATM   12  N3  UNL     1      21.023   0.185  53.977  1.00  0.00    -0.370 N 
HETATM   13  H6  UNL     1      20.402   0.128  54.815  1.00  0.00     0.161 HD
BRANCH  12  14
HETATM   14  C7  UNL     1      20.572   0.835  52.784  1.00  0.00     0.092 A 
HETATM   15  C8  UNL     1      19.162   0.388  52.362  1.00  0.00     0.037 A 
HETATM   16  C9  UNL     1      20.391   0.159  51.497  1.00  0.00     0.043 A 
BRANCH  16  17
HETATM   17  C10 UNL     1      20.407   0.993  50.264  1.00  0.00    -0.052 A 
HETATM   18  C11 UNL     1      21.497   0.993  49.436  1.00  0.00     0.007 A 
HETATM   19  C12 UNL     1      21.583   1.744  48.273  1.00  0.00     0.001 A 
HETATM   20  C13 UNL     1      20.499   2.551  47.917  1.00  0.00     0.000 A 
HETATM   21  C14 UNL     1      19.404   2.568  48.727  1.00  0.00     0.001 A 
HETATM   22  C15 UNL     1      19.334   1.809  49.889  1.00  0.00     0.007 A 
ENDBRANCH  16  17
ENDBRANCH  12  14
ENDBRANCH   7  12
BRANCH  11  23
HETATM   23  O2  UNL     1      27.241   1.908  51.718  1.00  0.00    -0.358 OA
HETATM   24  H19 UNL     1      28.149   2.315  51.918  1.00  0.00     0.217 HD
ENDBRANCH  11  23
BRANCH   1  25
HETATM   25  O1  UNL     1      28.342   1.603  54.260  1.00  0.00    -0.353 OA
HETATM   26  C1  UNL     1      29.535   0.857  54.174  1.00  0.00     0.210 C 
ENDBRANCH   1  25
TORSDOF 5
ENDMDL
MODEL 5
REMARK VINA RESULT:      -7.8      3.454      7.329
REMARK  5 active torsions:
REMARK  status: ('A' for Active; 'I' for Inactive)
REMARK    1  A    between atoms: O1_2  and  C2_3 
REMARK    2  A    between atoms: C6_9  and  N3_10 
REMARK    3  A    between atoms: N3_10  and  C7_11 
REMARK    4  A    between atoms: C9_13  and  C10_14 
REMARK    5  A    between atoms: C19_23  and  O2_24 
ROOT
HETATM    1  C2  UNL     1      19.413  -0.935  53.318  1.00  0.00     0.102 A 
HETATM    2  C3  UNL     1      20.214  -1.586  54.139  1.00  0.00     0.068 A 
HETATM    3  C4  UNL     1      21.516  -0.980  54.393  1.00  0.00     0.050 A 
HETATM    4  N1  UNL     1      22.163  -1.784  55.196  1.00  0.00    -0.245 NA
HETATM    5  C5  UNL     1      23.494  -1.589  55.713  1.00  0.00     0.235 C 
HETATM    6  N2  UNL     1      24.432  -0.975  55.070  1.00  0.00    -0.225 NA
HETATM    7  C6  UNL     1      24.398  -0.370  53.764  1.00  0.00     0.122 C 
HETATM    8  C16 UNL     1      23.328   0.214  53.186  1.00  0.00     0.038 C 
HETATM    9  C17 UNL     1      22.028   0.303  53.847  1.00  0.00     0.089 A 
HETATM   10  C18 UNL     1      20.994   0.864  52.958  1.00  0.00     0.027 A 
HETATM   11  C19 UNL     1      19.801   0.342  52.689  1.00  0.00     0.096 A 
ENDROOT
BRANCH   7  12
HETATM   12  N3  UNL     1      25.545  -0.320  52.911  1.00  0.00    -0.370 N 
HETATM   13  H6  UNL     1      26.216  -1.112  53.030  1.00  0.00     0.161 HD
BRANCH  12  14
HETATM   14  C7  UNL     1      25.802   0.711  51.952  1.00  0.00     0.092 A 
HETATM   15  C8  UNL     1      27.196   1.340  52.116  1.00  0.00     0.037 A 
HETATM   16  C9  UNL     1      25.911   2.134  52.282  1.00  0.00     0.043 A 
BRANCH  16  17
HETATM   17  C10 UNL     1      25.684   3.122  51.191  1.00  0.00    -0.052 A 
HETATM   18  C11 UNL     1      26.676   3.410  50.295  1.00  0.00     0.007 A 
HETATM   19  C12 UNL     1      26.539   4.317  49.255  1.00  0.00     0.001 A 
HETATM   20  C13 UNL     1      25.318   4.982  49.107  1.00  0.00     0.000 A 
HETATM   21  C14 UNL     1      24.316   4.712  49.989  1.00  0.00     0.001 A 
HETATM   22  C15 UNL     1      24.472   3.799  51.025  1.00  0.00     0.007 A 
ENDBRANCH  16  17
ENDBRANCH  12  14
ENDBRANCH   7  12
BRANCH  11  23
HETATM   23  O2  UNL     1      18.931   1.017  51.812  1.00  0.00    -0.358 OA
HETATM   24  H19 UNL     1      19.297   1.690  51.147  1.00  0.00     0.217 HD
ENDBRANCH  11  23
BRANCH   1  25
HETATM   25  O1  UNL     1      18.161  -1.390  52.987  1.00  0.00    -0.353 OA
HETATM   26  C1  UNL     1      17.716  -2.604  53.548  1.00  0.00     0.210 C 
ENDBRANCH   1  25
TORSDOF 5
ENDMDL
MODEL 6
REMARK VINA RESULT:      -7.7      3.120      5.238
REMARK  5 active torsions:
REMARK  status: ('A' for Active; 'I' for Inactive)
REMARK    1  A    between atoms: O1_2  and  C2_3 
REMARK    2  A    between atoms: C6_9  and  N3_10 
REMARK    3  A    between atoms: N3_10  and  C7_11 
REMARK    4  A    between atoms: C9_13  and  C10_14 
REMARK    5  A    between atoms: C19_23  and  O2_24 
ROOT
HETATM    1  C2  UNL     1      26.901   0.931  54.024  1.00  0.00     0.102 A 
HETATM    2  C3  UNL     1      25.911   0.118  54.336  1.00  0.00     0.068 A 
HETATM    3  C4  UNL     1      24.749   0.140  53.456  1.00  0.00     0.050 A 
HETATM    4  N1  UNL     1      23.878  -0.702  53.950  1.00  0.00    -0.245 NA
HETATM    5  C5  UNL     1      22.578  -1.004  53.407  1.00  0.00     0.235 C 
HETATM    6  N2  UNL     1      21.852  -0.151  52.764  1.00  0.00    -0.225 NA
HETATM    7  C6  UNL     1      22.128   1.226  52.443  1.00  0.00     0.122 C 
HETATM    8  C16 UNL     1      23.344   1.756  52.199  1.00  0.00     0.038 C 
HETATM    9  C17 UNL     1      24.569   0.960  52.231  1.00  0.00     0.089 A 
HETATM   10  C18 UNL     1      25.774   1.795  52.063  1.00  0.00     0.027 A 
HETATM   11  C19 UNL     1      26.849   1.816  52.844  1.00  0.00     0.096 A 
ENDROOT
BRANCH   7  12
HETATM   12  N3  UNL     1      21.098   2.213  52.343  1.00  0.00    -0.370 N 
HETATM   13  H6  UNL     1      20.127   1.848  52.461  1.00  0.00     0.161 HD
BRANCH  12  14
HETATM   14  C7  UNL     1      21.326   3.605  52.103  1.00  0.00     0.092 A 
HETATM   15  C8  UNL     1      20.171   4.271  51.335  1.00  0.00     0.037 A 
HETATM   16  C9  UNL     1      21.584   4.181  50.781  1.00  0.00     0.043 A 
BRANCH  16  17
HETATM   17  C10 UNL     1      22.276   5.497  50.717  1.00  0.00    -0.052 A 
HETATM   18  C11 UNL     1      23.536   5.648  51.229  1.00  0.00     0.007 A 
HETATM   19  C12 UNL     1      24.242   6.842  51.206  1.00  0.00     0.001 A 
HETATM   20  C13 UNL     1      23.638   7.963  50.629  1.00  0.00     0.000 A 
HETATM   21  C14 UNL     1      22.384   7.837  50.115  1.00  0.00     0.001 A 
HETATM   22  C15 UNL     1      21.691   6.632  50.146  1.00  0.00     0.007 A 
ENDBRANCH  16  17
ENDBRANCH  12  14
ENDBRANCH   7  12
BRANCH  11  23
HETATM   23  O2  UNL     1      27.916   2.680  52.533  1.00  0.00    -0.358 OA
HETATM   24  H19 UNL     1      28.805   2.586  53.013  1.00  0.00     0.217 HD
ENDBRANCH  11  23
BRANCH   1  25
HETATM   25  O1  UNL     1      28.054   1.016  54.764  1.00  0.00    -0.353 OA
HETATM   26  C1  UNL     1      29.056   0.046  54.565  1.00  0.00     0.210 C 
ENDBRANCH   1  25
TORSDOF 5
ENDMDL
MODEL 7
REMARK VINA RESULT:      -7.4      3.800      6.215
REMARK  5 active torsions:
REMARK  status: ('A' for Active; 'I' for Inactive)
REMARK    1  A    between atoms: O1_2  and  C2_3 
REMARK    2  A    between atoms: C6_9  and  N3_10 
REMARK    3  A    between atoms: N3_10  and  C7_11 
REMARK    4  A    between atoms: C9_13  and  C10_14 
REMARK    5  A    between atoms: C19_23  and  O2_24 
ROOT
HETATM    1  C2  UNL     1      22.266   5.756  49.344  1.00  0.00     0.102 A 
HETATM    2  C3  UNL     1      23.535   6.056  49.149  1.00  0.00     0.068 A 
HETATM    3  C4  UNL     1      24.478   4.944  49.181  1.00  0.00     0.050 A 
HETATM    4  N1  UNL     1      25.672   5.449  49.001  1.00  0.00    -0.245 NA
HETATM    5  C5  UNL     1      26.913   4.717  48.960  1.00  0.00     0.235 C 
HETATM    6  N2  UNL     1      27.133   3.638  49.635  1.00  0.00    -0.225 NA
HETATM    7  C6  UNL     1      26.263   2.934  50.541  1.00  0.00     0.122 C 
HETATM    8  C16 UNL     1      24.919   2.858  50.453  1.00  0.00     0.038 C 
HETATM    9  C17 UNL     1      24.163   3.508  49.385  1.00  0.00     0.089 A 
HETATM   10  C18 UNL     1      22.706   3.387  49.589  1.00  0.00     0.027 A 
HETATM   11  C19 UNL     1      21.813   4.372  49.578  1.00  0.00     0.096 A 
ENDROOT
BRANCH   7  12
HETATM   12  N3  UNL     1      26.754   2.208  51.671  1.00  0.00    -0.370 N 
HETATM   13  H6  UNL     1      27.795   2.134  51.727  1.00  0.00     0.161 HD
BRANCH  12  14
HETATM   14  C7  UNL     1      25.929   1.612  52.677  1.00  0.00     0.092 A 
HETATM   15  C8  UNL     1      26.719   0.688  53.620  1.00  0.00     0.037 A 
HETATM   16  C9  UNL     1      25.594   0.187  52.729  1.00  0.00     0.043 A 
BRANCH  16  17
HETATM   17  C10 UNL     1      24.378  -0.216  53.486  1.00  0.00    -0.052 A 
HETATM   18  C11 UNL     1      23.130   0.076  53.007  1.00  0.00     0.007 A 
HETATM   19  C12 UNL     1      21.953  -0.266  53.657  1.00  0.00     0.001 A 
HETATM   20  C13 UNL     1      22.037  -0.949  54.874  1.00  0.00     0.000 A 
HETATM   21  C14 UNL     1      23.269  -1.249  55.370  1.00  0.00     0.001 A 
HETATM   22  C15 UNL     1      24.437  -0.899  54.705  1.00  0.00     0.007 A 
ENDBRANCH  16  17
ENDBRANCH  12  14
ENDBRANCH   7  12
BRANCH  11  23
HETATM   23  O2  UNL     1      20.452   4.076  49.789  1.00  0.00    -0.358 OA
HETATM   24  H19 UNL     1      19.772   4.825  49.860  1.00  0.00     0.217 HD
ENDBRANCH  11  23
BRANCH   1  25
HETATM   25  O1  UNL     1      21.271   6.702  49.343  1.00  0.00    -0.353 OA
HETATM   26  C1  UNL     1      21.214   7.620  50.411  1.00  0.00     0.210 C 
ENDBRANCH   1  25
TORSDOF 5
ENDMDL
MODEL 8
REMARK VINA RESULT:      -7.3      3.931      7.030
REMARK  5 active torsions:
REMARK  status: ('A' for Active; 'I' for Inactive)
REMARK    1  A    between atoms: O1_2  and  C2_3 
REMARK    2  A    between atoms: C6_9  and  N3_10 
REMARK    3  A    between atoms: N3_10  and  C7_11 
REMARK    4  A    between atoms: C9_13  and  C10_14 
REMARK    5  A    between atoms: C19_23  and  O2_24 
ROOT
HETATM    1  C2  UNL     1      24.829   6.099  49.061  1.00  0.00     0.102 A 
HETATM    2  C3  UNL     1      23.893   5.273  48.636  1.00  0.00     0.068 A 
HETATM    3  C4  UNL     1      23.023   4.697  49.654  1.00  0.00     0.050 A 
HETATM    4  N1  UNL     1      22.194   3.893  49.040  1.00  0.00    -0.245 NA
HETATM    5  C5  UNL     1      21.155   3.105  49.653  1.00  0.00     0.235 C 
HETATM    6  N2  UNL     1      21.232   2.615  50.845  1.00  0.00    -0.225 NA
HETATM    7  C6  UNL     1      22.300   2.718  51.807  1.00  0.00     0.122 C 
HETATM    8  C16 UNL     1      23.141   3.763  51.951  1.00  0.00     0.038 C 
HETATM    9  C17 UNL     1      23.060   4.958  51.115  1.00  0.00     0.089 A 
HETATM   10  C18 UNL     1      24.170   5.894  51.382  1.00  0.00     0.027 A 
HETATM   11  C19 UNL     1      24.992   6.434  50.488  1.00  0.00     0.096 A 
ENDROOT
BRANCH   7  12
HETATM   12  N3  UNL     1      22.587   1.682  52.749  1.00  0.00    -0.370 N 
HETATM   13  H6  UNL     1      21.858   1.541  53.484  1.00  0.00     0.161 HD
BRANCH  12  14
HETATM   14  C7  UNL     1      23.766   0.870  52.732  1.00  0.00     0.092 A 
HETATM   15  C8  UNL     1      23.498  -0.576  53.185  1.00  0.00     0.037 A 
HETATM   16  C9  UNL     1      24.433   0.361  53.933  1.00  0.00     0.043 A 
BRANCH  16  17
HETATM   17  C10 UNL     1      25.866  -0.027  53.823  1.00  0.00    -0.052 A 
HETATM   18  C11 UNL     1      26.785   0.439  54.722  1.00  0.00     0.007 A 
HETATM   19  C12 UNL     1      28.135   0.122  54.682  1.00  0.00     0.001 A 
HETATM   20  C13 UNL     1      28.592  -0.724  53.667  1.00  0.00     0.000 A 
HETATM   21  C14 UNL     1      27.695  -1.199  52.760  1.00  0.00     0.001 A 
HETATM   22  C15 UNL     1      26.346  -0.871  52.815  1.00  0.00     0.007 A 
ENDBRANCH  16  17
ENDBRANCH  12  14
ENDBRANCH   7  12
BRANCH  11  23
HETATM   23  O2  UNL     1      26.003   7.314  50.920  1.00  0.00    -0.358 OA
HETATM   24  H19 UNL     1      25.936   7.762  51.827  1.00  0.00     0.217 HD
ENDBRANCH  11  23
BRANCH   1  25
HETATM   25  O1  UNL     1      25.719   6.711  48.214  1.00  0.00    -0.353 OA
HETATM   26  C1  UNL     1      25.259   7.767  47.402  1.00  0.00     0.210 C 
ENDBRANCH   1  25
TORSDOF 5
ENDMDL
MODEL 9
REMARK VINA RESULT:      -7.3      2.754      4.474
REMARK  5 active torsions:
REMARK  status: ('A' for Active; 'I' for Inactive)
REMARK    1  A    between atoms: O1_2  and  C2_3 
REMARK    2  A    between atoms: C6_9  and  N3_10 
REMARK    3  A    between atoms: N3_10  and  C7_11 
REMARK    4  A    between atoms: C9_13  and  C10_14 
REMARK    5  A    between atoms: C19_23  and  O2_24 
ROOT
HETATM    1  C2  UNL     1      27.641   0.190  53.883  1.00  0.00     0.102 A 
HETATM    2  C3  UNL     1      27.834   0.958  52.829  1.00  0.00     0.068 A 
HETATM    3  C4  UNL     1      26.708   1.786  52.412  1.00  0.00     0.050 A 
HETATM    4  N1  UNL     1      27.088   2.440  51.345  1.00  0.00    -0.245 NA
HETATM    5  C5  UNL     1      26.295   3.377  50.589  1.00  0.00     0.235 C 
HETATM    6  N2  UNL     1      25.013   3.293  50.460  1.00  0.00    -0.225 NA
HETATM    7  C6  UNL     1      24.103   2.314  50.996  1.00  0.00     0.122 C 
HETATM    8  C16 UNL     1      24.241   1.658  52.166  1.00  0.00     0.038 C 
HETATM    9  C17 UNL     1      25.376   1.876  53.060  1.00  0.00     0.089 A 
HETATM   10  C18 UNL     1      25.363   0.945  54.205  1.00  0.00     0.027 A 
HETATM   11  C19 UNL     1      26.360   0.166  54.613  1.00  0.00     0.096 A 
ENDROOT
BRANCH   7  12
HETATM   12  N3  UNL     1      22.907   1.924  50.316  1.00  0.00    -0.370 N 
HETATM   13  H6  UNL     1      22.504   1.010  50.624  1.00  0.00     0.161 HD
BRANCH  12  14
HETATM   14  C7  UNL     1      22.269   2.688  49.287  1.00  0.00     0.092 A 
HETATM   15  C8  UNL     1      21.421   1.819  48.342  1.00  0.00     0.037 A 
HETATM   16  C9  UNL     1      22.625   2.617  47.868  1.00  0.00     0.043 A 
BRANCH  16  17
HETATM   17  C10 UNL     1      22.262   3.770  47.000  1.00  0.00    -0.052 A 
HETATM   18  C11 UNL     1      21.833   3.568  45.716  1.00  0.00     0.007 A 
HETATM   19  C12 UNL     1      21.478   4.592  44.850  1.00  0.00     0.001 A 
HETATM   20  C13 UNL     1      21.561   5.911  45.307  1.00  0.00     0.000 A 
HETATM   21  C14 UNL     1      21.986   6.136  46.580  1.00  0.00     0.001 A 
HETATM   22  C15 UNL     1      22.337   5.097  47.435  1.00  0.00     0.007 A 
ENDBRANCH  16  17
ENDBRANCH  12  14
ENDBRANCH   7  12
BRANCH  11  23
HETATM   23  O2  UNL     1      26.175  -0.666  55.734  1.00  0.00    -0.358 OA
HETATM   24  H19 UNL     1      25.311  -1.186  55.846  1.00  0.00     0.217 HD
ENDBRANCH  11  23
BRANCH   1  25
HETATM   25  O1  UNL     1      28.612  -0.641  54.384  1.00  0.00    -0.353 OA
HETATM   26  C1  UNL     1      29.390  -1.390  53.478  1.00  0.00     0.210 C 
ENDBRANCH   1  25
TORSDOF 5
ENDMDL
