MODEL 1
REMARK VINA RESULT:      -8.6      0.000      0.000
REMARK  10 active torsions:
REMARK  status: ('A' for Active; 'I' for Inactive)
REMARK       I    between atoms: C1_2  and  N1_3 
REMARK    1  A    between atoms: C1_2  and  C4_7 
REMARK    2  A    between atoms: N1_3  and  C2_4 
REMARK    3  A    between atoms: C2_4  and  C3_5 
REMARK    4  A    between atoms: C3_5  and  O2_6 
REMARK    5  A    between atoms: C7_10  and  C8_11 
REMARK    6  A    between atoms: C8_11  and  O3_12 
REMARK    7  A    between atoms: O3_12  and  C9_13 
REMARK    8  A    between atoms: C9_13  and  C10_14 
REMARK    9  A    between atoms: C16_21  and  C17_22 
REMARK   10  A    between atoms: C20_26  and  O4_27 
ROOT
HETATM    1  C4  UNL     1      23.321   0.450  52.892  1.00  0.00     0.032 A 
HETATM    2  C5  UNL     1      22.937   1.523  52.095  1.00  0.00     0.017 A 
HETATM    3  C6  UNL     1      23.920   2.241  51.482  1.00  0.00     0.011 A 
HETATM    4  C7  UNL     1      25.278   2.022  51.562  1.00  0.00    -0.027 A 
HETATM    5  C16 UNL     1      25.674   0.963  52.350  1.00  0.00    -0.033 A 
HETATM    6  C21 UNL     1      24.674   0.209  52.991  1.00  0.00     0.026 A 
ENDROOT
BRANCH   4   7
HETATM    7  C8  UNL     1      26.317   2.846  50.910  1.00  0.00     0.207 C 
BRANCH   7   8
HETATM    8  O3  UNL     1      25.957   4.036  50.448  1.00  0.00    -0.382 OA
BRANCH   8   9
HETATM    9  C9  UNL     1      25.881   4.455  49.203  1.00  0.00     0.209 C 
BRANCH   9  10
HETATM   10  C10 UNL     1      26.796   5.484  48.703  1.00  0.00     0.004 A 
HETATM   11  C11 UNL     1      28.103   4.991  48.523  1.00  0.00     0.012 A 
HETATM   12  C12 UNL     1      29.167   5.754  48.109  1.00  0.00     0.001 A 
HETATM   13  C13 UNL     1      29.012   7.091  47.837  1.00  0.00     0.003 A 
HETATM   14  C14 UNL     1      27.760   7.622  47.995  1.00  0.00     0.043 A 
HETATM   15  C15 UNL     1      26.735   6.821  48.409  1.00  0.00     0.124 A 
HETATM   16  F1  UNL     1      25.478   7.299  48.540  1.00  0.00    -0.205 F 
ENDBRANCH   9  10
ENDBRANCH   8   9
ENDBRANCH   7   8
ENDBRANCH   4   7
BRANCH   5  17
HETATM   17  C17 UNL     1      27.032   0.511  52.616  1.00  0.00     0.117 A 
HETATM   18  C18 UNL     1      27.192  -0.950  52.834  1.00  0.00     0.105 A 
HETATM   19  N2  UNL     1      27.895  -1.146  53.902  1.00  0.00    -0.274 NA
HETATM   20  C19 UNL     1      28.269   0.112  54.500  1.00  0.00     0.148 A 
HETATM   21  C20 UNL     1      27.754   1.097  53.738  1.00  0.00     0.074 A 
BRANCH  21  22
HETATM   22  O4  UNL     1      28.005   2.405  54.155  1.00  0.00    -0.362 OA
HETATM   23  H20 UNL     1      27.200   3.032  54.198  1.00  0.00     0.217 HD
ENDBRANCH  21  22
ENDBRANCH   5  17
BRANCH   1  24
HETATM   24  C1  UNL     1      22.358  -0.379  53.595  1.00  0.00     0.251 C 
HETATM   25  O1  UNL     1      22.764  -1.090  54.572  1.00  0.00    -0.268 OA
HETATM   26  N1  UNL     1      20.985  -0.447  53.258  1.00  0.00    -0.355 N 
HETATM   27  H1  UNL     1      20.657   0.139  52.460  1.00  0.00     0.162 HD
BRANCH  26  28
HETATM   28  C2  UNL     1      19.970  -1.250  53.910  1.00  0.00     0.148 C 
BRANCH  28  29
HETATM   29  C3  UNL     1      18.654  -0.965  53.191  1.00  0.00     0.183 C 
BRANCH  29  30
HETATM   30  O2  UNL     1      17.569  -1.220  54.059  1.00  0.00    -0.399 OA
HETATM   31  H6  UNL     1      17.874  -1.713  54.870  1.00  0.00     0.209 HD
ENDBRANCH  29  30
ENDBRANCH  28  29
ENDBRANCH  26  28
ENDBRANCH   1  24
TORSDOF 10
ENDMDL
MODEL 2
REMARK VINA RESULT:      -8.6      3.516      8.289
REMARK  10 active torsions:
REMARK  status: ('A' for Active; 'I' for Inactive)
REMARK       I    between atoms: C1_2  and  N1_3 
REMARK    1  A    between atoms: C1_2  and  C4_7 
REMARK    2  A    between atoms: N1_3  and  C2_4 
REMARK    3  A    between atoms: C2_4  and  C3_5 
REMARK    4  A    between atoms: C3_5  and  O2_6 
REMARK    5  A    between atoms: C7_10  and  C8_11 
REMARK    6  A    between atoms: C8_11  and  O3_12 
REMARK    7  A    between atoms: O3_12  and  C9_13 
REMARK    8  A    between atoms: C9_13  and  C10_14 
REMARK    9  A    between atoms: C16_21  and  C17_22 
REMARK   10  A    between atoms: C20_26  and  O4_27 
ROOT
HETATM    1  C4  UNL     1      24.960   2.262  51.615  1.00  0.00     0.032 A 
HETATM    2  C5  UNL     1      23.572   2.191  51.655  1.00  0.00     0.017 A 
HETATM    3  C6  UNL     1      23.008   1.219  52.427  1.00  0.00     0.011 A 
HETATM    4  C7  UNL     1      23.669   0.280  53.189  1.00  0.00    -0.027 A 
HETATM    5  C16 UNL     1      25.045   0.337  53.158  1.00  0.00    -0.033 A 
HETATM    6  C21 UNL     1      25.646   1.333  52.367  1.00  0.00     0.026 A 
ENDROOT
BRANCH   4   7
HETATM    7  C8  UNL     1      23.022  -0.782  53.986  1.00  0.00     0.207 C 
BRANCH   7   8
HETATM    8  O3  UNL     1      21.739  -0.631  54.285  1.00  0.00    -0.382 OA
BRANCH   8   9
HETATM    9  C9  UNL     1      20.766  -1.515  54.241  1.00  0.00     0.209 C 
BRANCH   9  10
HETATM   10  C10 UNL     1      19.539  -1.240  53.490  1.00  0.00     0.004 A 
HETATM   11  C11 UNL     1      19.695  -0.168  52.590  1.00  0.00     0.012 A 
HETATM   12  C12 UNL     1      18.691   0.328  51.796  1.00  0.00     0.001 A 
HETATM   13  C13 UNL     1      17.430  -0.212  51.835  1.00  0.00     0.003 A 
HETATM   14  C14 UNL     1      17.222  -1.259  52.693  1.00  0.00     0.043 A 
HETATM   15  C15 UNL     1      18.254  -1.716  53.461  1.00  0.00     0.124 A 
HETATM   16  F1  UNL     1      18.099  -2.770  54.291  1.00  0.00    -0.205 F 
ENDBRANCH   9  10
ENDBRANCH   8   9
ENDBRANCH   7   8
ENDBRANCH   4   7
BRANCH   5  17
HETATM   17  C17 UNL     1      25.987  -0.527  53.855  1.00  0.00     0.117 A 
HETATM   18  C18 UNL     1      26.912   0.157  54.796  1.00  0.00     0.105 A 
HETATM   19  N2  UNL     1      28.120  -0.244  54.571  1.00  0.00    -0.274 NA
HETATM   20  C19 UNL     1      28.143  -1.202  53.493  1.00  0.00     0.148 A 
HETATM   21  C20 UNL     1      26.876  -1.370  53.066  1.00  0.00     0.074 A 
BRANCH  21  22
HETATM   22  O4  UNL     1      26.685  -2.266  52.014  1.00  0.00    -0.362 OA
HETATM   23  H20 UNL     1      26.528  -1.858  51.090  1.00  0.00     0.217 HD
ENDBRANCH  21  22
ENDBRANCH   5  17
BRANCH   1  24
HETATM   24  C1  UNL     1      25.665   3.253  50.822  1.00  0.00     0.251 C 
HETATM   25  O1  UNL     1      26.769   2.925  50.276  1.00  0.00    -0.268 OA
HETATM   26  N1  UNL     1      25.198   4.574  50.619  1.00  0.00    -0.355 N 
HETATM   27  H1  UNL     1      24.293   4.837  51.065  1.00  0.00     0.162 HD
BRANCH  26  28
HETATM   28  C2  UNL     1      25.846   5.614  49.846  1.00  0.00     0.148 C 
BRANCH  28  29
HETATM   29  C3  UNL     1      25.336   6.948  50.386  1.00  0.00     0.183 C 
BRANCH  29  30
HETATM   30  O2  UNL     1      26.423   7.729  50.835  1.00  0.00    -0.399 OA
HETATM   31  H6  UNL     1      26.556   7.620  51.816  1.00  0.00     0.209 HD
ENDBRANCH  29  30
ENDBRANCH  28  29
ENDBRANCH  26  28
ENDBRANCH   1  24
TORSDOF 10
ENDMDL
MODEL 3
REMARK VINA RESULT:      -8.5      4.067      8.705
REMARK  10 active torsions:
REMARK  status: ('A' for Active; 'I' for Inactive)
REMARK       I    between atoms: C1_2  and  N1_3 
REMARK    1  A    between atoms: C1_2  and  C4_7 
REMARK    2  A    between atoms: N1_3  and  C2_4 
REMARK    3  A    between atoms: C2_4  and  C3_5 
REMARK    4  A    between atoms: C3_5  and  O2_6 
REMARK    5  A    between atoms: C7_10  and  C8_11 
REMARK    6  A    between atoms: C8_11  and  O3_12 
REMARK    7  A    between atoms: O3_12  and  C9_13 
REMARK    8  A    between atoms: C9_13  and  C10_14 
REMARK    9  A    between atoms: C16_21  and  C17_22 
REMARK   10  A    between atoms: C20_26  and  O4_27 
ROOT
HETATM    1  C4  UNL     1      27.032   4.999  48.995  1.00  0.00     0.032 A 
HETATM    2  C5  UNL     1      27.168   3.619  49.092  1.00  0.00     0.017 A 
HETATM    3  C6  UNL     1      26.112   2.910  49.584  1.00  0.00     0.011 A 
HETATM    4  C7  UNL     1      24.900   3.414  50.004  1.00  0.00    -0.027 A 
HETATM    5  C16 UNL     1      24.752   4.781  49.916  1.00  0.00    -0.033 A 
HETATM    6  C21 UNL     1      25.830   5.531  49.410  1.00  0.00     0.026 A 
ENDROOT
BRANCH   4   7
HETATM    7  C8  UNL     1      23.791   2.617  50.566  1.00  0.00     0.207 C 
BRANCH   7   8
HETATM    8  O3  UNL     1      24.103   1.504  51.217  1.00  0.00    -0.382 OA
BRANCH   8   9
HETATM    9  C9  UNL     1      24.454   1.348  52.476  1.00  0.00     0.209 C 
BRANCH   9  10
HETATM   10  C10 UNL     1      25.827   0.981  52.829  1.00  0.00     0.004 A 
HETATM   11  C11 UNL     1      26.626   2.108  53.100  1.00  0.00     0.012 A 
HETATM   12  C12 UNL     1      27.962   2.051  53.412  1.00  0.00     0.001 A 
HETATM   13  C13 UNL     1      28.620   0.848  53.478  1.00  0.00     0.003 A 
HETATM   14  C14 UNL     1      27.890  -0.282  53.224  1.00  0.00     0.043 A 
HETATM   15  C15 UNL     1      26.563  -0.172  52.919  1.00  0.00     0.124 A 
HETATM   16  F1  UNL     1      25.800  -1.264  52.699  1.00  0.00    -0.205 F 
ENDBRANCH   9  10
ENDBRANCH   8   9
ENDBRANCH   7   8
ENDBRANCH   4   7
BRANCH   5  17
HETATM   17  C17 UNL     1      23.591   5.576  50.291  1.00  0.00     0.117 A 
HETATM   18  C18 UNL     1      22.777   6.098  49.163  1.00  0.00     0.105 A 
HETATM   19  N2  UNL     1      22.555   7.358  49.346  1.00  0.00    -0.274 NA
HETATM   20  C19 UNL     1      23.174   7.809  50.568  1.00  0.00     0.148 A 
HETATM   21  C20 UNL     1      23.791   6.750  51.129  1.00  0.00     0.074 A 
BRANCH  21  22
HETATM   22  O4  UNL     1      24.460   6.983  52.333  1.00  0.00    -0.362 OA
HETATM   23  H20 UNL     1      24.720   7.951  52.530  1.00  0.00     0.217 HD
ENDBRANCH  21  22
ENDBRANCH   5  17
BRANCH   1  24
HETATM   24  C1  UNL     1      28.094   5.852  48.491  1.00  0.00     0.251 C 
HETATM   25  O1  UNL     1      27.817   6.695  47.576  1.00  0.00    -0.268 OA
HETATM   26  N1  UNL     1      29.430   5.802  48.957  1.00  0.00    -0.355 N 
HETATM   27  H1  UNL     1      29.651   5.112  49.708  1.00  0.00     0.162 HD
BRANCH  26  28
HETATM   28  C2  UNL     1      30.539   6.616  48.502  1.00  0.00     0.148 C 
BRANCH  28  29
HETATM   29  C3  UNL     1      31.775   6.142  49.262  1.00  0.00     0.183 C 
BRANCH  29  30
HETATM   30  O2  UNL     1      31.384   5.482  50.448  1.00  0.00    -0.399 OA
HETATM   31  H6  UNL     1      31.934   4.666  50.596  1.00  0.00     0.209 HD
ENDBRANCH  29  30
ENDBRANCH  28  29
ENDBRANCH  26  28
ENDBRANCH   1  24
TORSDOF 10
ENDMDL
MODEL 4
REMARK VINA RESULT:      -8.5      3.823      8.496
REMARK  10 active torsions:
REMARK  status: ('A' for Active; 'I' for Inactive)
REMARK       I    between atoms: C1_2  and  N1_3 
REMARK    1  A    between atoms: C1_2  and  C4_7 
REMARK    2  A    between atoms: N1_3  and  C2_4 
REMARK    3  A    between atoms: C2_4  and  C3_5 
REMARK    4  A    between atoms: C3_5  and  O2_6 
REMARK    5  A    between atoms: C7_10  and  C8_11 
REMARK    6  A    between atoms: C8_11  and  O3_12 
REMARK    7  A    between atoms: O3_12  and  C9_13 
REMARK    8  A    between atoms: C9_13  and  C10_14 
REMARK    9  A    between atoms: C16_21  and  C17_22 
REMARK   10  A    between atoms: C20_26  and  O4_27 
ROOT
HETATM    1  C4  UNL     1      26.365   5.164  49.215  1.00  0.00     0.032 A 
HETATM    2  C5  UNL     1      26.737   3.843  49.441  1.00  0.00     0.017 A 
HETATM    3  C6  UNL     1      25.759   2.961  49.797  1.00  0.00     0.011 A 
HETATM    4  C7  UNL     1      24.418   3.233  49.962  1.00  0.00    -0.027 A 
HETATM    5  C16 UNL     1      24.036   4.539  49.743  1.00  0.00    -0.033 A 
HETATM    6  C21 UNL     1      25.030   5.464  49.374  1.00  0.00     0.026 A 
ENDROOT
BRANCH   4   7
HETATM    7  C8  UNL     1      23.394   2.257  50.384  1.00  0.00     0.207 C 
BRANCH   7   8
HETATM    8  O3  UNL     1      23.307   1.979  51.678  1.00  0.00    -0.382 OA
BRANCH   8   9
HETATM    9  C9  UNL     1      23.803   0.957  52.343  1.00  0.00     0.209 C 
BRANCH   9  10
HETATM   10  C10 UNL     1      25.204   0.950  52.768  1.00  0.00     0.004 A 
HETATM   11  C11 UNL     1      25.876  -0.220  52.367  1.00  0.00     0.012 A 
HETATM   12  C12 UNL     1      27.184  -0.504  52.673  1.00  0.00     0.001 A 
HETATM   13  C13 UNL     1      27.940   0.368  53.415  1.00  0.00     0.003 A 
HETATM   14  C14 UNL     1      27.336   1.525  53.831  1.00  0.00     0.043 A 
HETATM   15  C15 UNL     1      26.032   1.761  53.500  1.00  0.00     0.124 A 
HETATM   16  F1  UNL     1      25.412   2.906  53.859  1.00  0.00    -0.205 F 
ENDBRANCH   9  10
ENDBRANCH   8   9
ENDBRANCH   7   8
ENDBRANCH   4   7
BRANCH   5  17
HETATM   17  C17 UNL     1      22.699   5.104  49.849  1.00  0.00     0.117 A 
HETATM   18  C18 UNL     1      22.308   6.042  48.765  1.00  0.00     0.105 A 
HETATM   19  N2  UNL     1      21.810   7.114  49.288  1.00  0.00    -0.274 NA
HETATM   20  C19 UNL     1      21.813   7.023  50.728  1.00  0.00     0.148 A 
HETATM   21  C20 UNL     1      22.342   5.829  51.062  1.00  0.00     0.074 A 
BRANCH  21  22
HETATM   22  O4  UNL     1      22.436   5.547  52.425  1.00  0.00    -0.362 OA
HETATM   23  H20 UNL     1      21.633   5.807  53.001  1.00  0.00     0.217 HD
ENDBRANCH  21  22
ENDBRANCH   5  17
BRANCH   1  24
HETATM   24  C1  UNL     1      27.324   6.186  48.836  1.00  0.00     0.251 C 
HETATM   25  O1  UNL     1      28.178   5.916  47.930  1.00  0.00    -0.268 OA
HETATM   26  N1  UNL     1      27.368   7.476  49.418  1.00  0.00    -0.355 N 
HETATM   27  H1  UNL     1      26.665   7.694  50.157  1.00  0.00     0.162 HD
BRANCH  26  28
HETATM   28  C2  UNL     1      28.293   8.543  49.094  1.00  0.00     0.148 C 
BRANCH  28  29
HETATM   29  C3  UNL     1      27.737   9.816  49.728  1.00  0.00     0.183 C 
BRANCH  29  30
HETATM   30  O2  UNL     1      27.604   9.638  51.122  1.00  0.00    -0.399 OA
HETATM   31  H6  UNL     1      27.029  10.351  51.516  1.00  0.00     0.209 HD
ENDBRANCH  29  30
ENDBRANCH  28  29
ENDBRANCH  26  28
ENDBRANCH   1  24
TORSDOF 10
ENDMDL
MODEL 5
REMARK VINA RESULT:      -8.5      4.397      9.207
REMARK  10 active torsions:
REMARK  status: ('A' for Active; 'I' for Inactive)
REMARK       I    between atoms: C1_2  and  N1_3 
REMARK    1  A    between atoms: C1_2  and  C4_7 
REMARK    2  A    between atoms: N1_3  and  C2_4 
REMARK    3  A    between atoms: C2_4  and  C3_5 
REMARK    4  A    between atoms: C3_5  and  O2_6 
REMARK    5  A    between atoms: C7_10  and  C8_11 
REMARK    6  A    between atoms: C8_11  and  O3_12 
REMARK    7  A    between atoms: O3_12  and  C9_13 
REMARK    8  A    between atoms: C9_13  and  C10_14 
REMARK    9  A    between atoms: C16_21  and  C17_22 
REMARK   10  A    between atoms: C20_26  and  O4_27 
ROOT
HETATM    1  C4  UNL     1      27.474   6.092  48.583  1.00  0.00     0.032 A 
HETATM    2  C5  UNL     1      27.908   4.772  48.646  1.00  0.00     0.017 A 
HETATM    3  C6  UNL     1      27.037   3.840  49.126  1.00  0.00     0.011 A 
HETATM    4  C7  UNL     1      25.749   4.058  49.566  1.00  0.00    -0.027 A 
HETATM    5  C16 UNL     1      25.306   5.362  49.511  1.00  0.00    -0.033 A 
HETATM    6  C21 UNL     1      26.190   6.339  49.018  1.00  0.00     0.026 A 
ENDROOT
BRANCH   4   7
HETATM    7  C8  UNL     1      24.846   3.026  50.114  1.00  0.00     0.207 C 
BRANCH   7   8
HETATM    8  O3  UNL     1      25.043   2.641  51.367  1.00  0.00    -0.382 OA
BRANCH   8   9
HETATM    9  C9  UNL     1      25.234   1.430  51.844  1.00  0.00     0.209 C 
BRANCH   9  10
HETATM   10  C10 UNL     1      26.502   1.069  52.482  1.00  0.00     0.004 A 
HETATM   11  C11 UNL     1      27.241   2.202  52.874  1.00  0.00     0.012 A 
HETATM   12  C12 UNL     1      28.485   2.151  53.454  1.00  0.00     0.001 A 
HETATM   13  C13 UNL     1      29.103   0.949  53.692  1.00  0.00     0.003 A 
HETATM   14  C14 UNL     1      28.428  -0.187  53.330  1.00  0.00     0.043 A 
HETATM   15  C15 UNL     1      27.192  -0.083  52.758  1.00  0.00     0.124 A 
HETATM   16  F1  UNL     1      26.479  -1.179  52.422  1.00  0.00    -0.205 F 
ENDBRANCH   9  10
ENDBRANCH   8   9
ENDBRANCH   7   8
ENDBRANCH   4   7
BRANCH   5  17
HETATM   17  C17 UNL     1      24.005   5.876  49.912  1.00  0.00     0.117 A 
HETATM   18  C18 UNL     1      23.179   6.458  48.822  1.00  0.00     0.105 A 
HETATM   19  N2  UNL     1      22.730   7.611  49.197  1.00  0.00    -0.274 NA
HETATM   20  C19 UNL     1      23.189   7.924  50.528  1.00  0.00     0.148 A 
HETATM   21  C20 UNL     1      23.947   6.895  50.953  1.00  0.00     0.074 A 
BRANCH  21  22
HETATM   22  O4  UNL     1      24.494   7.007  52.232  1.00  0.00    -0.362 OA
HETATM   23  H20 UNL     1      23.840   7.212  52.991  1.00  0.00     0.217 HD
ENDBRANCH  21  22
ENDBRANCH   5  17
BRANCH   1  24
HETATM   24  C1  UNL     1      28.320   7.165  48.094  1.00  0.00     0.251 C 
HETATM   25  O1  UNL     1      28.018   7.725  46.989  1.00  0.00    -0.268 OA
HETATM   26  N1  UNL     1      29.471   7.632  48.774  1.00  0.00    -0.355 N 
HETATM   27  H1  UNL     1      29.712   7.173  49.679  1.00  0.00     0.162 HD
BRANCH  26  28
HETATM   28  C2  UNL     1      30.360   8.693  48.347  1.00  0.00     0.148 C 
BRANCH  28  29
HETATM   29  C3  UNL     1      29.923   9.957  49.082  1.00  0.00     0.183 C 
BRANCH  29  30
HETATM   30  O2  UNL     1      30.558  10.023  50.342  1.00  0.00    -0.399 OA
HETATM   31  H6  UNL     1      30.546   9.133  50.790  1.00  0.00     0.209 HD
ENDBRANCH  29  30
ENDBRANCH  28  29
ENDBRANCH  26  28
ENDBRANCH   1  24
TORSDOF 10
ENDMDL
MODEL 6
REMARK VINA RESULT:      -8.4      2.053      5.431
REMARK  10 active torsions:
REMARK  status: ('A' for Active; 'I' for Inactive)
REMARK       I    between atoms: C1_2  and  N1_3 
REMARK    1  A    between atoms: C1_2  and  C4_7 
REMARK    2  A    between atoms: N1_3  and  C2_4 
REMARK    3  A    between atoms: C2_4  and  C3_5 
REMARK    4  A    between atoms: C3_5  and  O2_6 
REMARK    5  A    between atoms: C7_10  and  C8_11 
REMARK    6  A    between atoms: C8_11  and  O3_12 
REMARK    7  A    between atoms: O3_12  and  C9_13 
REMARK    8  A    between atoms: C9_13  and  C10_14 
REMARK    9  A    between atoms: C16_21  and  C17_22 
REMARK   10  A    between atoms: C20_26  and  O4_27 
ROOT
HETATM    1  C4  UNL     1      25.641   0.790  53.663  1.00  0.00     0.032 A 
HETATM    2  C5  UNL     1      25.716   2.173  53.541  1.00  0.00     0.017 A 
HETATM    3  C6  UNL     1      24.609   2.832  53.095  1.00  0.00     0.011 A 
HETATM    4  C7  UNL     1      23.399   2.275  52.743  1.00  0.00    -0.027 A 
HETATM    5  C16 UNL     1      23.310   0.904  52.857  1.00  0.00    -0.033 A 
HETATM    6  C21 UNL     1      24.442   0.206  53.317  1.00  0.00     0.026 A 
ENDROOT
BRANCH   4   7
HETATM    7  C8  UNL     1      22.232   3.019  52.229  1.00  0.00     0.207 C 
BRANCH   7   8
HETATM    8  O3  UNL     1      22.410   3.771  51.150  1.00  0.00    -0.382 OA
BRANCH   8   9
HETATM    9  C9  UNL     1      22.954   3.451  49.995  1.00  0.00     0.209 C 
BRANCH   9  10
HETATM   10  C10 UNL     1      24.231   4.038  49.583  1.00  0.00     0.004 A 
HETATM   11  C11 UNL     1      25.300   3.132  49.717  1.00  0.00     0.012 A 
HETATM   12  C12 UNL     1      26.611   3.438  49.444  1.00  0.00     0.001 A 
HETATM   13  C13 UNL     1      26.968   4.690  49.010  1.00  0.00     0.003 A 
HETATM   14  C14 UNL     1      25.966   5.611  48.861  1.00  0.00     0.043 A 
HETATM   15  C15 UNL     1      24.677   5.258  49.144  1.00  0.00     0.124 A 
HETATM   16  F1  UNL     1      23.656   6.125  48.974  1.00  0.00    -0.205 F 
ENDBRANCH   9  10
ENDBRANCH   8   9
ENDBRANCH   7   8
ENDBRANCH   4   7
BRANCH   5  17
HETATM   17  C17 UNL     1      22.165   0.059  52.552  1.00  0.00     0.117 A 
HETATM   18  C18 UNL     1      21.568   0.247  51.203  1.00  0.00     0.105 A 
HETATM   19  N2  UNL     1      20.286   0.372  51.319  1.00  0.00    -0.274 NA
HETATM   20  C19 UNL     1      19.893   0.288  52.704  1.00  0.00     0.148 A 
HETATM   21  C20 UNL     1      21.009   0.104  53.437  1.00  0.00     0.074 A 
BRANCH  21  22
HETATM   22  O4  UNL     1      20.839   0.000  54.819  1.00  0.00    -0.362 OA
HETATM   23  H20 UNL     1      19.884  -0.148  55.151  1.00  0.00     0.217 HD
ENDBRANCH  21  22
ENDBRANCH   5  17
BRANCH   1  24
HETATM   24  C1  UNL     1      26.760  -0.012  54.124  1.00  0.00     0.251 C 
HETATM   25  O1  UNL     1      26.680  -0.571  55.266  1.00  0.00    -0.268 OA
HETATM   26  N1  UNL     1      27.945  -0.211  53.375  1.00  0.00    -0.355 N 
HETATM   27  H1  UNL     1      28.004   0.246  52.439  1.00  0.00     0.162 HD
BRANCH  26  28
HETATM   28  C2  UNL     1      29.099  -0.993  53.769  1.00  0.00     0.148 C 
BRANCH  28  29
HETATM   29  C3  UNL     1      28.991  -2.334  53.048  1.00  0.00     0.183 C 
BRANCH  29  30
HETATM   30  O2  UNL     1      27.669  -2.823  53.142  1.00  0.00    -0.399 OA
HETATM   31  H6  UNL     1      27.080  -2.162  53.598  1.00  0.00     0.209 HD
ENDBRANCH  29  30
ENDBRANCH  28  29
ENDBRANCH  26  28
ENDBRANCH   1  24
TORSDOF 10
ENDMDL
MODEL 7
REMARK VINA RESULT:      -8.3      3.659      6.503
REMARK  10 active torsions:
REMARK  status: ('A' for Active; 'I' for Inactive)
REMARK       I    between atoms: C1_2  and  N1_3 
REMARK    1  A    between atoms: C1_2  and  C4_7 
REMARK    2  A    between atoms: N1_3  and  C2_4 
REMARK    3  A    between atoms: C2_4  and  C3_5 
REMARK    4  A    between atoms: C3_5  and  O2_6 
REMARK    5  A    between atoms: C7_10  and  C8_11 
REMARK    6  A    between atoms: C8_11  and  O3_12 
REMARK    7  A    between atoms: O3_12  and  C9_13 
REMARK    8  A    between atoms: C9_13  and  C10_14 
REMARK    9  A    between atoms: C16_21  and  C17_22 
REMARK   10  A    between atoms: C20_26  and  O4_27 
ROOT
HETATM    1  C4  UNL     1      24.069   0.215  53.377  1.00  0.00     0.032 A 
HETATM    2  C5  UNL     1      22.852  -0.257  53.854  1.00  0.00     0.017 A 
HETATM    3  C6  UNL     1      21.723   0.411  53.483  1.00  0.00     0.011 A 
HETATM    4  C7  UNL     1      21.647   1.522  52.672  1.00  0.00    -0.027 A 
HETATM    5  C16 UNL     1      22.846   2.003  52.192  1.00  0.00    -0.033 A 
HETATM    6  C21 UNL     1      24.023   1.327  52.564  1.00  0.00     0.026 A 
ENDROOT
BRANCH   4   7
HETATM    7  C8  UNL     1      20.405   2.241  52.320  1.00  0.00     0.207 C 
BRANCH   7   8
HETATM    8  O3  UNL     1      19.509   1.596  51.587  1.00  0.00    -0.382 OA
BRANCH   8   9
HETATM    9  C9  UNL     1      19.213   1.746  50.313  1.00  0.00     0.209 C 
BRANCH   9  10
HETATM   10  C10 UNL     1      20.266   1.984  49.324  1.00  0.00     0.004 A 
HETATM   11  C11 UNL     1      20.102   3.214  48.658  1.00  0.00     0.012 A 
HETATM   12  C12 UNL     1      20.922   3.663  47.652  1.00  0.00     0.001 A 
HETATM   13  C13 UNL     1      21.987   2.912  47.222  1.00  0.00     0.003 A 
HETATM   14  C14 UNL     1      22.194   1.706  47.837  1.00  0.00     0.043 A 
HETATM   15  C15 UNL     1      21.350   1.305  48.833  1.00  0.00     0.124 A 
HETATM   16  F1  UNL     1      21.542   0.140  49.489  1.00  0.00    -0.205 F 
ENDBRANCH   9  10
ENDBRANCH   8   9
ENDBRANCH   7   8
ENDBRANCH   4   7
BRANCH   5  17
HETATM   17  C17 UNL     1      23.061   3.154  51.328  1.00  0.00     0.117 A 
HETATM   18  C18 UNL     1      24.252   3.080  50.442  1.00  0.00     0.105 A 
HETATM   19  N2  UNL     1      24.924   4.180  50.539  1.00  0.00    -0.274 NA
HETATM   20  C19 UNL     1      24.288   5.082  51.468  1.00  0.00     0.148 A 
HETATM   21  C20 UNL     1      23.182   4.472  51.938  1.00  0.00     0.074 A 
BRANCH  21  22
HETATM   22  O4  UNL     1      22.420   5.187  52.863  1.00  0.00    -0.362 OA
HETATM   23  H20 UNL     1      22.839   5.334  53.783  1.00  0.00     0.217 HD
ENDBRANCH  21  22
ENDBRANCH   5  17
BRANCH   1  24
HETATM   24  C1  UNL     1      25.333  -0.415  53.712  1.00  0.00     0.251 C 
HETATM   25  O1  UNL     1      25.482  -0.900  54.882  1.00  0.00    -0.268 OA
HETATM   26  N1  UNL     1      26.420  -0.525  52.812  1.00  0.00    -0.355 N 
HETATM   27  H1  UNL     1      26.293  -0.130  51.855  1.00  0.00     0.162 HD
BRANCH  26  28
HETATM   28  C2  UNL     1      27.707  -1.137  53.076  1.00  0.00     0.148 C 
BRANCH  28  29
HETATM   29  C3  UNL     1      27.607  -2.590  52.618  1.00  0.00     0.183 C 
BRANCH  29  30
HETATM   30  O2  UNL     1      28.521  -3.384  53.345  1.00  0.00    -0.399 OA
HETATM   31  H6  UNL     1      28.124  -4.272  53.560  1.00  0.00     0.209 HD
ENDBRANCH  29  30
ENDBRANCH  28  29
ENDBRANCH  26  28
ENDBRANCH   1  24
TORSDOF 10
ENDMDL
MODEL 8
REMARK VINA RESULT:      -8.2      4.375      9.510
REMARK  10 active torsions:
REMARK  status: ('A' for Active; 'I' for Inactive)
REMARK       I    between atoms: C1_2  and  N1_3 
REMARK    1  A    between atoms: C1_2  and  C4_7 
REMARK    2  A    between atoms: N1_3  and  C2_4 
REMARK    3  A    between atoms: C2_4  and  C3_5 
REMARK    4  A    between atoms: C3_5  and  O2_6 
REMARK    5  A    between atoms: C7_10  and  C8_11 
REMARK    6  A    between atoms: C8_11  and  O3_12 
REMARK    7  A    between atoms: O3_12  and  C9_13 
REMARK    8  A    between atoms: C9_13  and  C10_14 
REMARK    9  A    between atoms: C16_21  and  C17_22 
REMARK   10  A    between atoms: C20_26  and  O4_27 
ROOT
HETATM    1  C4  UNL     1      24.734  -0.442  53.927  1.00  0.00     0.032 A 
HETATM    2  C5  UNL     1      24.024  -1.141  54.897  1.00  0.00     0.017 A 
HETATM    3  C6  UNL     1      22.670  -0.981  54.931  1.00  0.00     0.011 A 
HETATM    4  C7  UNL     1      21.909  -0.191  54.097  1.00  0.00    -0.027 A 
HETATM    5  C16 UNL     1      22.599   0.510  53.132  1.00  0.00    -0.033 A 
HETATM    6  C21 UNL     1      23.997   0.357  53.080  1.00  0.00     0.026 A 
ENDROOT
BRANCH   4   7
HETATM    7  C8  UNL     1      20.445  -0.015  54.188  1.00  0.00     0.207 C 
BRANCH   7   8
HETATM    8  O3  UNL     1      19.684  -0.818  53.458  1.00  0.00    -0.382 OA
BRANCH   8   9
HETATM    9  C9  UNL     1      18.488  -0.598  52.953  1.00  0.00     0.209 C 
BRANCH   9  10
HETATM   10  C10 UNL     1      17.477  -1.657  52.936  1.00  0.00     0.004 A 
HETATM   11  C11 UNL     1      17.897  -2.805  53.634  1.00  0.00     0.012 A 
HETATM   12  C12 UNL     1      17.163  -3.960  53.736  1.00  0.00     0.001 A 
HETATM   13  C13 UNL     1      15.931  -4.068  53.140  1.00  0.00     0.003 A 
HETATM   14  C14 UNL     1      15.473  -2.979  52.447  1.00  0.00     0.043 A 
HETATM   15  C15 UNL     1      16.241  -1.852  52.376  1.00  0.00     0.124 A 
HETATM   16  F1  UNL     1      15.808  -0.745  51.735  1.00  0.00    -0.205 F 
ENDBRANCH   9  10
ENDBRANCH   8   9
ENDBRANCH   7   8
ENDBRANCH   4   7
BRANCH   5  17
HETATM   17  C17 UNL     1      22.056   1.415  52.131  1.00  0.00     0.117 A 
HETATM   18  C18 UNL     1      21.806   0.820  50.792  1.00  0.00     0.105 A 
HETATM   19  N2  UNL     1      22.315   1.586  49.884  1.00  0.00    -0.274 NA
HETATM   20  C19 UNL     1      22.943   2.737  50.486  1.00  0.00     0.148 A 
HETATM   21  C20 UNL     1      22.791   2.635  51.821  1.00  0.00     0.074 A 
BRANCH  21  22
HETATM   22  O4  UNL     1      23.338   3.662  52.593  1.00  0.00    -0.362 OA
HETATM   23  H20 UNL     1      22.762   4.010  53.362  1.00  0.00     0.217 HD
ENDBRANCH  21  22
ENDBRANCH   5  17
BRANCH   1  24
HETATM   24  C1  UNL     1      26.178  -0.535  53.804  1.00  0.00     0.251 C 
HETATM   25  O1  UNL     1      26.667  -1.083  52.762  1.00  0.00    -0.268 OA
HETATM   26  N1  UNL     1      27.083  -0.049  54.778  1.00  0.00    -0.355 N 
HETATM   27  H1  UNL     1      26.677   0.402  55.627  1.00  0.00     0.162 HD
BRANCH  26  28
HETATM   28  C2  UNL     1      28.529  -0.107  54.725  1.00  0.00     0.148 C 
BRANCH  28  29
HETATM   29  C3  UNL     1      29.014   1.294  54.363  1.00  0.00     0.183 C 
BRANCH  29  30
HETATM   30  O2  UNL     1      29.766   1.247  53.169  1.00  0.00    -0.399 OA
HETATM   31  H6  UNL     1      29.621   2.071  52.627  1.00  0.00     0.209 HD
ENDBRANCH  29  30
ENDBRANCH  28  29
ENDBRANCH  26  28
ENDBRANCH   1  24
TORSDOF 10
ENDMDL
MODEL 9
REMARK VINA RESULT:      -8.2      3.571      6.548
REMARK  10 active torsions:
REMARK  status: ('A' for Active; 'I' for Inactive)
REMARK       I    between atoms: C1_2  and  N1_3 
REMARK    1  A    between atoms: C1_2  and  C4_7 
REMARK    2  A    between atoms: N1_3  and  C2_4 
REMARK    3  A    between atoms: C2_4  and  C3_5 
REMARK    4  A    between atoms: C3_5  and  O2_6 
REMARK    5  A    between atoms: C7_10  and  C8_11 
REMARK    6  A    between atoms: C8_11  and  O3_12 
REMARK    7  A    between atoms: O3_12  and  C9_13 
REMARK    8  A    between atoms: C9_13  and  C10_14 
REMARK    9  A    between atoms: C16_21  and  C17_22 
REMARK   10  A    between atoms: C20_26  and  O4_27 
ROOT
HETATM    1  C4  UNL     1      24.828   0.093  53.528  1.00  0.00     0.032 A 
HETATM    2  C5  UNL     1      23.707  -0.576  54.005  1.00  0.00     0.017 A 
HETATM    3  C6  UNL     1      22.484  -0.150  53.576  1.00  0.00     0.011 A 
HETATM    4  C7  UNL     1      22.227   0.887  52.706  1.00  0.00    -0.027 A 
HETATM    5  C16 UNL     1      23.329   1.560  52.226  1.00  0.00    -0.033 A 
HETATM    6  C21 UNL     1      24.600   1.136  52.657  1.00  0.00     0.026 A 
ENDROOT
BRANCH   4   7
HETATM    7  C8  UNL     1      20.884   1.342  52.292  1.00  0.00     0.207 C 
BRANCH   7   8
HETATM    8  O3  UNL     1      20.223   0.593  51.420  1.00  0.00    -0.382 OA
BRANCH   8   9
HETATM    9  C9  UNL     1      19.765   0.912  50.229  1.00  0.00     0.209 C 
BRANCH   9  10
HETATM   10  C10 UNL     1      20.492   1.857  49.377  1.00  0.00     0.004 A 
HETATM   11  C11 UNL     1      21.483   1.222  48.604  1.00  0.00     0.012 A 
HETATM   12  C12 UNL     1      22.339   1.878  47.755  1.00  0.00     0.001 A 
HETATM   13  C13 UNL     1      22.277   3.242  47.606  1.00  0.00     0.003 A 
HETATM   14  C14 UNL     1      21.330   3.910  48.334  1.00  0.00     0.043 A 
HETATM   15  C15 UNL     1      20.501   3.211  49.164  1.00  0.00     0.124 A 
HETATM   16  F1  UNL     1      19.529   3.828  49.871  1.00  0.00    -0.205 F 
ENDBRANCH   9  10
ENDBRANCH   8   9
ENDBRANCH   7   8
ENDBRANCH   4   7
BRANCH   5  17
HETATM   17  C17 UNL     1      23.352   2.688  51.307  1.00  0.00     0.117 A 
HETATM   18  C18 UNL     1      24.617   2.876  50.550  1.00  0.00     0.105 A 
HETATM   19  N2  UNL     1      24.983   4.113  50.634  1.00  0.00    -0.274 NA
HETATM   20  C19 UNL     1      24.044   4.866  51.428  1.00  0.00     0.148 A 
HETATM   21  C20 UNL     1      23.076   4.020  51.830  1.00  0.00     0.074 A 
BRANCH  21  22
HETATM   22  O4  UNL     1      22.062   4.561  52.621  1.00  0.00    -0.362 OA
HETATM   23  H20 UNL     1      22.068   4.303  53.610  1.00  0.00     0.217 HD
ENDBRANCH  21  22
ENDBRANCH   5  17
BRANCH   1  24
HETATM   24  C1  UNL     1      26.177  -0.273  53.922  1.00  0.00     0.251 C 
HETATM   25  O1  UNL     1      26.580  -1.460  53.691  1.00  0.00    -0.268 OA
HETATM   26  N1  UNL     1      27.079   0.617  54.554  1.00  0.00    -0.355 N 
HETATM   27  H1  UNL     1      26.746   1.587  54.739  1.00  0.00     0.162 HD
BRANCH  26  28
HETATM   28  C2  UNL     1      28.434   0.323  54.977  1.00  0.00     0.148 C 
BRANCH  28  29
HETATM   29  C3  UNL     1      29.363   1.104  54.050  1.00  0.00     0.183 C 
BRANCH  29  30
HETATM   30  O2  UNL     1      29.359   2.470  54.408  1.00  0.00    -0.399 OA
HETATM   31  H6  UNL     1      30.289   2.803  54.539  1.00  0.00     0.209 HD
ENDBRANCH  29  30
ENDBRANCH  28  29
ENDBRANCH  26  28
ENDBRANCH   1  24
TORSDOF 10
ENDMDL
