MODEL 1
REMARK VINA RESULT:      -6.4      0.000      0.000
REMARK  10 active torsions:
REMARK  status: ('A' for Active; 'I' for Inactive)
REMARK    1  A    between atoms: C2_2  and  C3_3 
REMARK    2  A    between atoms: C3_3  and  C4_4 
REMARK    3  A    between atoms: C4_4  and  C5_5 
REMARK    4  A    between atoms: C5_5  and  C6_6 
REMARK    5  A    between atoms: C6_6  and  C7_7 
REMARK    6  A    between atoms: C7_7  and  N1_8 
REMARK    7  A    between atoms: C11_12  and  N2_13 
REMARK    8  A    between atoms: N2_13  and  C12_14 
REMARK    9  A    between atoms: C12_14  and  C13_15 
REMARK   10  A    between atoms: C13_15  and  C14_16 
ROOT
HETATM    1  N1  UNL     1      22.851   0.076  53.778  1.00  0.00    -0.341 N 
HETATM    2  C8  UNL     1      23.923  -0.631  53.736  1.00  0.00     0.093 A 
HETATM    3  C9  UNL     1      25.147  -0.565  53.273  1.00  0.00     0.036 A 
HETATM    4  C10 UNL     1      24.837   0.766  52.755  1.00  0.00     0.057 A 
HETATM    5  C11 UNL     1      25.340   1.968  51.906  1.00  0.00     0.139 A 
HETATM    6  N3  UNL     1      24.619   2.991  51.598  1.00  0.00    -0.224 NA
HETATM    7  C16 UNL     1      23.309   3.145  51.984  1.00  0.00     0.237 A 
HETATM    8  N4  UNL     1      22.798   2.251  52.676  1.00  0.00    -0.223 NA
HETATM    9  C17 UNL     1      23.476   1.098  53.076  1.00  0.00     0.145 A 
ENDROOT
BRANCH   1  10
HETATM   10  C7  UNL     1      21.757  -0.414  54.553  1.00  0.00     0.131 C 
BRANCH  10  11
HETATM   11  C6  UNL     1      20.563  -0.312  53.545  1.00  0.00    -0.005 C 
BRANCH  11  12
HETATM   12  C5  UNL     1      19.567  -0.383  52.728  1.00  0.00     0.026 C 
BRANCH  12  13
HETATM   13  C4  UNL     1      18.188  -0.383  51.933  1.00  0.00     0.000 C 
BRANCH  13  14
HETATM   14  C3  UNL     1      17.636  -1.052  53.048  1.00  0.00    -0.000 C 
BRANCH  14  15
HETATM   15  C2  UNL     1      16.904  -2.269  52.888  1.00  0.00     0.013 C 
HETATM   16  C1  UNL     1      17.486  -3.259  53.631  1.00  0.00    -0.012 C 
ENDBRANCH  14  15
ENDBRANCH  13  14
ENDBRANCH  12  13
ENDBRANCH  11  12
ENDBRANCH  10  11
ENDBRANCH   1  10
BRANCH   5  17
HETATM   17  N2  UNL     1      26.640   1.596  51.381  1.00  0.00    -0.374 N 
HETATM   18  H12 UNL     1      27.110   1.145  50.574  1.00  0.00     0.161 HD
BRANCH  17  19
HETATM   19  C12 UNL     1      27.438   2.056  52.447  1.00  0.00     0.064 C 
BRANCH  19  20
HETATM   20  C13 UNL     1      28.473   2.410  53.431  1.00  0.00     0.051 C 
BRANCH  20  21
HETATM   21  C14 UNL     1      28.455   1.213  54.432  1.00  0.00     0.038 C 
HETATM   22  C15 UNL     1      28.752  -0.101  54.548  1.00  0.00     0.057 C 
HETATM   23 BR1  UNL     1      29.475  -1.383  53.421  1.00  0.00    -0.068 Br
ENDBRANCH  20  21
ENDBRANCH  19  20
ENDBRANCH  17  19
ENDBRANCH   5  17
TORSDOF 10
ENDMDL
MODEL 2
REMARK VINA RESULT:      -6.2      3.100      4.575
REMARK  10 active torsions:
REMARK  status: ('A' for Active; 'I' for Inactive)
REMARK    1  A    between atoms: C2_2  and  C3_3 
REMARK    2  A    between atoms: C3_3  and  C4_4 
REMARK    3  A    between atoms: C4_4  and  C5_5 
REMARK    4  A    between atoms: C5_5  and  C6_6 
REMARK    5  A    between atoms: C6_6  and  C7_7 
REMARK    6  A    between atoms: C7_7  and  N1_8 
REMARK    7  A    between atoms: C11_12  and  N2_13 
REMARK    8  A    between atoms: N2_13  and  C12_14 
REMARK    9  A    between atoms: C12_14  and  C13_15 
REMARK   10  A    between atoms: C13_15  and  C14_16 
ROOT
HETATM    1  N1  UNL     1      23.384  -0.065  53.418  1.00  0.00    -0.341 N 
HETATM    2  C8  UNL     1      23.152   1.176  53.178  1.00  0.00     0.093 A 
HETATM    3  C9  UNL     1      23.779   2.249  52.763  1.00  0.00     0.036 A 
HETATM    4  C10 UNL     1      24.995   1.444  52.647  1.00  0.00     0.057 A 
HETATM    5  C11 UNL     1      26.522   1.451  52.354  1.00  0.00     0.139 A 
HETATM    6  N3  UNL     1      27.289   0.423  52.478  1.00  0.00    -0.224 NA
HETATM    7  C16 UNL     1      26.848  -0.812  52.888  1.00  0.00     0.237 A 
HETATM    8  N4  UNL     1      25.641  -0.944  53.142  1.00  0.00    -0.223 NA
HETATM    9  C17 UNL     1      24.711   0.092  53.044  1.00  0.00     0.145 A 
ENDROOT
BRANCH   1  10
HETATM   10  C7  UNL     1      22.274  -0.899  53.753  1.00  0.00     0.131 C 
BRANCH  10  11
HETATM   11  C6  UNL     1      21.137  -0.320  52.846  1.00  0.00    -0.005 C 
BRANCH  11  12
HETATM   12  C5  UNL     1      20.311   0.185  51.993  1.00  0.00     0.026 C 
BRANCH  12  13
HETATM   13  C4  UNL     1      19.399   0.624  50.765  1.00  0.00     0.000 C 
BRANCH  13  14
HETATM   14  C3  UNL     1      20.469   1.456  50.369  1.00  0.00    -0.000 C 
BRANCH  14  15
HETATM   15  C2  UNL     1      21.357   1.065  49.320  1.00  0.00     0.013 C 
HETATM   16  C1  UNL     1      22.427   1.915  49.279  1.00  0.00    -0.012 C 
ENDBRANCH  14  15
ENDBRANCH  13  14
ENDBRANCH  12  13
ENDBRANCH  11  12
ENDBRANCH  10  11
ENDBRANCH   1  10
BRANCH   5  17
HETATM   17  N2  UNL     1      26.903   2.836  52.148  1.00  0.00    -0.374 N 
HETATM   18  H12 UNL     1      27.259   3.679  52.637  1.00  0.00     0.161 HD
BRANCH  17  19
HETATM   19  C12 UNL     1      26.632   2.927  50.769  1.00  0.00     0.064 C 
BRANCH  19  20
HETATM   20  C13 UNL     1      26.491   3.251  49.342  1.00  0.00     0.051 C 
BRANCH  20  21
HETATM   21  C14 UNL     1      26.184   4.781  49.340  1.00  0.00     0.038 C 
HETATM   22  C15 UNL     1      26.685   5.982  48.972  1.00  0.00     0.057 C 
HETATM   23 BR1  UNL     1      28.231   6.549  48.120  1.00  0.00    -0.068 Br
ENDBRANCH  20  21
ENDBRANCH  19  20
ENDBRANCH  17  19
ENDBRANCH   5  17
TORSDOF 10
ENDMDL
MODEL 3
REMARK VINA RESULT:      -6.2      3.379      6.430
REMARK  10 active torsions:
REMARK  status: ('A' for Active; 'I' for Inactive)
REMARK    1  A    between atoms: C2_2  and  C3_3 
REMARK    2  A    between atoms: C3_3  and  C4_4 
REMARK    3  A    between atoms: C4_4  and  C5_5 
REMARK    4  A    between atoms: C5_5  and  C6_6 
REMARK    5  A    between atoms: C6_6  and  C7_7 
REMARK    6  A    between atoms: C7_7  and  N1_8 
REMARK    7  A    between atoms: C11_12  and  N2_13 
REMARK    8  A    between atoms: N2_13  and  C12_14 
REMARK    9  A    between atoms: C12_14  and  C13_15 
REMARK   10  A    between atoms: C13_15  and  C14_16 
ROOT
HETATM    1  N1  UNL     1      23.318   1.412  52.850  1.00  0.00    -0.341 N 
HETATM    2  C8  UNL     1      24.389   2.008  53.235  1.00  0.00     0.093 A 
HETATM    3  C9  UNL     1      24.899   3.214  53.288  1.00  0.00     0.036 A 
HETATM    4  C10 UNL     1      23.669   3.718  52.679  1.00  0.00     0.057 A 
HETATM    5  C11 UNL     1      22.937   4.954  52.085  1.00  0.00     0.139 A 
HETATM    6  N3  UNL     1      21.784   4.910  51.512  1.00  0.00    -0.224 NA
HETATM    7  C16 UNL     1      21.056   3.755  51.354  1.00  0.00     0.237 A 
HETATM    8  N4  UNL     1      21.534   2.700  51.799  1.00  0.00    -0.223 NA
HETATM    9  C17 UNL     1      22.772   2.621  52.440  1.00  0.00     0.145 A 
ENDROOT
BRANCH   1  10
HETATM   10  C7  UNL     1      23.186   0.020  53.140  1.00  0.00     0.131 C 
BRANCH  10  11
HETATM   11  C6  UNL     1      24.677  -0.457  53.163  1.00  0.00    -0.005 C 
BRANCH  11  12
HETATM   12  C5  UNL     1      25.914  -0.802  53.034  1.00  0.00     0.026 C 
BRANCH  12  13
HETATM   13  C4  UNL     1      27.489  -1.029  53.059  1.00  0.00     0.000 C 
BRANCH  13  14
HETATM   14  C3  UNL     1      27.613   0.378  53.067  1.00  0.00    -0.000 C 
BRANCH  14  15
HETATM   15  C2  UNL     1      28.819   1.008  53.503  1.00  0.00     0.013 C 
HETATM   16  C1  UNL     1      28.641   2.364  53.548  1.00  0.00    -0.012 C 
ENDBRANCH  14  15
ENDBRANCH  13  14
ENDBRANCH  12  13
ENDBRANCH  11  12
ENDBRANCH  10  11
ENDBRANCH   1  10
BRANCH   5  17
HETATM   17  N2  UNL     1      23.883   6.054  52.113  1.00  0.00    -0.374 N 
HETATM   18  H12 UNL     1      24.455   6.640  52.750  1.00  0.00     0.161 HD
BRANCH  17  19
HETATM   19  C12 UNL     1      23.934   6.324  50.731  1.00  0.00     0.064 C 
BRANCH  19  20
HETATM   20  C13 UNL     1      24.110   6.365  49.272  1.00  0.00     0.051 C 
BRANCH  20  21
HETATM   21  C14 UNL     1      25.608   5.981  49.070  1.00  0.00     0.038 C 
HETATM   22  C15 UNL     1      26.491   4.966  49.213  1.00  0.00     0.057 C 
HETATM   23 BR1  UNL     1      26.380   3.208  49.789  1.00  0.00    -0.068 Br
ENDBRANCH  20  21
ENDBRANCH  19  20
ENDBRANCH  17  19
ENDBRANCH   5  17
TORSDOF 10
ENDMDL
MODEL 4
REMARK VINA RESULT:      -6.1      2.863      6.707
REMARK  10 active torsions:
REMARK  status: ('A' for Active; 'I' for Inactive)
REMARK    1  A    between atoms: C2_2  and  C3_3 
REMARK    2  A    between atoms: C3_3  and  C4_4 
REMARK    3  A    between atoms: C4_4  and  C5_5 
REMARK    4  A    between atoms: C5_5  and  C6_6 
REMARK    5  A    between atoms: C6_6  and  C7_7 
REMARK    6  A    between atoms: C7_7  and  N1_8 
REMARK    7  A    between atoms: C11_12  and  N2_13 
REMARK    8  A    between atoms: N2_13  and  C12_14 
REMARK    9  A    between atoms: C12_14  and  C13_15 
REMARK   10  A    between atoms: C13_15  and  C14_16 
ROOT
HETATM    1  N1  UNL     1      23.414   2.330  50.562  1.00  0.00    -0.341 N 
HETATM    2  C8  UNL     1      24.632   2.606  50.862  1.00  0.00     0.093 A 
HETATM    3  C9  UNL     1      25.568   2.224  51.697  1.00  0.00     0.036 A 
HETATM    4  C10 UNL     1      24.627   1.246  52.241  1.00  0.00     0.057 A 
HETATM    5  C11 UNL     1      24.371   0.177  53.340  1.00  0.00     0.139 A 
HETATM    6  N3  UNL     1      23.246  -0.426  53.519  1.00  0.00    -0.224 NA
HETATM    7  C16 UNL     1      22.128  -0.196  52.754  1.00  0.00     0.237 A 
HETATM    8  N4  UNL     1      22.213   0.632  51.835  1.00  0.00    -0.223 NA
HETATM    9  C17 UNL     1      23.376   1.348  51.541  1.00  0.00     0.145 A 
ENDROOT
BRANCH   1  10
HETATM   10  C7  UNL     1      22.843   2.978  49.424  1.00  0.00     0.131 C 
BRANCH  10  11
HETATM   11  C6  UNL     1      23.795   4.206  49.229  1.00  0.00    -0.005 C 
BRANCH  11  12
HETATM   12  C5  UNL     1      24.685   5.115  49.013  1.00  0.00     0.026 C 
BRANCH  12  13
HETATM   13  C4  UNL     1      25.929   6.105  48.938  1.00  0.00     0.000 C 
BRANCH  13  14
HETATM   14  C3  UNL     1      26.747   4.954  48.984  1.00  0.00    -0.000 C 
BRANCH  14  15
HETATM   15  C2  UNL     1      28.090   4.986  48.498  1.00  0.00     0.013 C 
HETATM   16  C1  UNL     1      28.432   6.269  48.169  1.00  0.00    -0.012 C 
ENDBRANCH  14  15
ENDBRANCH  13  14
ENDBRANCH  12  13
ENDBRANCH  11  12
ENDBRANCH  10  11
ENDBRANCH   1  10
BRANCH   5  17
HETATM   17  N2  UNL     1      25.535   0.180  54.207  1.00  0.00    -0.374 N 
HETATM   18  H12 UNL     1      25.940   0.631  55.049  1.00  0.00     0.161 HD
BRANCH  17  19
HETATM   19  C12 UNL     1      26.293  -0.808  53.548  1.00  0.00     0.064 C 
BRANCH  19  20
HETATM   20  C13 UNL     1      27.197  -1.630  52.731  1.00  0.00     0.051 C 
BRANCH  20  21
HETATM   21  C14 UNL     1      28.615  -1.266  53.271  1.00  0.00     0.038 C 
HETATM   22  C15 UNL     1      29.361  -0.239  53.738  1.00  0.00     0.057 C 
HETATM   23 BR1  UNL     1      29.053   1.560  54.062  1.00  0.00    -0.068 Br
ENDBRANCH  20  21
ENDBRANCH  19  20
ENDBRANCH  17  19
ENDBRANCH   5  17
TORSDOF 10
ENDMDL
MODEL 5
REMARK VINA RESULT:      -6.1      2.736      7.097
REMARK  10 active torsions:
REMARK  status: ('A' for Active; 'I' for Inactive)
REMARK    1  A    between atoms: C2_2  and  C3_3 
REMARK    2  A    between atoms: C3_3  and  C4_4 
REMARK    3  A    between atoms: C4_4  and  C5_5 
REMARK    4  A    between atoms: C5_5  and  C6_6 
REMARK    5  A    between atoms: C6_6  and  C7_7 
REMARK    6  A    between atoms: C7_7  and  N1_8 
REMARK    7  A    between atoms: C11_12  and  N2_13 
REMARK    8  A    between atoms: N2_13  and  C12_14 
REMARK    9  A    between atoms: C12_14  and  C13_15 
REMARK   10  A    between atoms: C13_15  and  C14_16 
ROOT
HETATM    1  N1  UNL     1      24.934   2.988  50.932  1.00  0.00    -0.341 N 
HETATM    2  C8  UNL     1      24.490   3.153  52.126  1.00  0.00     0.093 A 
HETATM    3  C9  UNL     1      23.350   3.263  52.763  1.00  0.00     0.036 A 
HETATM    4  C10 UNL     1      22.664   3.111  51.481  1.00  0.00     0.057 A 
HETATM    5  C11 UNL     1      21.298   3.136  50.739  1.00  0.00     0.139 A 
HETATM    6  N3  UNL     1      21.164   3.042  49.461  1.00  0.00    -0.224 NA
HETATM    7  C16 UNL     1      22.221   2.906  48.592  1.00  0.00     0.237 A 
HETATM    8  N4  UNL     1      23.365   2.863  49.069  1.00  0.00    -0.223 NA
HETATM    9  C17 UNL     1      23.638   2.953  50.436  1.00  0.00     0.145 A 
ENDROOT
BRANCH   1  10
HETATM   10  C7  UNL     1      26.338   2.795  50.762  1.00  0.00     0.131 C 
BRANCH  10  11
HETATM   11  C6  UNL     1      26.577   1.430  51.490  1.00  0.00    -0.005 C 
BRANCH  11  12
HETATM   12  C5  UNL     1      26.855   0.262  51.964  1.00  0.00     0.026 C 
BRANCH  12  13
HETATM   13  C4  UNL     1      27.059  -1.094  52.771  1.00  0.00     0.000 C 
BRANCH  13  14
HETATM   14  C3  UNL     1      27.776  -0.331  53.718  1.00  0.00    -0.000 C 
BRANCH  14  15
HETATM   15  C2  UNL     1      29.205  -0.298  53.708  1.00  0.00     0.013 C 
HETATM   16  C1  UNL     1      29.693  -1.549  53.450  1.00  0.00    -0.012 C 
ENDBRANCH  14  15
ENDBRANCH  13  14
ENDBRANCH  12  13
ENDBRANCH  11  12
ENDBRANCH  10  11
ENDBRANCH   1  10
BRANCH   5  17
HETATM   17  N2  UNL     1      20.294   3.499  51.722  1.00  0.00    -0.374 N 
HETATM   18  H12 UNL     1      19.820   4.310  52.162  1.00  0.00     0.161 HD
BRANCH  17  19
HETATM   19  C12 UNL     1      19.940   2.205  52.150  1.00  0.00     0.064 C 
BRANCH  19  20
HETATM   20  C13 UNL     1      19.728   0.770  52.394  1.00  0.00     0.051 C 
BRANCH  20  21
HETATM   21  C14 UNL     1      20.529   0.498  53.705  1.00  0.00     0.038 C 
HETATM   22  C15 UNL     1      21.726   0.073  54.170  1.00  0.00     0.057 C 
HETATM   23 BR1  UNL     1      23.313  -0.475  53.387  1.00  0.00    -0.068 Br
ENDBRANCH  20  21
ENDBRANCH  19  20
ENDBRANCH  17  19
ENDBRANCH   5  17
TORSDOF 10
ENDMDL
MODEL 6
REMARK VINA RESULT:      -6.0      2.861      4.324
REMARK  10 active torsions:
REMARK  status: ('A' for Active; 'I' for Inactive)
REMARK    1  A    between atoms: C2_2  and  C3_3 
REMARK    2  A    between atoms: C3_3  and  C4_4 
REMARK    3  A    between atoms: C4_4  and  C5_5 
REMARK    4  A    between atoms: C5_5  and  C6_6 
REMARK    5  A    between atoms: C6_6  and  C7_7 
REMARK    6  A    between atoms: C7_7  and  N1_8 
REMARK    7  A    between atoms: C11_12  and  N2_13 
REMARK    8  A    between atoms: N2_13  and  C12_14 
REMARK    9  A    between atoms: C12_14  and  C13_15 
REMARK   10  A    between atoms: C13_15  and  C14_16 
ROOT
HETATM    1  N1  UNL     1      24.917  -0.004  53.608  1.00  0.00    -0.341 N 
HETATM    2  C8  UNL     1      25.909  -0.395  52.891  1.00  0.00     0.093 A 
HETATM    3  C9  UNL     1      26.674   0.041  51.920  1.00  0.00     0.036 A 
HETATM    4  C10 UNL     1      25.915   1.291  51.936  1.00  0.00     0.057 A 
HETATM    5  C11 UNL     1      25.681   2.666  51.250  1.00  0.00     0.139 A 
HETATM    6  N3  UNL     1      24.744   3.489  51.573  1.00  0.00    -0.224 NA
HETATM    7  C16 UNL     1      23.830   3.249  52.571  1.00  0.00     0.237 A 
HETATM    8  N4  UNL     1      23.922   2.184  53.200  1.00  0.00    -0.223 NA
HETATM    9  C17 UNL     1      24.894   1.215  52.945  1.00  0.00     0.145 A 
ENDROOT
BRANCH   1  10
HETATM   10  C7  UNL     1      24.498  -0.845  54.683  1.00  0.00     0.131 C 
BRANCH  10  11
HETATM   11  C6  UNL     1      22.963  -0.989  54.414  1.00  0.00    -0.005 C 
BRANCH  11  12
HETATM   12  C5  UNL     1      21.692  -0.951  54.190  1.00  0.00     0.026 C 
BRANCH  12  13
HETATM   13  C4  UNL     1      20.174  -0.649  53.821  1.00  0.00     0.000 C 
BRANCH  13  14
HETATM   14  C3  UNL     1      20.666   0.343  52.945  1.00  0.00    -0.000 C 
BRANCH  14  15
HETATM   15  C2  UNL     1      20.371   0.304  51.547  1.00  0.00     0.013 C 
HETATM   16  C1  UNL     1      21.501   0.582  50.829  1.00  0.00    -0.012 C 
ENDBRANCH  14  15
ENDBRANCH  13  14
ENDBRANCH  12  13
ENDBRANCH  11  12
ENDBRANCH  10  11
ENDBRANCH   1  10
BRANCH   5  17
HETATM   17  N2  UNL     1      26.551   2.708  50.089  1.00  0.00    -0.374 N 
HETATM   18  H12 UNL     1      27.283   2.176  49.582  1.00  0.00     0.161 HD
BRANCH  17  19
HETATM   19  C12 UNL     1      26.168   3.966  49.583  1.00  0.00     0.064 C 
BRANCH  19  20
HETATM   20  C13 UNL     1      26.030   5.340  49.078  1.00  0.00     0.051 C 
BRANCH  20  21
HETATM   21  C14 UNL     1      24.495   5.493  48.843  1.00  0.00     0.038 C 
HETATM   22  C15 UNL     1      23.367   4.792  48.589  1.00  0.00     0.057 C 
HETATM   23 BR1  UNL     1      22.964   2.996  48.376  1.00  0.00    -0.068 Br
ENDBRANCH  20  21
ENDBRANCH  19  20
ENDBRANCH  17  19
ENDBRANCH   5  17
TORSDOF 10
ENDMDL
MODEL 7
REMARK VINA RESULT:      -5.9      1.214      2.117
REMARK  10 active torsions:
REMARK  status: ('A' for Active; 'I' for Inactive)
REMARK    1  A    between atoms: C2_2  and  C3_3 
REMARK    2  A    between atoms: C3_3  and  C4_4 
REMARK    3  A    between atoms: C4_4  and  C5_5 
REMARK    4  A    between atoms: C5_5  and  C6_6 
REMARK    5  A    between atoms: C6_6  and  C7_7 
REMARK    6  A    between atoms: C7_7  and  N1_8 
REMARK    7  A    between atoms: C11_12  and  N2_13 
REMARK    8  A    between atoms: N2_13  and  C12_14 
REMARK    9  A    between atoms: C12_14  and  C13_15 
REMARK   10  A    between atoms: C13_15  and  C14_16 
ROOT
HETATM    1  N1  UNL     1      22.523   0.290  53.610  1.00  0.00    -0.341 N 
HETATM    2  C8  UNL     1      23.519  -0.517  53.706  1.00  0.00     0.093 A 
HETATM    3  C9  UNL     1      24.784  -0.589  53.368  1.00  0.00     0.036 A 
HETATM    4  C10 UNL     1      24.658   0.738  52.767  1.00  0.00     0.057 A 
HETATM    5  C11 UNL     1      25.357   1.843  51.927  1.00  0.00     0.139 A 
HETATM    6  N3  UNL     1      24.774   2.913  51.505  1.00  0.00    -0.224 NA
HETATM    7  C16 UNL     1      23.454   3.208  51.750  1.00  0.00     0.237 A 
HETATM    8  N4  UNL     1      22.793   2.402  52.422  1.00  0.00    -0.223 NA
HETATM    9  C17 UNL     1      23.311   1.212  52.935  1.00  0.00     0.145 A 
ENDROOT
BRANCH   1  10
HETATM   10  C7  UNL     1      21.316  -0.056  54.290  1.00  0.00     0.131 C 
BRANCH  10  11
HETATM   11  C6  UNL     1      20.255   0.021  53.142  1.00  0.00    -0.005 C 
BRANCH  11  12
HETATM   12  C5  UNL     1      19.345  -0.064  52.230  1.00  0.00     0.026 C 
BRANCH  12  13
HETATM   13  C4  UNL     1      18.049  -0.107  51.309  1.00  0.00     0.000 C 
BRANCH  13  14
HETATM   14  C3  UNL     1      18.818   0.561  50.330  1.00  0.00    -0.000 C 
BRANCH  14  15
HETATM   15  C2  UNL     1      18.886   1.988  50.295  1.00  0.00     0.013 C 
HETATM   16  C1  UNL     1      19.738   2.385  49.302  1.00  0.00    -0.012 C 
ENDBRANCH  14  15
ENDBRANCH  13  14
ENDBRANCH  12  13
ENDBRANCH  11  12
ENDBRANCH  10  11
ENDBRANCH   1  10
BRANCH   5  17
HETATM   17  N2  UNL     1      26.659   1.325  51.552  1.00  0.00    -0.374 N 
HETATM   18  H12 UNL     1      27.147   0.737  50.849  1.00  0.00     0.161 HD
BRANCH  17  19
HETATM   19  C12 UNL     1      27.418   1.884  52.598  1.00  0.00     0.064 C 
BRANCH  19  20
HETATM   20  C13 UNL     1      28.422   2.423  53.528  1.00  0.00     0.051 C 
BRANCH  20  21
HETATM   21  C14 UNL     1      28.671   1.247  54.524  1.00  0.00     0.038 C 
HETATM   22  C15 UNL     1      28.936  -0.078  54.584  1.00  0.00     0.057 C 
HETATM   23 BR1  UNL     1      29.216  -1.414  53.331  1.00  0.00    -0.068 Br
ENDBRANCH  20  21
ENDBRANCH  19  20
ENDBRANCH  17  19
ENDBRANCH   5  17
TORSDOF 10
ENDMDL
MODEL 8
REMARK VINA RESULT:      -5.9      3.491      6.845
REMARK  10 active torsions:
REMARK  status: ('A' for Active; 'I' for Inactive)
REMARK    1  A    between atoms: C2_2  and  C3_3 
REMARK    2  A    between atoms: C3_3  and  C4_4 
REMARK    3  A    between atoms: C4_4  and  C5_5 
REMARK    4  A    between atoms: C5_5  and  C6_6 
REMARK    5  A    between atoms: C6_6  and  C7_7 
REMARK    6  A    between atoms: C7_7  and  N1_8 
REMARK    7  A    between atoms: C11_12  and  N2_13 
REMARK    8  A    between atoms: N2_13  and  C12_14 
REMARK    9  A    between atoms: C12_14  and  C13_15 
REMARK   10  A    between atoms: C13_15  and  C14_16 
ROOT
HETATM    1  N1  UNL     1      23.262   0.837  52.918  1.00  0.00    -0.341 N 
HETATM    2  C8  UNL     1      24.252   1.655  52.874  1.00  0.00     0.093 A 
HETATM    3  C9  UNL     1      24.485   2.935  52.712  1.00  0.00     0.036 A 
HETATM    4  C10 UNL     1      23.043   3.141  52.587  1.00  0.00     0.057 A 
HETATM    5  C11 UNL     1      21.909   4.159  52.279  1.00  0.00     0.139 A 
HETATM    6  N3  UNL     1      20.664   3.847  52.168  1.00  0.00    -0.224 NA
HETATM    7  C16 UNL     1      20.183   2.567  52.310  1.00  0.00     0.237 A 
HETATM    8  N4  UNL     1      20.996   1.666  52.569  1.00  0.00    -0.223 NA
HETATM    9  C17 UNL     1      22.368   1.879  52.714  1.00  0.00     0.145 A 
ENDROOT
BRANCH   1  10
HETATM   10  C7  UNL     1      23.534  -0.522  53.263  1.00  0.00     0.131 C 
BRANCH  10  11
HETATM   11  C6  UNL     1      25.098  -0.539  53.338  1.00  0.00    -0.005 C 
BRANCH  11  12
HETATM   12  C5  UNL     1      26.378  -0.703  53.353  1.00  0.00     0.026 C 
BRANCH  12  13
HETATM   13  C4  UNL     1      27.935  -0.904  53.098  1.00  0.00     0.000 C 
BRANCH  13  14
HETATM   14  C3  UNL     1      28.143   0.128  54.039  1.00  0.00    -0.000 C 
BRANCH  14  15
HETATM   15  C2  UNL     1      29.079   1.177  53.787  1.00  0.00     0.013 C 
HETATM   16  C1  UNL     1      28.410   2.348  53.555  1.00  0.00    -0.012 C 
ENDBRANCH  14  15
ENDBRANCH  13  14
ENDBRANCH  12  13
ENDBRANCH  11  12
ENDBRANCH  10  11
ENDBRANCH   1  10
BRANCH   5  17
HETATM   17  N2  UNL     1      22.553   5.414  51.937  1.00  0.00    -0.374 N 
HETATM   18  H12 UNL     1      22.874   6.316  52.336  1.00  0.00     0.161 HD
BRANCH  17  19
HETATM   19  C12 UNL     1      22.733   5.191  50.558  1.00  0.00     0.064 C 
BRANCH  19  20
HETATM   20  C13 UNL     1      23.077   5.178  49.128  1.00  0.00     0.051 C 
BRANCH  20  21
HETATM   21  C14 UNL     1      23.454   3.689  48.854  1.00  0.00     0.038 C 
HETATM   22  C15 UNL     1      22.928   2.450  48.721  1.00  0.00     0.057 C 
HETATM   23 BR1  UNL     1      21.215   1.743  48.775  1.00  0.00    -0.068 Br
ENDBRANCH  20  21
ENDBRANCH  19  20
ENDBRANCH  17  19
ENDBRANCH   5  17
TORSDOF 10
ENDMDL
MODEL 9
REMARK VINA RESULT:      -5.9      3.929      8.838
REMARK  10 active torsions:
REMARK  status: ('A' for Active; 'I' for Inactive)
REMARK    1  A    between atoms: C2_2  and  C3_3 
REMARK    2  A    between atoms: C3_3  and  C4_4 
REMARK    3  A    between atoms: C4_4  and  C5_5 
REMARK    4  A    between atoms: C5_5  and  C6_6 
REMARK    5  A    between atoms: C6_6  and  C7_7 
REMARK    6  A    between atoms: C7_7  and  N1_8 
REMARK    7  A    between atoms: C11_12  and  N2_13 
REMARK    8  A    between atoms: N2_13  and  C12_14 
REMARK    9  A    between atoms: C12_14  and  C13_15 
REMARK   10  A    between atoms: C13_15  and  C14_16 
ROOT
HETATM    1  N1  UNL     1      22.072   0.911  52.850  1.00  0.00    -0.341 N 
HETATM    2  C8  UNL     1      22.090   0.234  53.942  1.00  0.00     0.093 A 
HETATM    3  C9  UNL     1      21.347  -0.621  54.601  1.00  0.00     0.036 A 
HETATM    4  C10 UNL     1      20.362  -0.535  53.525  1.00  0.00     0.057 A 
HETATM    5  C11 UNL     1      18.947  -0.953  53.036  1.00  0.00     0.139 A 
HETATM    6  N3  UNL     1      18.392  -0.517  51.958  1.00  0.00    -0.224 NA
HETATM    7  C16 UNL     1      18.989   0.378  51.102  1.00  0.00     0.237 A 
HETATM    8  N4  UNL     1      20.129   0.779  51.383  1.00  0.00    -0.223 NA
HETATM    9  C17 UNL     1      20.833   0.378  52.520  1.00  0.00     0.145 A 
ENDROOT
BRANCH   1  10
HETATM   10  C7  UNL     1      23.244   1.647  52.501  1.00  0.00     0.131 C 
BRANCH  10  11
HETATM   11  C6  UNL     1      24.384   0.611  52.782  1.00  0.00    -0.005 C 
BRANCH  11  12
HETATM   12  C5  UNL     1      25.369  -0.218  52.867  1.00  0.00     0.026 C 
BRANCH  12  13
HETATM   13  C4  UNL     1      26.743  -1.018  52.943  1.00  0.00     0.000 C 
BRANCH  13  14
HETATM   14  C3  UNL     1      27.387   0.230  52.792  1.00  0.00    -0.000 C 
BRANCH  14  15
HETATM   15  C2  UNL     1      28.587   0.530  53.507  1.00  0.00     0.013 C 
HETATM   16  C1  UNL     1      28.507   0.027  54.776  1.00  0.00    -0.012 C 
ENDBRANCH  14  15
ENDBRANCH  13  14
ENDBRANCH  12  13
ENDBRANCH  11  12
ENDBRANCH  10  11
ENDBRANCH   1  10
BRANCH   5  17
HETATM   17  N2  UNL     1      18.339  -1.714  54.112  1.00  0.00    -0.374 N 
HETATM   18  H12 UNL     1      18.365  -1.863  55.139  1.00  0.00     0.161 HD
BRANCH  17  19
HETATM   19  C12 UNL     1      17.434  -2.476  53.348  1.00  0.00     0.064 C 
BRANCH  19  20
HETATM   20  C13 UNL     1      16.320  -3.234  52.759  1.00  0.00     0.051 C 
BRANCH  20  21
HETATM   21  C14 UNL     1      16.454  -4.647  53.408  1.00  0.00     0.038 C 
HETATM   22  C15 UNL     1      15.841  -5.511  54.250  1.00  0.00     0.057 C 
HETATM   23 BR1  UNL     1      14.259  -5.494  55.216  1.00  0.00    -0.068 Br
ENDBRANCH  20  21
ENDBRANCH  19  20
ENDBRANCH  17  19
ENDBRANCH   5  17
TORSDOF 10
ENDMDL
