MODEL 1
REMARK VINA RESULT:      -7.4      0.000      0.000
REMARK  6 active torsions:
REMARK  status: ('A' for Active; 'I' for Inactive)
REMARK    1  A    between atoms: O1_2  and  C2_3 
REMARK    2  A    between atoms: C5_6  and  C6_7 
REMARK    3  A    between atoms: C6_7  and  N1_8 
REMARK    4  A    between atoms: N1_8  and  C8_10 
REMARK    5  A    between atoms: C16_20  and  O2_21 
REMARK    6  A    between atoms: C18_23  and  O3_24 
ROOT
HETATM    1  C2  UNL     1      26.946   1.645  52.780  1.00  0.00     0.105 A 
HETATM    2  C3  UNL     1      25.947   2.423  52.263  1.00  0.00     0.055 A 
HETATM    3  C4  UNL     1      24.630   2.001  52.413  1.00  0.00     0.025 A 
HETATM    4  C5  UNL     1      23.727   2.854  51.829  1.00  0.00     0.066 A 
HETATM    5  N2  UNL     1      22.439   2.481  51.917  1.00  0.00    -0.244 NA
HETATM    6  C14 UNL     1      22.005   1.364  52.522  1.00  0.00     0.234 A 
HETATM    7  N3  UNL     1      22.906   0.545  53.089  1.00  0.00    -0.238 NA
HETATM    8  C15 UNL     1      24.195   0.831  53.051  1.00  0.00     0.106 A 
HETATM    9  C16 UNL     1      25.285   0.098  53.552  1.00  0.00     0.134 A 
HETATM   10  C18 UNL     1      26.588   0.479  53.423  1.00  0.00     0.137 A 
ENDROOT
BRANCH   4  11
HETATM   11  C6  UNL     1      23.860   4.182  51.184  1.00  0.00     0.182 C 
BRANCH  11  12
HETATM   12  N1  UNL     1      24.301   3.975  49.818  1.00  0.00    -0.380 N 
HETATM   13  C7  UNL     1      23.573   3.032  49.026  1.00  0.00     0.150 C 
BRANCH  12  14
HETATM   14  C8  UNL     1      25.414   4.682  49.309  1.00  0.00     0.030 A 
HETATM   15  C9  UNL     1      26.717   4.179  49.195  1.00  0.00     0.029 A 
HETATM   16  C10 UNL     1      27.818   4.840  48.699  1.00  0.00     0.002 A 
HETATM   17  C11 UNL     1      27.632   6.130  48.268  1.00  0.00     0.000 A 
HETATM   18  C12 UNL     1      26.408   6.742  48.322  1.00  0.00     0.002 A 
HETATM   19  C13 UNL     1      25.386   5.977  48.838  1.00  0.00     0.029 A 
ENDBRANCH  12  14
ENDBRANCH  11  12
ENDBRANCH   4  11
BRANCH   1  20
HETATM   20  O1  UNL     1      28.287   1.873  52.742  1.00  0.00    -0.353 OA
HETATM   21  C1  UNL     1      29.006   2.467  53.835  1.00  0.00     0.210 C 
ENDBRANCH   1  20
BRANCH   9  22
HETATM   22  O2  UNL     1      24.825  -1.061  54.185  1.00  0.00    -0.351 OA
HETATM   23  C17 UNL     1      24.515  -1.157  55.542  1.00  0.00     0.210 C 
ENDBRANCH   9  22
BRANCH  10  24
HETATM   24  O3  UNL     1      27.446  -0.466  54.025  1.00  0.00    -0.351 OA
HETATM   25  C19 UNL     1      28.172  -1.388  53.233  1.00  0.00     0.210 C 
ENDBRANCH  10  24
TORSDOF 6
ENDMDL
MODEL 2
REMARK VINA RESULT:      -7.4      2.936      6.435
REMARK  6 active torsions:
REMARK  status: ('A' for Active; 'I' for Inactive)
REMARK    1  A    between atoms: O1_2  and  C2_3 
REMARK    2  A    between atoms: C5_6  and  C6_7 
REMARK    3  A    between atoms: C6_7  and  N1_8 
REMARK    4  A    between atoms: N1_8  and  C8_10 
REMARK    5  A    between atoms: C16_20  and  O2_21 
REMARK    6  A    between atoms: C18_23  and  O3_24 
ROOT
HETATM    1  C2  UNL     1      22.424   0.269  52.702  1.00  0.00     0.105 A 
HETATM    2  C3  UNL     1      23.644   0.780  53.045  1.00  0.00     0.055 A 
HETATM    3  C4  UNL     1      24.278   1.644  52.157  1.00  0.00     0.025 A 
HETATM    4  C5  UNL     1      25.504   2.065  52.607  1.00  0.00     0.066 A 
HETATM    5  N2  UNL     1      26.176   2.880  51.775  1.00  0.00    -0.244 NA
HETATM    6  C14 UNL     1      25.730   3.287  50.577  1.00  0.00     0.234 A 
HETATM    7  N3  UNL     1      24.525   2.864  50.158  1.00  0.00    -0.238 NA
HETATM    8  C15 UNL     1      23.795   2.061  50.910  1.00  0.00     0.106 A 
HETATM    9  C16 UNL     1      22.538   1.490  50.642  1.00  0.00     0.134 A 
HETATM   10  C18 UNL     1      21.887   0.640  51.487  1.00  0.00     0.137 A 
ENDROOT
BRANCH   4  11
HETATM   11  C6  UNL     1      26.229   1.886  53.888  1.00  0.00     0.182 C 
BRANCH  11  12
HETATM   12  N1  UNL     1      27.577   1.445  53.582  1.00  0.00    -0.380 N 
HETATM   13  C7  UNL     1      28.600   2.443  53.524  1.00  0.00     0.150 C 
BRANCH  12  14
HETATM   14  C8  UNL     1      27.847   0.078  53.345  1.00  0.00     0.030 A 
HETATM   15  C9  UNL     1      26.937  -0.858  52.837  1.00  0.00     0.029 A 
HETATM   16  C10 UNL     1      27.172  -2.192  52.592  1.00  0.00     0.002 A 
HETATM   17  C11 UNL     1      28.429  -2.667  52.872  1.00  0.00     0.000 A 
HETATM   18  C12 UNL     1      29.414  -1.859  53.373  1.00  0.00     0.002 A 
HETATM   19  C13 UNL     1      29.056  -0.545  53.575  1.00  0.00     0.029 A 
ENDBRANCH  12  14
ENDBRANCH  11  12
ENDBRANCH   4  11
BRANCH   1  20
HETATM   20  O1  UNL     1      21.643  -0.584  53.419  1.00  0.00    -0.353 OA
HETATM   21  C1  UNL     1      21.171  -0.281  54.742  1.00  0.00     0.210 C 
ENDBRANCH   1  20
BRANCH   9  22
HETATM   22  O2  UNL     1      22.077   1.924  49.395  1.00  0.00    -0.351 OA
HETATM   23  C17 UNL     1      21.297   3.061  49.186  1.00  0.00     0.210 C 
ENDBRANCH   9  22
BRANCH  10  24
HETATM   24  O3  UNL     1      20.653   0.236  50.935  1.00  0.00    -0.351 OA
HETATM   25  C19 UNL     1      19.436   0.777  51.416  1.00  0.00     0.210 C 
ENDBRANCH  10  24
TORSDOF 6
ENDMDL
MODEL 3
REMARK VINA RESULT:      -7.4      4.212      6.425
REMARK  6 active torsions:
REMARK  status: ('A' for Active; 'I' for Inactive)
REMARK    1  A    between atoms: O1_2  and  C2_3 
REMARK    2  A    between atoms: C5_6  and  C6_7 
REMARK    3  A    between atoms: C6_7  and  N1_8 
REMARK    4  A    between atoms: N1_8  and  C8_10 
REMARK    5  A    between atoms: C16_20  and  O2_21 
REMARK    6  A    between atoms: C18_23  and  O3_24 
ROOT
HETATM    1  C2  UNL     1      20.619   0.721  50.848  1.00  0.00     0.105 A 
HETATM    2  C3  UNL     1      21.875   0.580  51.372  1.00  0.00     0.055 A 
HETATM    3  C4  UNL     1      22.011  -0.018  52.620  1.00  0.00     0.025 A 
HETATM    4  C5  UNL     1      23.316  -0.076  53.044  1.00  0.00     0.066 A 
HETATM    5  N2  UNL     1      23.505  -0.618  54.259  1.00  0.00    -0.244 NA
HETATM    6  C14 UNL     1      22.527  -1.087  55.048  1.00  0.00     0.234 A 
HETATM    7  N3  UNL     1      21.257  -1.022  54.613  1.00  0.00    -0.238 NA
HETATM    8  C15 UNL     1      20.977  -0.505  53.431  1.00  0.00     0.106 A 
HETATM    9  C16 UNL     1      19.727  -0.321  52.814  1.00  0.00     0.134 A 
HETATM   10  C18 UNL     1      19.554   0.260  51.593  1.00  0.00     0.137 A 
ENDROOT
BRANCH   4  11
HETATM   11  C6  UNL     1      24.607   0.253  52.394  1.00  0.00     0.182 C 
BRANCH  11  12
HETATM   12  N1  UNL     1      25.180   1.390  53.088  1.00  0.00    -0.380 N 
HETATM   13  C7  UNL     1      24.354   2.546  53.257  1.00  0.00     0.150 C 
BRANCH  12  14
HETATM   14  C8  UNL     1      26.509   1.341  53.567  1.00  0.00     0.030 A 
HETATM   15  C9  UNL     1      27.045   0.340  54.389  1.00  0.00     0.029 A 
HETATM   16  C10 UNL     1      28.333   0.263  54.866  1.00  0.00     0.002 A 
HETATM   17  C11 UNL     1      29.195   1.269  54.506  1.00  0.00     0.000 A 
HETATM   18  C12 UNL     1      28.801   2.308  53.706  1.00  0.00     0.002 A 
HETATM   19  C13 UNL     1      27.488   2.273  53.292  1.00  0.00     0.029 A 
ENDBRANCH  12  14
ENDBRANCH  11  12
ENDBRANCH   4  11
BRANCH   1  20
HETATM   20  O1  UNL     1      20.269   1.272  49.654  1.00  0.00    -0.353 OA
HETATM   21  C1  UNL     1      21.208   1.477  48.586  1.00  0.00     0.210 C 
ENDBRANCH   1  20
BRANCH   9  22
HETATM   22  O2  UNL     1      18.714  -0.817  53.640  1.00  0.00    -0.351 OA
HETATM   23  C17 UNL     1      18.063  -2.038  53.457  1.00  0.00     0.210 C 
ENDBRANCH   9  22
BRANCH  10  24
HETATM   24  O3  UNL     1      18.185   0.304  51.250  1.00  0.00    -0.351 OA
HETATM   25  C19 UNL     1      17.443   1.500  51.400  1.00  0.00     0.210 C 
ENDBRANCH  10  24
TORSDOF 6
ENDMDL
MODEL 4
REMARK VINA RESULT:      -7.3      2.290      4.284
REMARK  6 active torsions:
REMARK  status: ('A' for Active; 'I' for Inactive)
REMARK    1  A    between atoms: O1_2  and  C2_3 
REMARK    2  A    between atoms: C5_6  and  C6_7 
REMARK    3  A    between atoms: C6_7  and  N1_8 
REMARK    4  A    between atoms: N1_8  and  C8_10 
REMARK    5  A    between atoms: C16_20  and  O2_21 
REMARK    6  A    between atoms: C18_23  and  O3_24 
ROOT
HETATM    1  C2  UNL     1      20.835   2.287  52.656  1.00  0.00     0.105 A 
HETATM    2  C3  UNL     1      21.948   2.952  52.219  1.00  0.00     0.055 A 
HETATM    3  C4  UNL     1      23.179   2.310  52.298  1.00  0.00     0.025 A 
HETATM    4  C5  UNL     1      24.217   3.092  51.854  1.00  0.00     0.066 A 
HETATM    5  N2  UNL     1      25.437   2.533  51.933  1.00  0.00    -0.244 NA
HETATM    6  C14 UNL     1      25.685   1.302  52.404  1.00  0.00     0.234 A 
HETATM    7  N3  UNL     1      24.654   0.552  52.831  1.00  0.00    -0.238 NA
HETATM    8  C15 UNL     1      23.420   1.020  52.790  1.00  0.00     0.106 A 
HETATM    9  C16 UNL     1      22.224   0.413  53.212  1.00  0.00     0.134 A 
HETATM   10  C18 UNL     1      21.000   1.010  53.151  1.00  0.00     0.137 A 
ENDROOT
BRANCH   4  11
HETATM   11  C6  UNL     1      24.275   4.422  51.201  1.00  0.00     0.182 C 
BRANCH  11  12
HETATM   12  N1  UNL     1      24.635   4.222  49.810  1.00  0.00    -0.380 N 
HETATM   13  C7  UNL     1      23.826   3.327  49.041  1.00  0.00     0.150 C 
BRANCH  12  14
HETATM   14  C8  UNL     1      25.750   4.890  49.255  1.00  0.00     0.030 A 
HETATM   15  C9  UNL     1      27.028   4.340  49.083  1.00  0.00     0.029 A 
HETATM   16  C10 UNL     1      28.130   4.962  48.543  1.00  0.00     0.002 A 
HETATM   17  C11 UNL     1      27.974   6.260  48.124  1.00  0.00     0.000 A 
HETATM   18  C12 UNL     1      26.777   6.917  48.234  1.00  0.00     0.002 A 
HETATM   19  C13 UNL     1      25.750   6.188  48.791  1.00  0.00     0.029 A 
ENDBRANCH  12  14
ENDBRANCH  11  12
ENDBRANCH   4  11
BRANCH   1  20
HETATM   20  O1  UNL     1      19.548   2.729  52.667  1.00  0.00    -0.353 OA
HETATM   21  C1  UNL     1      18.935   3.369  51.536  1.00  0.00     0.210 C 
ENDBRANCH   1  20
BRANCH   9  22
HETATM   22  O2  UNL     1      22.490  -0.872  53.696  1.00  0.00    -0.351 OA
HETATM   23  C17 UNL     1      22.681  -1.193  55.040  1.00  0.00     0.210 C 
ENDBRANCH   9  22
BRANCH  10  24
HETATM   24  O3  UNL     1      19.999   0.149  53.652  1.00  0.00    -0.351 OA
HETATM   25  C19 UNL     1      19.099  -0.498  52.772  1.00  0.00     0.210 C 
ENDBRANCH  10  24
TORSDOF 6
ENDMDL
MODEL 5
REMARK VINA RESULT:      -7.2      3.020      5.840
REMARK  6 active torsions:
REMARK  status: ('A' for Active; 'I' for Inactive)
REMARK    1  A    between atoms: O1_2  and  C2_3 
REMARK    2  A    between atoms: C5_6  and  C6_7 
REMARK    3  A    between atoms: C6_7  and  N1_8 
REMARK    4  A    between atoms: N1_8  and  C8_10 
REMARK    5  A    between atoms: C16_20  and  O2_21 
REMARK    6  A    between atoms: C18_23  and  O3_24 
ROOT
HETATM    1  C2  UNL     1      23.570   2.708  51.433  1.00  0.00     0.105 A 
HETATM    2  C3  UNL     1      23.936   1.565  52.088  1.00  0.00     0.055 A 
HETATM    3  C4  UNL     1      22.989   0.915  52.872  1.00  0.00     0.025 A 
HETATM    4  C5  UNL     1      23.488  -0.202  53.496  1.00  0.00     0.066 A 
HETATM    5  N2  UNL     1      22.623  -0.854  54.291  1.00  0.00    -0.244 NA
HETATM    6  C14 UNL     1      21.350  -0.488  54.500  1.00  0.00     0.234 A 
HETATM    7  N3  UNL     1      20.881   0.607  53.878  1.00  0.00    -0.238 NA
HETATM    8  C15 UNL     1      21.660   1.311  53.078  1.00  0.00     0.106 A 
HETATM    9  C16 UNL     1      21.373   2.490  52.367  1.00  0.00     0.134 A 
HETATM   10  C18 UNL     1      22.275   3.154  51.589  1.00  0.00     0.137 A 
ENDROOT
BRANCH   4  11
HETATM   11  C6  UNL     1      24.783  -0.917  53.406  1.00  0.00     0.182 C 
BRANCH  11  12
HETATM   12  N1  UNL     1      25.609  -0.489  54.518  1.00  0.00    -0.380 N 
HETATM   13  C7  UNL     1      25.209  -0.893  55.831  1.00  0.00     0.150 C 
BRANCH  12  14
HETATM   14  C8  UNL     1      26.758   0.303  54.295  1.00  0.00     0.030 A 
HETATM   15  C9  UNL     1      28.085  -0.137  54.394  1.00  0.00     0.029 A 
HETATM   16  C10 UNL     1      29.222   0.608  54.177  1.00  0.00     0.002 A 
HETATM   17  C11 UNL     1      29.051   1.924  53.827  1.00  0.00     0.000 A 
HETATM   18  C12 UNL     1      27.807   2.482  53.695  1.00  0.00     0.002 A 
HETATM   19  C13 UNL     1      26.749   1.635  53.938  1.00  0.00     0.029 A 
ENDBRANCH  12  14
ENDBRANCH  11  12
ENDBRANCH   4  11
BRANCH   1  20
HETATM   20  O1  UNL     1      24.336   3.489  50.624  1.00  0.00    -0.353 OA
HETATM   21  C1  UNL     1      25.765   3.365  50.549  1.00  0.00     0.210 C 
ENDBRANCH   1  20
BRANCH   9  22
HETATM   22  O2  UNL     1      20.043   2.862  52.585  1.00  0.00    -0.351 OA
HETATM   23  C17 UNL     1      18.985   2.582  51.719  1.00  0.00     0.210 C 
ENDBRANCH   9  22
BRANCH  10  24
HETATM   24  O3  UNL     1      21.687   4.301  51.012  1.00  0.00    -0.351 OA
HETATM   25  C19 UNL     1      21.920   5.584  51.562  1.00  0.00     0.210 C 
ENDBRANCH  10  24
TORSDOF 6
ENDMDL
MODEL 6
REMARK VINA RESULT:      -7.1      1.967      3.734
REMARK  6 active torsions:
REMARK  status: ('A' for Active; 'I' for Inactive)
REMARK    1  A    between atoms: O1_2  and  C2_3 
REMARK    2  A    between atoms: C5_6  and  C6_7 
REMARK    3  A    between atoms: C6_7  and  N1_8 
REMARK    4  A    between atoms: N1_8  and  C8_10 
REMARK    5  A    between atoms: C16_20  and  O2_21 
REMARK    6  A    between atoms: C18_23  and  O3_24 
ROOT
HETATM    1  C2  UNL     1      22.408   0.670  52.071  1.00  0.00     0.105 A 
HETATM    2  C3  UNL     1      23.135   1.615  51.402  1.00  0.00     0.055 A 
HETATM    3  C4  UNL     1      24.503   1.692  51.641  1.00  0.00     0.025 A 
HETATM    4  C5  UNL     1      25.113   2.696  50.929  1.00  0.00     0.066 A 
HETATM    5  N2  UNL     1      26.432   2.837  51.142  1.00  0.00    -0.244 NA
HETATM    6  C14 UNL     1      27.157   2.080  51.980  1.00  0.00     0.234 A 
HETATM    7  N3  UNL     1      26.541   1.102  52.665  1.00  0.00    -0.238 NA
HETATM    8  C15 UNL     1      25.246   0.890  52.519  1.00  0.00     0.106 A 
HETATM    9  C16 UNL     1      24.419  -0.050  53.159  1.00  0.00     0.134 A 
HETATM   10  C18 UNL     1      23.076  -0.156  52.951  1.00  0.00     0.137 A 
ENDROOT
BRANCH   4  11
HETATM   11  C6  UNL     1      24.635   3.623  49.875  1.00  0.00     0.182 C 
BRANCH  11  12
HETATM   12  N1  UNL     1      24.696   4.972  50.405  1.00  0.00    -0.380 N 
HETATM   13  C7  UNL     1      23.795   5.305  51.465  1.00  0.00     0.150 C 
BRANCH  12  14
HETATM   14  C8  UNL     1      25.612   5.909  49.877  1.00  0.00     0.030 A 
HETATM   15  C9  UNL     1      26.559   5.650  48.876  1.00  0.00     0.029 A 
HETATM   16  C10 UNL     1      27.459   6.542  48.339  1.00  0.00     0.002 A 
HETATM   17  C11 UNL     1      27.437   7.824  48.827  1.00  0.00     0.000 A 
HETATM   18  C12 UNL     1      26.561   8.212  49.806  1.00  0.00     0.002 A 
HETATM   19  C13 UNL     1      25.711   7.229  50.262  1.00  0.00     0.029 A 
ENDBRANCH  12  14
ENDBRANCH  11  12
ENDBRANCH   4  11
BRANCH   1  20
HETATM   20  O1  UNL     1      21.071   0.428  51.985  1.00  0.00    -0.353 OA
HETATM   21  C1  UNL     1      20.083   1.315  52.534  1.00  0.00     0.210 C 
ENDBRANCH   1  20
BRANCH   9  22
HETATM   22  O2  UNL     1      25.182  -0.838  54.026  1.00  0.00    -0.351 OA
HETATM   23  C17 UNL     1      25.522  -0.485  55.332  1.00  0.00     0.210 C 
ENDBRANCH   9  22
BRANCH  10  24
HETATM   24  O3  UNL     1      22.528  -1.189  53.741  1.00  0.00    -0.351 OA
HETATM   25  C19 UNL     1      21.863  -0.893  54.955  1.00  0.00     0.210 C 
ENDBRANCH  10  24
TORSDOF 6
ENDMDL
MODEL 7
REMARK VINA RESULT:      -7.0      2.662      6.018
REMARK  6 active torsions:
REMARK  status: ('A' for Active; 'I' for Inactive)
REMARK    1  A    between atoms: O1_2  and  C2_3 
REMARK    2  A    between atoms: C5_6  and  C6_7 
REMARK    3  A    between atoms: C6_7  and  N1_8 
REMARK    4  A    between atoms: N1_8  and  C8_10 
REMARK    5  A    between atoms: C16_20  and  O2_21 
REMARK    6  A    between atoms: C18_23  and  O3_24 
ROOT
HETATM    1  C2  UNL     1      24.502   2.858  51.486  1.00  0.00     0.105 A 
HETATM    2  C3  UNL     1      24.014   1.671  51.956  1.00  0.00     0.055 A 
HETATM    3  C4  UNL     1      22.674   1.602  52.324  1.00  0.00     0.025 A 
HETATM    4  C5  UNL     1      22.316   0.366  52.802  1.00  0.00     0.066 A 
HETATM    5  N2  UNL     1      21.038   0.249  53.201  1.00  0.00    -0.244 NA
HETATM    6  C14 UNL     1      20.129   1.236  53.158  1.00  0.00     0.234 A 
HETATM    7  N3  UNL     1      20.501   2.436  52.684  1.00  0.00    -0.238 NA
HETATM    8  C15 UNL     1      21.737   2.643  52.269  1.00  0.00     0.106 A 
HETATM    9  C16 UNL     1      22.326   3.820  51.774  1.00  0.00     0.134 A 
HETATM   10  C18 UNL     1      23.633   3.926  51.404  1.00  0.00     0.137 A 
ENDROOT
BRANCH   4  11
HETATM   11  C6  UNL     1      23.028  -0.931  52.890  1.00  0.00     0.182 C 
BRANCH  11  12
HETATM   12  N1  UNL     1      23.847  -0.912  54.087  1.00  0.00    -0.380 N 
HETATM   13  C7  UNL     1      23.188  -1.116  55.340  1.00  0.00     0.150 C 
BRANCH  12  14
HETATM   14  C8  UNL     1      25.240  -0.692  53.999  1.00  0.00     0.030 A 
HETATM   15  C9  UNL     1      26.008   0.053  54.905  1.00  0.00     0.029 A 
HETATM   16  C10 UNL     1      27.364   0.280  54.849  1.00  0.00     0.002 A 
HETATM   17  C11 UNL     1      28.049  -0.275  53.797  1.00  0.00     0.000 A 
HETATM   18  C12 UNL     1      27.420  -1.026  52.840  1.00  0.00     0.002 A 
HETATM   19  C13 UNL     1      26.062  -1.182  53.006  1.00  0.00     0.029 A 
ENDBRANCH  12  14
ENDBRANCH  11  12
ENDBRANCH   4  11
BRANCH   1  20
HETATM   20  O1  UNL     1      25.769   3.137  51.076  1.00  0.00    -0.353 OA
HETATM   21  C1  UNL     1      26.919   2.427  51.565  1.00  0.00     0.210 C 
ENDBRANCH   1  20
BRANCH   9  22
HETATM   22  O2  UNL     1      21.372   4.842  51.727  1.00  0.00    -0.351 OA
HETATM   23  C17 UNL     1      20.558   5.122  50.628  1.00  0.00     0.210 C 
ENDBRANCH   9  22
BRANCH  10  24
HETATM   24  O3  UNL     1      23.920   5.232  50.953  1.00  0.00    -0.351 OA
HETATM   25  C19 UNL     1      24.057   5.504  49.570  1.00  0.00     0.210 C 
ENDBRANCH  10  24
TORSDOF 6
ENDMDL
MODEL 8
REMARK VINA RESULT:      -7.0      1.374      1.930
REMARK  6 active torsions:
REMARK  status: ('A' for Active; 'I' for Inactive)
REMARK    1  A    between atoms: O1_2  and  C2_3 
REMARK    2  A    between atoms: C5_6  and  C6_7 
REMARK    3  A    between atoms: C6_7  and  N1_8 
REMARK    4  A    between atoms: N1_8  and  C8_10 
REMARK    5  A    between atoms: C16_20  and  O2_21 
REMARK    6  A    between atoms: C18_23  and  O3_24 
ROOT
HETATM    1  C2  UNL     1      25.200   1.487  52.468  1.00  0.00     0.105 A 
HETATM    2  C3  UNL     1      24.656   2.640  51.975  1.00  0.00     0.055 A 
HETATM    3  C4  UNL     1      23.273   2.788  52.002  1.00  0.00     0.025 A 
HETATM    4  C5  UNL     1      22.852   3.975  51.456  1.00  0.00     0.066 A 
HETATM    5  N2  UNL     1      21.521   4.159  51.429  1.00  0.00    -0.244 NA
HETATM    6  C14 UNL     1      20.618   3.281  51.889  1.00  0.00     0.234 A 
HETATM    7  N3  UNL     1      21.052   2.126  52.422  1.00  0.00    -0.238 NA
HETATM    8  C15 UNL     1      22.343   1.859  52.490  1.00  0.00     0.106 A 
HETATM    9  C16 UNL     1      22.990   0.710  52.977  1.00  0.00     0.134 A 
HETATM   10  C18 UNL     1      24.342   0.530  52.966  1.00  0.00     0.137 A 
ENDROOT
BRANCH   4  11
HETATM   11  C6  UNL     1      23.572   5.172  50.960  1.00  0.00     0.182 C 
BRANCH  11  12
HETATM   12  N1  UNL     1      23.983   4.913  49.593  1.00  0.00    -0.380 N 
HETATM   13  C7  UNL     1      23.030   4.293  48.725  1.00  0.00     0.150 C 
BRANCH  12  14
HETATM   14  C8  UNL     1      25.282   5.261  49.157  1.00  0.00     0.030 A 
HETATM   15  C9  UNL     1      26.406   4.425  49.193  1.00  0.00     0.029 A 
HETATM   16  C10 UNL     1      27.680   4.733  48.772  1.00  0.00     0.002 A 
HETATM   17  C11 UNL     1      27.883   5.990  48.261  1.00  0.00     0.000 A 
HETATM   18  C12 UNL     1      26.870   6.907  48.168  1.00  0.00     0.002 A 
HETATM   19  C13 UNL     1      25.641   6.480  48.622  1.00  0.00     0.029 A 
ENDBRANCH  12  14
ENDBRANCH  11  12
ENDBRANCH   4  11
BRANCH   1  20
HETATM   20  O1  UNL     1      26.516   1.145  52.534  1.00  0.00    -0.353 OA
HETATM   21  C1  UNL     1      27.485   1.921  53.256  1.00  0.00     0.210 C 
ENDBRANCH   1  20
BRANCH   9  22
HETATM   22  O2  UNL     1      22.042  -0.198  53.460  1.00  0.00    -0.351 OA
HETATM   23  C17 UNL     1      21.556  -0.222  54.767  1.00  0.00     0.210 C 
ENDBRANCH   9  22
BRANCH  10  24
HETATM   24  O3  UNL     1      24.682  -0.724  53.518  1.00  0.00    -0.351 OA
HETATM   25  C19 UNL     1      25.187  -0.818  54.837  1.00  0.00     0.210 C 
ENDBRANCH  10  24
TORSDOF 6
ENDMDL
MODEL 9
REMARK VINA RESULT:      -7.0      2.050      3.116
REMARK  6 active torsions:
REMARK  status: ('A' for Active; 'I' for Inactive)
REMARK    1  A    between atoms: O1_2  and  C2_3 
REMARK    2  A    between atoms: C5_6  and  C6_7 
REMARK    3  A    between atoms: C6_7  and  N1_8 
REMARK    4  A    between atoms: N1_8  and  C8_10 
REMARK    5  A    between atoms: C16_20  and  O2_21 
REMARK    6  A    between atoms: C18_23  and  O3_24 
ROOT
HETATM    1  C2  UNL     1      25.535   0.342  52.473  1.00  0.00     0.105 A 
HETATM    2  C3  UNL     1      24.215   0.466  52.137  1.00  0.00     0.055 A 
HETATM    3  C4  UNL     1      23.259  -0.067  52.994  1.00  0.00     0.025 A 
HETATM    4  C5  UNL     1      21.977   0.100  52.532  1.00  0.00     0.066 A 
HETATM    5  N2  UNL     1      21.010  -0.422  53.307  1.00  0.00    -0.244 NA
HETATM    6  C14 UNL     1      21.223  -1.071  54.462  1.00  0.00     0.234 A 
HETATM    7  N3  UNL     1      22.485  -1.221  54.897  1.00  0.00    -0.238 NA
HETATM    8  C15 UNL     1      23.498  -0.740  54.200  1.00  0.00     0.106 A 
HETATM    9  C16 UNL     1      24.878  -0.818  54.464  1.00  0.00     0.134 A 
HETATM   10  C18 UNL     1      25.844  -0.308  53.649  1.00  0.00     0.137 A 
ENDROOT
BRANCH   4  11
HETATM   11  C6  UNL     1      21.404   0.833  51.377  1.00  0.00     0.182 C 
BRANCH  11  12
HETATM   12  N1  UNL     1      21.459   2.251  51.676  1.00  0.00    -0.380 N 
HETATM   13  C7  UNL     1      20.480   2.773  52.579  1.00  0.00     0.150 C 
BRANCH  12  14
HETATM   14  C8  UNL     1      22.445   3.072  51.083  1.00  0.00     0.030 A 
HETATM   15  C9  UNL     1      22.970   2.913  49.793  1.00  0.00     0.029 A 
HETATM   16  C10 UNL     1      23.925   3.698  49.187  1.00  0.00     0.002 A 
HETATM   17  C11 UNL     1      24.424   4.749  49.913  1.00  0.00     0.000 A 
HETATM   18  C12 UNL     1      23.998   5.017  51.187  1.00  0.00     0.002 A 
HETATM   19  C13 UNL     1      23.039   4.162  51.682  1.00  0.00     0.029 A 
ENDBRANCH  12  14
ENDBRANCH  11  12
ENDBRANCH   4  11
BRANCH   1  20
HETATM   20  O1  UNL     1      26.619   0.788  51.780  1.00  0.00    -0.353 OA
HETATM   21  C1  UNL     1      26.717   2.125  51.266  1.00  0.00     0.210 C 
ENDBRANCH   1  20
BRANCH   9  22
HETATM   22  O2  UNL     1      25.090  -1.490  55.672  1.00  0.00    -0.351 OA
HETATM   23  C17 UNL     1      25.159  -0.877  56.924  1.00  0.00     0.210 C 
ENDBRANCH   9  22
BRANCH  10  24
HETATM   24  O3  UNL     1      27.127  -0.549  54.185  1.00  0.00    -0.351 OA
HETATM   25  C19 UNL     1      27.874   0.504  54.766  1.00  0.00     0.210 C 
ENDBRANCH  10  24
TORSDOF 6
ENDMDL
