MODEL 1
REMARK VINA RESULT:      -8.6      0.000      0.000
REMARK  3 active torsions:
REMARK  status: ('A' for Active; 'I' for Inactive)
REMARK    1  A    between atoms: O1_2  and  C2_3 
REMARK    2  A    between atoms: N2_11  and  C9_12 
REMARK    3  A    between atoms: C18_22  and  O2_23 
ROOT
HETATM    1  C2  UNL     1      27.453   1.594  52.687  1.00  0.00     0.076 C 
HETATM    2  C3  UNL     1      26.174   1.242  53.195  1.00  0.00     0.042 C 
HETATM    3  C4  UNL     1      25.734  -0.423  52.998  1.00  0.00     0.093 A 
HETATM    4  C5  UNL     1      26.875  -0.806  52.287  1.00  0.00     0.066 A 
HETATM    5  C6  UNL     1      26.980  -0.544  53.659  1.00  0.00     0.119 A 
HETATM    6  N1  UNL     1      26.417  -0.236  54.827  1.00  0.00    -0.287 NA
HETATM    7  C7  UNL     1      25.067  -1.113  54.873  1.00  0.00     0.202 C 
HETATM    8  C8  UNL     1      24.483  -0.773  56.169  1.00  0.00     0.057 C 
HETATM    9  N2  UNL     1      24.454  -0.282  53.748  1.00  0.00    -0.327 N 
HETATM   10  C18 UNL     1      28.186   0.398  53.533  1.00  0.00     0.210 C 
ENDROOT
BRANCH   9  11
HETATM   11  C9  UNL     1      23.347   0.474  53.308  1.00  0.00     0.139 A 
HETATM   12  N3  UNL     1      23.601   1.691  52.794  1.00  0.00    -0.242 NA
HETATM   13  C10 UNL     1      22.583   2.452  52.355  1.00  0.00     0.120 A 
HETATM   14  C11 UNL     1      21.330   1.914  52.471  1.00  0.00     0.031 A 
HETATM   15  C12 UNL     1      21.036   0.673  52.993  1.00  0.00    -0.021 A 
HETATM   16  C13 UNL     1      19.750   0.187  53.081  1.00  0.00     0.012 A 
HETATM   17  C17 UNL     1      22.105  -0.067  53.426  1.00  0.00     0.020 A 
HETATM   18  C14 UNL     1      19.575  -1.086  53.629  1.00  0.00     0.001 A 
HETATM   19  C15 UNL     1      20.655  -1.834  54.067  1.00  0.00     0.001 A 
HETATM   20  C16 UNL     1      21.932  -1.321  53.965  1.00  0.00     0.016 A 
ENDBRANCH   9  11
BRANCH   1  21
HETATM   21  O1  UNL     1      27.568   2.646  51.812  1.00  0.00    -0.358 OA
HETATM   22  C1  UNL     1      26.518   2.874  50.889  1.00  0.00     0.209 C 
ENDBRANCH   1  21
BRANCH  10  23
HETATM   23  O2  UNL     1      28.568   1.008  54.677  1.00  0.00    -0.381 OA
HETATM   24  C19 UNL     1      29.539   1.990  54.546  1.00  0.00     0.202 C 
ENDBRANCH  10  23
TORSDOF 3
ENDMDL
MODEL 2
REMARK VINA RESULT:      -8.0      2.530      5.672
REMARK  3 active torsions:
REMARK  status: ('A' for Active; 'I' for Inactive)
REMARK    1  A    between atoms: O1_2  and  C2_3 
REMARK    2  A    between atoms: N2_11  and  C9_12 
REMARK    3  A    between atoms: C18_22  and  O2_23 
ROOT
HETATM    1  C2  UNL     1      24.629   2.833  50.217  1.00  0.00     0.076 C 
HETATM    2  C3  UNL     1      25.133   2.046  51.287  1.00  0.00     0.042 C 
HETATM    3  C4  UNL     1      24.591   2.512  52.866  1.00  0.00     0.093 A 
HETATM    4  C5  UNL     1      23.855   3.628  52.458  1.00  0.00     0.066 A 
HETATM    5  C6  UNL     1      23.358   2.347  52.189  1.00  0.00     0.119 A 
HETATM    6  N1  UNL     1      23.450   1.021  52.298  1.00  0.00    -0.287 NA
HETATM    7  C7  UNL     1      23.901   0.767  53.822  1.00  0.00     0.202 C 
HETATM    8  C8  UNL     1      23.972  -0.690  53.919  1.00  0.00     0.057 C 
HETATM    9  N2  UNL     1      25.274   1.377  53.549  1.00  0.00    -0.327 N 
HETATM   10  C18 UNL     1      23.081   2.610  50.702  1.00  0.00     0.210 C 
ENDROOT
BRANCH   9  11
HETATM   11  C9  UNL     1      26.673   1.223  53.641  1.00  0.00     0.139 A 
HETATM   12  N3  UNL     1      27.386   2.298  54.025  1.00  0.00    -0.242 NA
HETATM   13  C10 UNL     1      28.723   2.205  54.133  1.00  0.00     0.120 A 
HETATM   14  C11 UNL     1      29.272   0.988  53.834  1.00  0.00     0.031 A 
HETATM   15  C12 UNL     1      28.572  -0.132  53.438  1.00  0.00    -0.021 A 
HETATM   16  C13 UNL     1      29.185  -1.332  53.152  1.00  0.00     0.012 A 
HETATM   17  C17 UNL     1      27.212   0.011  53.343  1.00  0.00     0.020 A 
HETATM   18  C14 UNL     1      28.372  -2.397  52.760  1.00  0.00     0.001 A 
HETATM   19  C15 UNL     1      26.997  -2.254  52.664  1.00  0.00     0.001 A 
HETATM   20  C16 UNL     1      26.412  -1.040  52.957  1.00  0.00     0.016 A 
ENDBRANCH   9  11
BRANCH   1  21
HETATM   21  O1  UNL     1      25.502   3.395  49.319  1.00  0.00    -0.358 OA
HETATM   22  C1  UNL     1      26.174   4.587  49.687  1.00  0.00     0.209 C 
ENDBRANCH   1  21
BRANCH  10  23
HETATM   23  O2  UNL     1      22.677   1.535  49.988  1.00  0.00    -0.381 OA
HETATM   24  C19 UNL     1      21.423   1.632  49.404  1.00  0.00     0.202 C 
ENDBRANCH  10  23
TORSDOF 3
ENDMDL
MODEL 3
REMARK VINA RESULT:      -7.7      3.185      5.883
REMARK  3 active torsions:
REMARK  status: ('A' for Active; 'I' for Inactive)
REMARK    1  A    between atoms: O1_2  and  C2_3 
REMARK    2  A    between atoms: N2_11  and  C9_12 
REMARK    3  A    between atoms: C18_22  and  O2_23 
ROOT
HETATM    1  C2  UNL     1      23.463   5.502  50.598  1.00  0.00     0.076 C 
HETATM    2  C3  UNL     1      23.308   4.093  50.681  1.00  0.00     0.042 C 
HETATM    3  C4  UNL     1      21.759   3.553  51.241  1.00  0.00     0.093 A 
HETATM    4  C5  UNL     1      21.228   4.821  51.488  1.00  0.00     0.066 A 
HETATM    5  C6  UNL     1      21.385   4.393  50.164  1.00  0.00     0.119 A 
HETATM    6  N1  UNL     1      21.715   3.449  49.282  1.00  0.00    -0.287 NA
HETATM    7  C7  UNL     1      21.084   2.093  49.880  1.00  0.00     0.202 C 
HETATM    8  C8  UNL     1      21.443   1.083  48.886  1.00  0.00     0.057 C 
HETATM    9  N2  UNL     1      22.074   2.110  51.042  1.00  0.00    -0.327 N 
HETATM   10  C18 UNL     1      22.110   5.659  49.689  1.00  0.00     0.210 C 
ENDROOT
BRANCH   9  11
HETATM   11  C9  UNL     1      23.036   1.391  51.784  1.00  0.00     0.139 A 
HETATM   12  N3  UNL     1      24.324   1.542  51.428  1.00  0.00    -0.242 NA
HETATM   13  C10 UNL     1      25.282   0.883  52.104  1.00  0.00     0.120 A 
HETATM   14  C11 UNL     1      24.859   0.085  53.132  1.00  0.00     0.031 A 
HETATM   15  C12 UNL     1      23.549  -0.092  53.522  1.00  0.00    -0.021 A 
HETATM   16  C13 UNL     1      23.186  -0.911  54.568  1.00  0.00     0.012 A 
HETATM   17  C17 UNL     1      22.608   0.600  52.804  1.00  0.00     0.020 A 
HETATM   18  C14 UNL     1      21.827  -1.012  54.871  1.00  0.00     0.001 A 
HETATM   19  C15 UNL     1      20.876  -0.313  54.146  1.00  0.00     0.001 A 
HETATM   20  C16 UNL     1      21.269   0.500  53.104  1.00  0.00     0.016 A 
ENDBRANCH   9  11
BRANCH   1  21
HETATM   21  O1  UNL     1      24.529   6.105  51.219  1.00  0.00    -0.358 OA
HETATM   22  C1  UNL     1      25.258   7.087  50.505  1.00  0.00     0.209 C 
ENDBRANCH   1  21
BRANCH  10  23
HETATM   23  O2  UNL     1      22.575   5.620  48.420  1.00  0.00    -0.381 OA
HETATM   24  C19 UNL     1      22.577   6.827  47.737  1.00  0.00     0.202 C 
ENDBRANCH  10  23
TORSDOF 3
ENDMDL
MODEL 4
REMARK VINA RESULT:      -7.7      2.219      4.494
REMARK  3 active torsions:
REMARK  status: ('A' for Active; 'I' for Inactive)
REMARK    1  A    between atoms: O1_2  and  C2_3 
REMARK    2  A    between atoms: N2_11  and  C9_12 
REMARK    3  A    between atoms: C18_22  and  O2_23 
ROOT
HETATM    1  C2  UNL     1      24.862   2.679  52.648  1.00  0.00     0.076 C 
HETATM    2  C3  UNL     1      23.759   1.853  52.304  1.00  0.00     0.042 C 
HETATM    3  C4  UNL     1      22.284   2.697  51.960  1.00  0.00     0.093 A 
HETATM    4  C5  UNL     1      22.764   3.978  52.246  1.00  0.00     0.066 A 
HETATM    5  C6  UNL     1      23.183   3.338  51.073  1.00  0.00     0.119 A 
HETATM    6  N1  UNL     1      23.125   2.306  50.230  1.00  0.00    -0.287 NA
HETATM    7  C7  UNL     1      21.558   1.949  50.129  1.00  0.00     0.202 C 
HETATM    8  C8  UNL     1      21.523   0.832  49.186  1.00  0.00     0.057 C 
HETATM    9  N2  UNL     1      21.545   1.461  51.576  1.00  0.00    -0.327 N 
HETATM   10  C18 UNL     1      24.680   3.590  51.300  1.00  0.00     0.210 C 
ENDROOT
BRANCH   9  11
HETATM   11  C9  UNL     1      21.207   0.421  52.467  1.00  0.00     0.139 A 
HETATM   12  N3  UNL     1      22.196  -0.079  53.231  1.00  0.00    -0.242 NA
HETATM   13  C10 UNL     1      21.927  -1.068  54.101  1.00  0.00     0.120 A 
HETATM   14  C11 UNL     1      20.631  -1.504  54.143  1.00  0.00     0.031 A 
HETATM   15  C12 UNL     1      19.596  -1.015  53.375  1.00  0.00    -0.021 A 
HETATM   16  C13 UNL     1      18.308  -1.498  53.463  1.00  0.00     0.012 A 
HETATM   17  C17 UNL     1      19.917  -0.007  52.503  1.00  0.00     0.020 A 
HETATM   18  C14 UNL     1      17.343  -0.923  52.634  1.00  0.00     0.001 A 
HETATM   19  C15 UNL     1      17.667   0.096  51.754  1.00  0.00     0.001 A 
HETATM   20  C16 UNL     1      18.964   0.558  51.687  1.00  0.00     0.016 A 
ENDBRANCH   9  11
BRANCH   1  21
HETATM   21  O1  UNL     1      25.557   2.435  53.808  1.00  0.00    -0.358 OA
HETATM   22  C1  UNL     1      26.872   1.918  53.709  1.00  0.00     0.209 C 
ENDBRANCH   1  21
BRANCH  10  23
HETATM   23  O2  UNL     1      25.509   3.003  50.407  1.00  0.00    -0.381 OA
HETATM   24  C19 UNL     1      26.334   3.858  49.691  1.00  0.00     0.202 C 
ENDBRANCH  10  23
TORSDOF 3
ENDMDL
MODEL 5
REMARK VINA RESULT:      -7.7      2.817      5.251
REMARK  3 active torsions:
REMARK  status: ('A' for Active; 'I' for Inactive)
REMARK    1  A    between atoms: O1_2  and  C2_3 
REMARK    2  A    between atoms: N2_11  and  C9_12 
REMARK    3  A    between atoms: C18_22  and  O2_23 
ROOT
HETATM    1  C2  UNL     1      24.883  -0.032  53.268  1.00  0.00     0.076 C 
HETATM    2  C3  UNL     1      24.624   1.015  52.343  1.00  0.00     0.042 C 
HETATM    3  C4  UNL     1      25.406   2.521  52.696  1.00  0.00     0.093 A 
HETATM    4  C5  UNL     1      25.989   2.120  53.901  1.00  0.00     0.066 A 
HETATM    5  C6  UNL     1      26.508   1.632  52.696  1.00  0.00     0.119 A 
HETATM    6  N1  UNL     1      26.520   1.609  51.363  1.00  0.00    -0.287 NA
HETATM    7  C7  UNL     1      26.360   3.151  50.927  1.00  0.00     0.202 C 
HETATM    8  C8  UNL     1      26.397   3.099  49.466  1.00  0.00     0.057 C 
HETATM    9  N2  UNL     1      24.926   3.182  51.450  1.00  0.00    -0.327 N 
HETATM   10  C18 UNL     1      26.503   0.158  53.123  1.00  0.00     0.210 C 
ENDROOT
BRANCH   9  11
HETATM   11  C9  UNL     1      23.576   3.491  51.176  1.00  0.00     0.139 A 
HETATM   12  N3  UNL     1      22.717   2.460  51.084  1.00  0.00    -0.242 NA
HETATM   13  C10 UNL     1      21.418   2.699  50.830  1.00  0.00     0.120 A 
HETATM   14  C11 UNL     1      21.061   4.011  50.678  1.00  0.00     0.031 A 
HETATM   15  C12 UNL     1      21.915   5.089  50.766  1.00  0.00    -0.021 A 
HETATM   16  C13 UNL     1      21.493   6.390  50.604  1.00  0.00     0.012 A 
HETATM   17  C17 UNL     1      23.229   4.797  51.027  1.00  0.00     0.020 A 
HETATM   18  C14 UNL     1      22.451   7.401  50.715  1.00  0.00     0.001 A 
HETATM   19  C15 UNL     1      23.778   7.106  50.980  1.00  0.00     0.001 A 
HETATM   20  C16 UNL     1      24.171   5.794  51.137  1.00  0.00     0.016 A 
ENDBRANCH   9  11
BRANCH   1  21
HETATM   21  O1  UNL     1      23.832  -0.703  53.844  1.00  0.00    -0.358 OA
HETATM   22  C1  UNL     1      22.628  -0.828  53.108  1.00  0.00     0.209 C 
ENDBRANCH   1  21
BRANCH  10  23
HETATM   23  O2  UNL     1      26.840  -0.727  52.159  1.00  0.00    -0.381 OA
HETATM   24  C19 UNL     1      26.907  -2.056  52.551  1.00  0.00     0.202 C 
ENDBRANCH  10  23
TORSDOF 3
ENDMDL
MODEL 6
REMARK VINA RESULT:      -7.3      3.015      6.460
REMARK  3 active torsions:
REMARK  status: ('A' for Active; 'I' for Inactive)
REMARK    1  A    between atoms: O1_2  and  C2_3 
REMARK    2  A    between atoms: N2_11  and  C9_12 
REMARK    3  A    between atoms: C18_22  and  O2_23 
ROOT
HETATM    1  C2  UNL     1      20.639   0.841  50.133  1.00  0.00     0.076 C 
HETATM    2  C3  UNL     1      21.558   0.504  51.162  1.00  0.00     0.042 C 
HETATM    3  C4  UNL     1      21.629   1.624  52.483  1.00  0.00     0.093 A 
HETATM    4  C5  UNL     1      20.728   2.552  51.954  1.00  0.00     0.066 A 
HETATM    5  C6  UNL     1      20.244   1.332  52.444  1.00  0.00     0.119 A 
HETATM    6  N1  UNL     1      20.449   0.162  53.049  1.00  0.00    -0.287 NA
HETATM    7  C7  UNL     1      21.460   0.499  54.257  1.00  0.00     0.202 C 
HETATM    8  C8  UNL     1      21.650  -0.793  54.914  1.00  0.00     0.057 C 
HETATM    9  N2  UNL     1      22.587   0.796  53.269  1.00  0.00    -0.327 N 
HETATM   10  C18 UNL     1      19.407   1.000  51.200  1.00  0.00     0.210 C 
ENDROOT
BRANCH   9  11
HETATM   11  C9  UNL     1      23.923   0.543  52.893  1.00  0.00     0.139 A 
HETATM   12  N3  UNL     1      24.447  -0.644  53.249  1.00  0.00    -0.242 NA
HETATM   13  C10 UNL     1      25.714  -0.939  52.912  1.00  0.00     0.120 A 
HETATM   14  C11 UNL     1      26.395   0.021  52.212  1.00  0.00     0.031 A 
HETATM   15  C12 UNL     1      25.889   1.246  51.833  1.00  0.00    -0.021 A 
HETATM   16  C13 UNL     1      26.626   2.171  51.128  1.00  0.00     0.012 A 
HETATM   17  C17 UNL     1      24.592   1.501  52.198  1.00  0.00     0.020 A 
HETATM   18  C14 UNL     1      26.006   3.379  50.799  1.00  0.00     0.001 A 
HETATM   19  C15 UNL     1      24.697   3.637  51.168  1.00  0.00     0.001 A 
HETATM   20  C16 UNL     1      23.983   2.691  51.873  1.00  0.00     0.016 A 
ENDBRANCH   9  11
BRANCH   1  21
HETATM   21  O1  UNL     1      21.070   0.895  48.830  1.00  0.00    -0.358 OA
HETATM   22  C1  UNL     1      22.095   1.814  48.497  1.00  0.00     0.209 C 
ENDBRANCH   1  21
BRANCH  10  23
HETATM   23  O2  UNL     1      18.827  -0.221  51.200  1.00  0.00    -0.381 OA
HETATM   24  C19 UNL     1      17.442  -0.235  51.131  1.00  0.00     0.202 C 
ENDBRANCH  10  23
TORSDOF 3
ENDMDL
MODEL 7
REMARK VINA RESULT:      -7.3      4.133      7.880
REMARK  3 active torsions:
REMARK  status: ('A' for Active; 'I' for Inactive)
REMARK    1  A    between atoms: O1_2  and  C2_3 
REMARK    2  A    between atoms: N2_11  and  C9_12 
REMARK    3  A    between atoms: C18_22  and  O2_23 
ROOT
HETATM    1  C2  UNL     1      17.218  -0.321  52.153  1.00  0.00     0.076 C 
HETATM    2  C3  UNL     1      18.499   0.195  52.488  1.00  0.00     0.042 C 
HETATM    3  C4  UNL     1      19.518   0.574  51.138  1.00  0.00     0.093 A 
HETATM    4  C5  UNL     1      18.643   0.121  50.147  1.00  0.00     0.066 A 
HETATM    5  C6  UNL     1      18.353   1.314  50.821  1.00  0.00     0.119 A 
HETATM    6  N1  UNL     1      18.683   2.258  51.703  1.00  0.00    -0.287 NA
HETATM    7  C7  UNL     1      20.251   2.525  51.446  1.00  0.00     0.202 C 
HETATM    8  C8  UNL     1      20.580   3.575  52.409  1.00  0.00     0.057 C 
HETATM    9  N2  UNL     1      20.605   1.141  51.985  1.00  0.00    -0.327 N 
HETATM   10  C18 UNL     1      16.903   0.940  51.157  1.00  0.00     0.210 C 
ENDROOT
BRANCH   9  11
HETATM   11  C9  UNL     1      21.397   0.390  52.880  1.00  0.00     0.139 A 
HETATM   12  N3  UNL     1      20.750  -0.364  53.787  1.00  0.00    -0.242 NA
HETATM   13  C10 UNL     1      21.456  -1.103  54.661  1.00  0.00     0.120 A 
HETATM   14  C11 UNL     1      22.819  -1.028  54.557  1.00  0.00     0.031 A 
HETATM   15  C12 UNL     1      23.512  -0.266  53.641  1.00  0.00    -0.021 A 
HETATM   16  C13 UNL     1      24.888  -0.233  53.587  1.00  0.00     0.012 A 
HETATM   17  C17 UNL     1      22.750   0.470  52.770  1.00  0.00     0.020 A 
HETATM   18  C14 UNL     1      25.479   0.576  52.614  1.00  0.00     0.001 A 
HETATM   19  C15 UNL     1      24.709   1.320  51.734  1.00  0.00     0.001 A 
HETATM   20  C16 UNL     1      23.333   1.267  51.812  1.00  0.00     0.016 A 
ENDBRANCH   9  11
BRANCH   1  21
HETATM   21  O1  UNL     1      16.797  -1.504  52.711  1.00  0.00    -0.358 OA
HETATM   22  C1  UNL     1      17.723  -2.255  53.476  1.00  0.00     0.209 C 
ENDBRANCH   1  21
BRANCH  10  23
HETATM   23  O2  UNL     1      16.247   1.815  51.952  1.00  0.00    -0.381 OA
HETATM   24  C19 UNL     1      14.952   1.461  52.305  1.00  0.00     0.202 C 
ENDBRANCH  10  23
TORSDOF 3
ENDMDL
MODEL 8
REMARK VINA RESULT:      -7.2      3.728      6.144
REMARK  3 active torsions:
REMARK  status: ('A' for Active; 'I' for Inactive)
REMARK    1  A    between atoms: O1_2  and  C2_3 
REMARK    2  A    between atoms: N2_11  and  C9_12 
REMARK    3  A    between atoms: C18_22  and  O2_23 
ROOT
HETATM    1  C2  UNL     1      23.734   0.741  52.680  1.00  0.00     0.076 C 
HETATM    2  C3  UNL     1      23.908   1.480  51.480  1.00  0.00     0.042 C 
HETATM    3  C4  UNL     1      24.168   3.181  51.692  1.00  0.00     0.093 A 
HETATM    4  C5  UNL     1      24.024   3.191  53.082  1.00  0.00     0.066 A 
HETATM    5  C6  UNL     1      25.183   2.641  52.520  1.00  0.00     0.119 A 
HETATM    6  N1  UNL     1      25.938   2.367  51.456  1.00  0.00    -0.287 NA
HETATM    7  C7  UNL     1      25.860   3.695  50.547  1.00  0.00     0.202 C 
HETATM    8  C8  UNL     1      26.711   3.375  49.402  1.00  0.00     0.057 C 
HETATM    9  N2  UNL     1      24.387   3.434  50.240  1.00  0.00    -0.327 N 
HETATM   10  C18 UNL     1      25.121   1.331  53.318  1.00  0.00     0.210 C 
ENDROOT
BRANCH   9  11
HETATM   11  C9  UNL     1      23.393   3.307  49.246  1.00  0.00     0.139 A 
HETATM   12  N3  UNL     1      22.744   2.131  49.174  1.00  0.00    -0.242 NA
HETATM   13  C10 UNL     1      21.785   1.958  48.248  1.00  0.00     0.120 A 
HETATM   14  C11 UNL     1      21.536   3.023  47.426  1.00  0.00     0.031 A 
HETATM   15  C12 UNL     1      22.181   4.239  47.473  1.00  0.00    -0.021 A 
HETATM   16  C13 UNL     1      21.884   5.276  46.615  1.00  0.00     0.012 A 
HETATM   17  C17 UNL     1      23.151   4.370  48.433  1.00  0.00     0.020 A 
HETATM   18  C14 UNL     1      22.606   6.462  46.758  1.00  0.00     0.001 A 
HETATM   19  C15 UNL     1      23.585   6.595  47.729  1.00  0.00     0.001 A 
HETATM   20  C16 UNL     1      23.861   5.540  48.573  1.00  0.00     0.016 A 
ENDBRANCH   9  11
BRANCH   1  21
HETATM   21  O1  UNL     1      22.633  -0.067  52.825  1.00  0.00    -0.358 OA
HETATM   22  C1  UNL     1      22.366  -0.622  54.101  1.00  0.00     0.209 C 
ENDBRANCH   1  21
BRANCH  10  23
HETATM   23  O2  UNL     1      26.045   0.403  52.981  1.00  0.00    -0.381 OA
HETATM   24  C19 UNL     1      26.011  -0.777  53.709  1.00  0.00     0.202 C 
ENDBRANCH  10  23
TORSDOF 3
ENDMDL
MODEL 9
REMARK VINA RESULT:      -7.1      9.759     12.766
REMARK  3 active torsions:
REMARK  status: ('A' for Active; 'I' for Inactive)
REMARK    1  A    between atoms: O1_2  and  C2_3 
REMARK    2  A    between atoms: N2_11  and  C9_12 
REMARK    3  A    between atoms: C18_22  and  O2_23 
ROOT
HETATM    1  C2  UNL     1      31.326  10.121  47.791  1.00  0.00     0.076 C 
HETATM    2  C3  UNL     1      31.326   8.764  47.370  1.00  0.00     0.042 C 
HETATM    3  C4  UNL     1      31.866   7.623  48.558  1.00  0.00     0.093 A 
HETATM    4  C5  UNL     1      32.193   8.560  49.542  1.00  0.00     0.066 A 
HETATM    5  C6  UNL     1      30.844   8.298  49.268  1.00  0.00     0.119 A 
HETATM    6  N1  UNL     1      29.905   7.611  48.617  1.00  0.00    -0.287 NA
HETATM    7  C7  UNL     1      30.427   6.087  48.638  1.00  0.00     0.202 C 
HETATM    8  C8  UNL     1      29.372   5.356  47.938  1.00  0.00     0.057 C 
HETATM    9  N2  UNL     1      31.580   6.438  47.700  1.00  0.00    -0.327 N 
HETATM   10  C18 UNL     1      30.438   9.771  49.122  1.00  0.00     0.210 C 
ENDROOT
BRANCH   9  11
HETATM   11  C9  UNL     1      32.270   6.126  46.509  1.00  0.00     0.139 A 
HETATM   12  N3  UNL     1      31.924   6.809  45.403  1.00  0.00    -0.242 NA
HETATM   13  C10 UNL     1      32.553   6.554  44.242  1.00  0.00     0.120 A 
HETATM   14  C11 UNL     1      33.523   5.590  44.276  1.00  0.00     0.031 A 
HETATM   15  C12 UNL     1      33.901   4.872  45.391  1.00  0.00    -0.021 A 
HETATM   16  C13 UNL     1      34.888   3.912  45.361  1.00  0.00     0.012 A 
HETATM   17  C17 UNL     1      33.233   5.167  46.551  1.00  0.00     0.020 A 
HETATM   18  C14 UNL     1      35.184   3.250  46.554  1.00  0.00     0.001 A 
HETATM   19  C15 UNL     1      34.510   3.547  47.727  1.00  0.00     0.001 A 
HETATM   20  C16 UNL     1      33.526   4.514  47.726  1.00  0.00     0.016 A 
ENDBRANCH   9  11
BRANCH   1  21
HETATM   21  O1  UNL     1      31.972  11.066  47.034  1.00  0.00    -0.358 OA
HETATM   22  C1  UNL     1      33.298  10.800  46.610  1.00  0.00     0.209 C 
ENDBRANCH   1  21
BRANCH  10  23
HETATM   23  O2  UNL     1      29.166   9.985  48.720  1.00  0.00    -0.381 OA
HETATM   24  C19 UNL     1      28.710  11.292  48.818  1.00  0.00     0.202 C 
ENDBRANCH  10  23
TORSDOF 3
ENDMDL
