MODEL 1
REMARK VINA RESULT:      -7.8      0.000      0.000
REMARK  10 active torsions:
REMARK  status: ('A' for Active; 'I' for Inactive)
REMARK    1  A    between atoms: C2_2  and  O1_3 
REMARK    2  A    between atoms: O1_3  and  C3_4 
REMARK    3  A    between atoms: C3_4  and  C4_5 
REMARK    4  A    between atoms: C5_6  and  O2_7 
REMARK    5  A    between atoms: O2_7  and  C6_8 
REMARK    6  A    between atoms: C8_10  and  C9_11 
REMARK    7  A    between atoms: C10_12  and  C12_15 
REMARK       I    between atoms: C12_15  and  N2_16 
REMARK    8  A    between atoms: C14_19  and  O4_20 
REMARK    9  A    between atoms: O4_20  and  C15_21 
REMARK   10  A    between atoms: C17_23  and  O5_24 
ROOT
HETATM    1  C9  UNL     1      27.194  -0.502  52.462  1.00  0.00     0.040 C 
HETATM    2  C10 UNL     1      28.190  -0.637  53.305  1.00  0.00     0.112 C 
HETATM    3  C11 UNL     1      28.585   0.436  54.183  1.00  0.00     0.105 C 
HETATM    4  N1  UNL     1      28.898   1.299  54.881  1.00  0.00    -0.191 NA
ENDROOT
BRANCH   2   5
HETATM    5  C12 UNL     1      28.917  -1.892  53.365  1.00  0.00     0.260 C 
HETATM    6  N2  UNL     1      28.300  -3.115  53.007  1.00  0.00    -0.365 N 
HETATM    7  H10 UNL     1      27.761  -3.936  52.655  1.00  0.00     0.159 HD
HETATM    8  H11 UNL     1      28.583  -4.042  53.393  1.00  0.00     0.159 HD
HETATM    9  O3  UNL     1      30.133  -1.946  53.740  1.00  0.00    -0.267 OA
ENDBRANCH   2   5
BRANCH   1  10
HETATM   10  C8  UNL     1      26.316   0.616  52.199  1.00  0.00    -0.029 A 
HETATM   11  C7  UNL     1      25.035   0.578  52.689  1.00  0.00     0.052 A 
HETATM   12  C6  UNL     1      24.120   1.588  52.511  1.00  0.00     0.113 A 
HETATM   13  C17 UNL     1      24.542   2.713  51.785  1.00  0.00     0.133 A 
HETATM   14  C14 UNL     1      25.842   2.792  51.268  1.00  0.00     0.105 A 
HETATM   15  C13 UNL     1      26.684   1.736  51.496  1.00  0.00     0.051 A 
BRANCH  12  16
HETATM   16  O2  UNL     1      22.822   1.789  52.882  1.00  0.00    -0.300 OA
BRANCH  16  17
HETATM   17  C5  UNL     1      21.766   1.163  52.276  1.00  0.00     0.118 A 
HETATM   18  C4  UNL     1      20.764   0.543  52.764  1.00  0.00    -0.006 A 
HETATM   19  C18 UNL     1      20.137   0.171  51.549  1.00  0.00     0.121 A 
HETATM   20  S1  UNL     1      21.409   0.982  50.610  1.00  0.00    -0.100 SA
BRANCH  18  21
HETATM   21  C3  UNL     1      20.413   0.291  54.168  1.00  0.00     0.206 C 
BRANCH  21  22
HETATM   22  O1  UNL     1      21.355  -0.216  54.982  1.00  0.00    -0.387 OA
BRANCH  22  23
HETATM   23  C2  UNL     1      21.960  -1.403  54.725  1.00  0.00     0.163 C 
HETATM   24  C1  UNL     1      23.321  -1.383  55.442  1.00  0.00     0.033 C 
ENDBRANCH  22  23
ENDBRANCH  21  22
ENDBRANCH  18  21
ENDBRANCH  16  17
ENDBRANCH  12  16
BRANCH  13  25
HETATM   25  O5  UNL     1      23.787   3.862  51.478  1.00  0.00    -0.356 OA
HETATM   26  H18 UNL     1      23.429   4.450  52.206  1.00  0.00     0.218 HD
ENDBRANCH  13  25
BRANCH  14  27
HETATM   27  O4  UNL     1      26.314   3.883  50.541  1.00  0.00    -0.349 OA
BRANCH  27  28
HETATM   28  C15 UNL     1      26.787   3.640  49.239  1.00  0.00     0.171 C 
HETATM   29  C16 UNL     1      27.419   4.905  48.699  1.00  0.00     0.034 C 
ENDBRANCH  27  28
ENDBRANCH  14  27
ENDBRANCH   1  10
TORSDOF 10
ENDMDL
MODEL 2
REMARK VINA RESULT:      -7.8      1.466      2.293
REMARK  10 active torsions:
REMARK  status: ('A' for Active; 'I' for Inactive)
REMARK    1  A    between atoms: C2_2  and  O1_3 
REMARK    2  A    between atoms: O1_3  and  C3_4 
REMARK    3  A    between atoms: C3_4  and  C4_5 
REMARK    4  A    between atoms: C5_6  and  O2_7 
REMARK    5  A    between atoms: O2_7  and  C6_8 
REMARK    6  A    between atoms: C8_10  and  C9_11 
REMARK    7  A    between atoms: C10_12  and  C12_15 
REMARK       I    between atoms: C12_15  and  N2_16 
REMARK    8  A    between atoms: C14_19  and  O4_20 
REMARK    9  A    between atoms: O4_20  and  C15_21 
REMARK   10  A    between atoms: C17_23  and  O5_24 
ROOT
HETATM    1  C9  UNL     1      27.200  -0.657  52.604  1.00  0.00     0.040 C 
HETATM    2  C10 UNL     1      28.250  -0.666  53.389  1.00  0.00     0.112 C 
HETATM    3  C11 UNL     1      28.582   0.465  54.219  1.00  0.00     0.105 C 
HETATM    4  N1  UNL     1      28.843   1.374  54.879  1.00  0.00    -0.191 NA
ENDROOT
BRANCH   2   5
HETATM    5  C12 UNL     1      29.105  -1.839  53.433  1.00  0.00     0.260 C 
HETATM    6  N2  UNL     1      28.599  -3.128  53.138  1.00  0.00    -0.365 N 
HETATM    7  H10 UNL     1      28.129  -4.008  52.835  1.00  0.00     0.159 HD
HETATM    8  H11 UNL     1      28.997  -4.010  53.526  1.00  0.00     0.159 HD
HETATM    9  O3  UNL     1      30.340  -1.759  53.737  1.00  0.00    -0.267 OA
ENDBRANCH   2   5
BRANCH   1  10
HETATM   10  C8  UNL     1      26.198   0.358  52.369  1.00  0.00    -0.029 A 
HETATM   11  C7  UNL     1      24.961   0.209  52.943  1.00  0.00     0.052 A 
HETATM   12  C6  UNL     1      23.938   1.116  52.798  1.00  0.00     0.113 A 
HETATM   13  C17 UNL     1      24.197   2.252  52.016  1.00  0.00     0.133 A 
HETATM   14  C14 UNL     1      25.447   2.444  51.412  1.00  0.00     0.105 A 
HETATM   15  C13 UNL     1      26.405   1.485  51.613  1.00  0.00     0.051 A 
BRANCH  12  16
HETATM   16  O2  UNL     1      22.653   1.199  53.249  1.00  0.00    -0.300 OA
BRANCH  16  17
HETATM   17  C5  UNL     1      21.929   0.108  53.649  1.00  0.00     0.118 A 
HETATM   18  C4  UNL     1      20.774  -0.307  53.303  1.00  0.00    -0.006 A 
HETATM   19  C18 UNL     1      20.705  -1.451  54.139  1.00  0.00     0.121 A 
HETATM   20  S1  UNL     1      22.324  -1.112  54.786  1.00  0.00    -0.100 SA
BRANCH  18  21
HETATM   21  C3  UNL     1      19.822   0.266  52.343  1.00  0.00     0.206 C 
BRANCH  21  22
HETATM   22  O1  UNL     1      20.157   0.283  51.041  1.00  0.00    -0.387 OA
BRANCH  22  23
HETATM   23  C2  UNL     1      20.410   1.441  50.381  1.00  0.00     0.163 C 
HETATM   24  C1  UNL     1      21.544   1.156  49.382  1.00  0.00     0.033 C 
ENDBRANCH  22  23
ENDBRANCH  21  22
ENDBRANCH  18  21
ENDBRANCH  16  17
ENDBRANCH  12  16
BRANCH  13  25
HETATM   25  O5  UNL     1      23.311   3.310  51.728  1.00  0.00    -0.356 OA
HETATM   26  H18 UNL     1      22.330   3.139  51.610  1.00  0.00     0.218 HD
ENDBRANCH  13  25
BRANCH  14  27
HETATM   27  O4  UNL     1      25.758   3.551  50.627  1.00  0.00    -0.349 OA
BRANCH  27  28
HETATM   28  C15 UNL     1      26.603   3.347  49.521  1.00  0.00     0.171 C 
HETATM   29  C16 UNL     1      27.011   4.690  48.955  1.00  0.00     0.034 C 
ENDBRANCH  27  28
ENDBRANCH  14  27
ENDBRANCH   1  10
TORSDOF 10
ENDMDL
MODEL 3
REMARK VINA RESULT:      -7.1      2.333      5.097
REMARK  10 active torsions:
REMARK  status: ('A' for Active; 'I' for Inactive)
REMARK    1  A    between atoms: C2_2  and  O1_3 
REMARK    2  A    between atoms: O1_3  and  C3_4 
REMARK    3  A    between atoms: C3_4  and  C4_5 
REMARK    4  A    between atoms: C5_6  and  O2_7 
REMARK    5  A    between atoms: O2_7  and  C6_8 
REMARK    6  A    between atoms: C8_10  and  C9_11 
REMARK    7  A    between atoms: C10_12  and  C12_15 
REMARK       I    between atoms: C12_15  and  N2_16 
REMARK    8  A    between atoms: C14_19  and  O4_20 
REMARK    9  A    between atoms: O4_20  and  C15_21 
REMARK   10  A    between atoms: C17_23  and  O5_24 
ROOT
HETATM    1  C9  UNL     1      26.813  -0.277  52.766  1.00  0.00     0.040 C 
HETATM    2  C10 UNL     1      27.945   0.126  53.293  1.00  0.00     0.112 C 
HETATM    3  C11 UNL     1      28.118   1.477  53.763  1.00  0.00     0.105 C 
HETATM    4  N1  UNL     1      28.252   2.561  54.135  1.00  0.00    -0.191 NA
ENDROOT
BRANCH   2   5
HETATM    5  C12 UNL     1      29.054  -0.803  53.412  1.00  0.00     0.260 C 
HETATM    6  N2  UNL     1      28.848  -2.203  53.369  1.00  0.00    -0.365 N 
HETATM    7  H10 UNL     1      28.578  -3.204  53.254  1.00  0.00     0.159 HD
HETATM    8  H11 UNL     1      29.471  -2.896  53.836  1.00  0.00     0.159 HD
HETATM    9  O3  UNL     1      30.254  -0.401  53.560  1.00  0.00    -0.267 OA
ENDBRANCH   2   5
BRANCH   1  10
HETATM   10  C8  UNL     1      25.571   0.424  52.532  1.00  0.00    -0.029 A 
HETATM   11  C7  UNL     1      25.514   1.342  51.514  1.00  0.00     0.052 A 
HETATM   12  C6  UNL     1      24.384   2.056  51.194  1.00  0.00     0.113 A 
HETATM   13  C17 UNL     1      23.235   1.816  51.964  1.00  0.00     0.133 A 
HETATM   14  C14 UNL     1      23.251   0.885  53.013  1.00  0.00     0.105 A 
HETATM   15  C13 UNL     1      24.424   0.221  53.258  1.00  0.00     0.051 A 
BRANCH  12  16
HETATM   16  O2  UNL     1      24.074   3.001  50.260  1.00  0.00    -0.300 OA
BRANCH  16  17
HETATM   17  C5  UNL     1      24.691   4.221  50.198  1.00  0.00     0.118 A 
HETATM   18  C4  UNL     1      24.453   5.315  50.809  1.00  0.00    -0.006 A 
HETATM   19  C18 UNL     1      25.471   6.108  50.222  1.00  0.00     0.121 A 
HETATM   20  S1  UNL     1      26.027   4.727  49.252  1.00  0.00    -0.100 SA
BRANCH  18  21
HETATM   21  C3  UNL     1      23.414   5.627  51.799  1.00  0.00     0.206 C 
BRANCH  21  22
HETATM   22  O1  UNL     1      22.139   5.319  51.508  1.00  0.00    -0.387 OA
BRANCH  22  23
HETATM   23  C2  UNL     1      21.410   6.047  50.624  1.00  0.00     0.163 C 
HETATM   24  C1  UNL     1      20.483   5.068  49.884  1.00  0.00     0.033 C 
ENDBRANCH  22  23
ENDBRANCH  21  22
ENDBRANCH  18  21
ENDBRANCH  16  17
ENDBRANCH  12  16
BRANCH  13  25
HETATM   25  O5  UNL     1      21.971   2.422  51.823  1.00  0.00    -0.356 OA
HETATM   26  H18 UNL     1      21.687   2.818  50.947  1.00  0.00     0.218 HD
ENDBRANCH  13  25
BRANCH  14  27
HETATM   27  O4  UNL     1      22.142   0.607  53.808  1.00  0.00    -0.349 OA
BRANCH  27  28
HETATM   28  C15 UNL     1      21.378  -0.529  53.484  1.00  0.00     0.171 C 
HETATM   29  C16 UNL     1      21.560  -1.572  54.566  1.00  0.00     0.034 C 
ENDBRANCH  27  28
ENDBRANCH  14  27
ENDBRANCH   1  10
TORSDOF 10
ENDMDL
MODEL 4
REMARK VINA RESULT:      -7.1      3.013      5.399
REMARK  10 active torsions:
REMARK  status: ('A' for Active; 'I' for Inactive)
REMARK    1  A    between atoms: C2_2  and  O1_3 
REMARK    2  A    between atoms: O1_3  and  C3_4 
REMARK    3  A    between atoms: C3_4  and  C4_5 
REMARK    4  A    between atoms: C5_6  and  O2_7 
REMARK    5  A    between atoms: O2_7  and  C6_8 
REMARK    6  A    between atoms: C8_10  and  C9_11 
REMARK    7  A    between atoms: C10_12  and  C12_15 
REMARK       I    between atoms: C12_15  and  N2_16 
REMARK    8  A    between atoms: C14_19  and  O4_20 
REMARK    9  A    between atoms: O4_20  and  C15_21 
REMARK   10  A    between atoms: C17_23  and  O5_24 
ROOT
HETATM    1  C9  UNL     1      26.241   2.906  50.853  1.00  0.00     0.040 C 
HETATM    2  C10 UNL     1      25.532   3.957  50.519  1.00  0.00     0.112 C 
HETATM    3  C11 UNL     1      24.349   4.334  51.250  1.00  0.00     0.105 C 
HETATM    4  N1  UNL     1      23.401   4.628  51.839  1.00  0.00    -0.191 NA
ENDROOT
BRANCH   2   5
HETATM    5  C12 UNL     1      25.942   4.770  49.387  1.00  0.00     0.260 C 
HETATM    6  N2  UNL     1      27.296   4.829  48.977  1.00  0.00    -0.365 N 
HETATM    7  H10 UNL     1      28.305   4.737  48.731  1.00  0.00     0.159 HD
HETATM    8  H11 UNL     1      27.718   5.647  48.488  1.00  0.00     0.159 HD
HETATM    9  O3  UNL     1      25.106   5.462  48.720  1.00  0.00    -0.267 OA
ENDBRANCH   2   5
BRANCH   1  10
HETATM   10  C8  UNL     1      26.065   1.940  51.915  1.00  0.00    -0.029 A 
HETATM   11  C7  UNL     1      24.972   1.112  51.879  1.00  0.00     0.052 A 
HETATM   12  C6  UNL     1      24.712   0.151  52.826  1.00  0.00     0.113 A 
HETATM   13  C17 UNL     1      25.630   0.026  53.880  1.00  0.00     0.133 A 
HETATM   14  C14 UNL     1      26.761   0.851  53.954  1.00  0.00     0.105 A 
HETATM   15  C13 UNL     1      26.936   1.782  52.964  1.00  0.00     0.051 A 
BRANCH  12  16
HETATM   16  O2  UNL     1      23.724  -0.772  53.017  1.00  0.00    -0.300 OA
BRANCH  16  17
HETATM   17  C5  UNL     1      22.436  -0.433  53.332  1.00  0.00     0.118 A 
HETATM   18  C4  UNL     1      21.481   0.004  52.609  1.00  0.00    -0.006 A 
HETATM   19  C18 UNL     1      20.496   0.133  53.621  1.00  0.00     0.121 A 
HETATM   20  S1  UNL     1      21.633  -0.472  54.845  1.00  0.00    -0.100 SA
BRANCH  18  21
HETATM   21  C3  UNL     1      21.454   0.296  51.171  1.00  0.00     0.206 C 
BRANCH  21  22
HETATM   22  O1  UNL     1      20.580   1.212  50.719  1.00  0.00    -0.387 OA
BRANCH  22  23
HETATM   23  C2  UNL     1      20.975   2.267  49.963  1.00  0.00     0.163 C 
HETATM   24  C1  UNL     1      22.337   1.902  49.349  1.00  0.00     0.033 C 
ENDBRANCH  22  23
ENDBRANCH  21  22
ENDBRANCH  18  21
ENDBRANCH  16  17
ENDBRANCH  12  16
BRANCH  13  25
HETATM   25  O5  UNL     1      25.574  -0.881  54.957  1.00  0.00    -0.356 OA
HETATM   26  H18 UNL     1      26.400  -1.115  55.474  1.00  0.00     0.218 HD
ENDBRANCH  13  25
BRANCH  14  27
HETATM   27  O4  UNL     1      27.703   0.771  54.976  1.00  0.00    -0.349 OA
BRANCH  27  28
HETATM   28  C15 UNL     1      29.060   0.732  54.608  1.00  0.00     0.171 C 
HETATM   29  C16 UNL     1      29.367  -0.618  53.995  1.00  0.00     0.034 C 
ENDBRANCH  27  28
ENDBRANCH  14  27
ENDBRANCH   1  10
TORSDOF 10
ENDMDL
MODEL 5
REMARK VINA RESULT:      -7.0      1.777      5.819
REMARK  10 active torsions:
REMARK  status: ('A' for Active; 'I' for Inactive)
REMARK    1  A    between atoms: C2_2  and  O1_3 
REMARK    2  A    between atoms: O1_3  and  C3_4 
REMARK    3  A    between atoms: C3_4  and  C4_5 
REMARK    4  A    between atoms: C5_6  and  O2_7 
REMARK    5  A    between atoms: O2_7  and  C6_8 
REMARK    6  A    between atoms: C8_10  and  C9_11 
REMARK    7  A    between atoms: C10_12  and  C12_15 
REMARK       I    between atoms: C12_15  and  N2_16 
REMARK    8  A    between atoms: C14_19  and  O4_20 
REMARK    9  A    between atoms: O4_20  and  C15_21 
REMARK   10  A    between atoms: C17_23  and  O5_24 
ROOT
HETATM    1  C9  UNL     1      26.678  -0.419  52.801  1.00  0.00     0.040 C 
HETATM    2  C10 UNL     1      27.845  -0.001  53.231  1.00  0.00     0.112 C 
HETATM    3  C11 UNL     1      28.067   1.377  53.588  1.00  0.00     0.105 C 
HETATM    4  N1  UNL     1      28.239   2.482  53.871  1.00  0.00    -0.191 NA
ENDROOT
BRANCH   2   5
HETATM    5  C12 UNL     1      28.944  -0.942  53.354  1.00  0.00     0.260 C 
HETATM    6  N2  UNL     1      28.722  -2.339  53.322  1.00  0.00    -0.365 N 
HETATM    7  H10 UNL     1      28.442  -3.338  53.215  1.00  0.00     0.159 HD
HETATM    8  H11 UNL     1      29.340  -3.035  53.792  1.00  0.00     0.159 HD
HETATM    9  O3  UNL     1      30.149  -0.551  53.497  1.00  0.00    -0.267 OA
ENDBRANCH   2   5
BRANCH   1  10
HETATM   10  C8  UNL     1      25.435   0.288  52.587  1.00  0.00    -0.029 A 
HETATM   11  C7  UNL     1      25.375   1.230  51.592  1.00  0.00     0.052 A 
HETATM   12  C6  UNL     1      24.245   1.952  51.293  1.00  0.00     0.113 A 
HETATM   13  C17 UNL     1      23.098   1.694  52.060  1.00  0.00     0.133 A 
HETATM   14  C14 UNL     1      23.116   0.738  53.086  1.00  0.00     0.105 A 
HETATM   15  C13 UNL     1      24.290   0.068  53.311  1.00  0.00     0.051 A 
BRANCH  12  16
HETATM   16  O2  UNL     1      23.933   2.919  50.382  1.00  0.00    -0.300 OA
BRANCH  16  17
HETATM   17  C5  UNL     1      24.325   4.224  50.514  1.00  0.00     0.118 A 
HETATM   18  C4  UNL     1      25.275   4.876  49.967  1.00  0.00    -0.006 A 
HETATM   19  C18 UNL     1      25.060   6.127  50.598  1.00  0.00     0.121 A 
HETATM   20  S1  UNL     1      23.667   5.473  51.486  1.00  0.00    -0.100 SA
BRANCH  18  21
HETATM   21  C3  UNL     1      26.282   4.425  48.998  1.00  0.00     0.206 C 
BRANCH  21  22
HETATM   22  O1  UNL     1      27.542   4.874  49.129  1.00  0.00    -0.387 OA
BRANCH  22  23
HETATM   23  C2  UNL     1      28.050   5.832  48.313  1.00  0.00     0.163 C 
HETATM   24  C1  UNL     1      29.566   5.593  48.220  1.00  0.00     0.033 C 
ENDBRANCH  22  23
ENDBRANCH  21  22
ENDBRANCH  18  21
ENDBRANCH  16  17
ENDBRANCH  12  16
BRANCH  13  25
HETATM   25  O5  UNL     1      21.834   2.304  51.937  1.00  0.00    -0.356 OA
HETATM   26  H18 UNL     1      21.548   3.023  52.574  1.00  0.00     0.218 HD
ENDBRANCH  13  25
BRANCH  14  27
HETATM   27  O4  UNL     1      22.010   0.442  53.877  1.00  0.00    -0.349 OA
BRANCH  27  28
HETATM   28  C15 UNL     1      21.198  -0.636  53.482  1.00  0.00     0.171 C 
HETATM   29  C16 UNL     1      21.462  -1.815  54.394  1.00  0.00     0.034 C 
ENDBRANCH  27  28
ENDBRANCH  14  27
ENDBRANCH   1  10
TORSDOF 10
ENDMDL
MODEL 6
REMARK VINA RESULT:      -7.0      2.165      5.414
REMARK  10 active torsions:
REMARK  status: ('A' for Active; 'I' for Inactive)
REMARK    1  A    between atoms: C2_2  and  O1_3 
REMARK    2  A    between atoms: O1_3  and  C3_4 
REMARK    3  A    between atoms: C3_4  and  C4_5 
REMARK    4  A    between atoms: C5_6  and  O2_7 
REMARK    5  A    between atoms: O2_7  and  C6_8 
REMARK    6  A    between atoms: C8_10  and  C9_11 
REMARK    7  A    between atoms: C10_12  and  C12_15 
REMARK       I    between atoms: C12_15  and  N2_16 
REMARK    8  A    between atoms: C14_19  and  O4_20 
REMARK    9  A    between atoms: O4_20  and  C15_21 
REMARK   10  A    between atoms: C17_23  and  O5_24 
ROOT
HETATM    1  C9  UNL     1      26.761   1.265  53.326  1.00  0.00     0.040 C 
HETATM    2  C10 UNL     1      27.733   0.398  53.487  1.00  0.00     0.112 C 
HETATM    3  C11 UNL     1      27.562  -0.995  53.161  1.00  0.00     0.105 C 
HETATM    4  N1  UNL     1      27.419  -2.109  52.900  1.00  0.00    -0.191 NA
ENDROOT
BRANCH   2   5
HETATM    5  C12 UNL     1      29.015   0.844  54.004  1.00  0.00     0.260 C 
HETATM    6  N2  UNL     1      30.231   0.372  53.456  1.00  0.00    -0.365 N 
HETATM    7  H10 UNL     1      31.053   0.007  52.927  1.00  0.00     0.159 HD
HETATM    8  H11 UNL     1      31.123   0.307  53.992  1.00  0.00     0.159 HD
HETATM    9  O3  UNL     1      29.099   1.672  54.968  1.00  0.00    -0.267 OA
ENDBRANCH   2   5
BRANCH   1  10
HETATM   10  C8  UNL     1      25.410   1.098  52.838  1.00  0.00    -0.029 A 
HETATM   11  C7  UNL     1      24.966   1.918  51.833  1.00  0.00     0.052 A 
HETATM   12  C6  UNL     1      23.708   1.841  51.286  1.00  0.00     0.113 A 
HETATM   13  C17 UNL     1      22.845   0.860  51.799  1.00  0.00     0.133 A 
HETATM   14  C14 UNL     1      23.260   0.000  52.826  1.00  0.00     0.105 A 
HETATM   15  C13 UNL     1      24.533   0.153  53.309  1.00  0.00     0.051 A 
BRANCH  12  16
HETATM   16  O2  UNL     1      23.039   2.519  50.308  1.00  0.00    -0.300 OA
BRANCH  16  17
HETATM   17  C5  UNL     1      22.615   3.813  50.452  1.00  0.00     0.118 A 
HETATM   18  C4  UNL     1      22.894   4.867  49.791  1.00  0.00    -0.006 A 
HETATM   19  C18 UNL     1      22.109   5.789  50.527  1.00  0.00     0.121 A 
HETATM   20  S1  UNL     1      21.541   4.493  51.601  1.00  0.00    -0.100 SA
BRANCH  18  21
HETATM   21  C3  UNL     1      23.784   5.038  48.635  1.00  0.00     0.206 C 
BRANCH  21  22
HETATM   22  O1  UNL     1      24.905   5.763  48.791  1.00  0.00    -0.387 OA
BRANCH  22  23
HETATM   23  C2  UNL     1      25.823   5.465  49.746  1.00  0.00     0.163 C 
HETATM   24  C1  UNL     1      26.554   4.191  49.290  1.00  0.00     0.033 C 
ENDBRANCH  22  23
ENDBRANCH  21  22
ENDBRANCH  18  21
ENDBRANCH  16  17
ENDBRANCH  12  16
BRANCH  13  25
HETATM   25  O5  UNL     1      21.521   0.593  51.399  1.00  0.00    -0.356 OA
HETATM   26  H18 UNL     1      21.231  -0.339  51.175  1.00  0.00     0.218 HD
ENDBRANCH  13  25
BRANCH  14  27
HETATM   27  O4  UNL     1      22.448  -0.990  53.373  1.00  0.00    -0.349 OA
BRANCH  27  28
HETATM   28  C15 UNL     1      22.090  -0.863  54.727  1.00  0.00     0.171 C 
HETATM   29  C16 UNL     1      20.918   0.087  54.842  1.00  0.00     0.034 C 
ENDBRANCH  27  28
ENDBRANCH  14  27
ENDBRANCH   1  10
TORSDOF 10
ENDMDL
MODEL 7
REMARK VINA RESULT:      -6.9      1.983      5.213
REMARK  10 active torsions:
REMARK  status: ('A' for Active; 'I' for Inactive)
REMARK    1  A    between atoms: C2_2  and  O1_3 
REMARK    2  A    between atoms: O1_3  and  C3_4 
REMARK    3  A    between atoms: C3_4  and  C4_5 
REMARK    4  A    between atoms: C5_6  and  O2_7 
REMARK    5  A    between atoms: O2_7  and  C6_8 
REMARK    6  A    between atoms: C8_10  and  C9_11 
REMARK    7  A    between atoms: C10_12  and  C12_15 
REMARK       I    between atoms: C12_15  and  N2_16 
REMARK    8  A    between atoms: C14_19  and  O4_20 
REMARK    9  A    between atoms: O4_20  and  C15_21 
REMARK   10  A    between atoms: C17_23  and  O5_24 
ROOT
HETATM    1  C9  UNL     1      26.489  -1.086  53.083  1.00  0.00     0.040 C 
HETATM    2  C10 UNL     1      27.704  -0.713  53.407  1.00  0.00     0.112 C 
HETATM    3  C11 UNL     1      27.981   0.613  53.897  1.00  0.00     0.105 C 
HETATM    4  N1  UNL     1      28.196   1.678  54.286  1.00  0.00    -0.191 NA
ENDROOT
BRANCH   2   5
HETATM    5  C12 UNL     1      28.803  -1.653  53.274  1.00  0.00     0.260 C 
HETATM    6  N2  UNL     1      28.570  -3.043  53.146  1.00  0.00    -0.365 N 
HETATM    7  H10 UNL     1      28.270  -4.029  52.991  1.00  0.00     0.159 HD
HETATM    8  H11 UNL     1      29.247  -3.775  53.451  1.00  0.00     0.159 HD
HETATM    9  O3  UNL     1      30.018  -1.268  53.268  1.00  0.00    -0.267 OA
ENDBRANCH   2   5
BRANCH   1  10
HETATM   10  C8  UNL     1      25.234  -0.368  53.117  1.00  0.00    -0.029 A 
HETATM   11  C7  UNL     1      25.089   0.744  52.328  1.00  0.00     0.052 A 
HETATM   12  C6  UNL     1      23.939   1.494  52.272  1.00  0.00     0.113 A 
HETATM   13  C17 UNL     1      22.864   1.080  53.074  1.00  0.00     0.133 A 
HETATM   14  C14 UNL     1      22.970  -0.052  53.894  1.00  0.00     0.105 A 
HETATM   15  C13 UNL     1      24.157  -0.737  53.885  1.00  0.00     0.051 A 
BRANCH  12  16
HETATM   16  O2  UNL     1      23.550   2.612  51.592  1.00  0.00    -0.300 OA
BRANCH  16  17
HETATM   17  C5  UNL     1      23.207   2.599  50.267  1.00  0.00     0.118 A 
HETATM   18  C4  UNL     1      23.623   3.298  49.285  1.00  0.00    -0.006 A 
HETATM   19  C18 UNL     1      22.809   2.735  48.269  1.00  0.00     0.121 A 
HETATM   20  S1  UNL     1      22.066   1.624  49.440  1.00  0.00    -0.100 SA
BRANCH  18  21
HETATM   21  C3  UNL     1      24.628   4.368  49.257  1.00  0.00     0.206 C 
BRANCH  21  22
HETATM   22  O1  UNL     1      24.207   5.643  49.331  1.00  0.00    -0.387 OA
BRANCH  22  23
HETATM   23  C2  UNL     1      23.389   6.070  50.325  1.00  0.00     0.163 C 
HETATM   24  C1  UNL     1      23.825   7.500  50.688  1.00  0.00     0.033 C 
ENDBRANCH  22  23
ENDBRANCH  21  22
ENDBRANCH  18  21
ENDBRANCH  16  17
ENDBRANCH  12  16
BRANCH  13  25
HETATM   25  O5  UNL     1      21.596   1.685  53.180  1.00  0.00    -0.356 OA
HETATM   26  H18 UNL     1      20.991   1.475  53.952  1.00  0.00     0.218 HD
ENDBRANCH  13  25
BRANCH  14  27
HETATM   27  O4  UNL     1      21.937  -0.508  54.709  1.00  0.00    -0.349 OA
BRANCH  27  28
HETATM   28  C15 UNL     1      21.279  -1.690  54.324  1.00  0.00     0.171 C 
HETATM   29  C16 UNL     1      19.926  -1.336  53.745  1.00  0.00     0.034 C 
ENDBRANCH  27  28
ENDBRANCH  14  27
ENDBRANCH   1  10
TORSDOF 10
ENDMDL
MODEL 8
REMARK VINA RESULT:      -6.8      3.312      7.433
REMARK  10 active torsions:
REMARK  status: ('A' for Active; 'I' for Inactive)
REMARK    1  A    between atoms: C2_2  and  O1_3 
REMARK    2  A    between atoms: O1_3  and  C3_4 
REMARK    3  A    between atoms: C3_4  and  C4_5 
REMARK    4  A    between atoms: C5_6  and  O2_7 
REMARK    5  A    between atoms: O2_7  and  C6_8 
REMARK    6  A    between atoms: C8_10  and  C9_11 
REMARK    7  A    between atoms: C10_12  and  C12_15 
REMARK       I    between atoms: C12_15  and  N2_16 
REMARK    8  A    between atoms: C14_19  and  O4_20 
REMARK    9  A    between atoms: O4_20  and  C15_21 
REMARK   10  A    between atoms: C17_23  and  O5_24 
ROOT
HETATM    1  C9  UNL     1      22.523   0.484  52.726  1.00  0.00     0.040 C 
HETATM    2  C10 UNL     1      21.327   1.024  52.721  1.00  0.00     0.112 C 
HETATM    3  C11 UNL     1      21.139   2.438  52.519  1.00  0.00     0.105 C 
HETATM    4  N1  UNL     1      20.995   3.571  52.359  1.00  0.00    -0.191 NA
ENDROOT
BRANCH   2   5
HETATM    5  C12 UNL     1      20.159   0.184  52.921  1.00  0.00     0.260 C 
HETATM    6  N2  UNL     1      20.018  -0.613  54.082  1.00  0.00    -0.365 N 
HETATM    7  H10 UNL     1      19.997  -1.100  55.004  1.00  0.00     0.159 HD
HETATM    8  H11 UNL     1      19.469  -1.499  54.114  1.00  0.00     0.159 HD
HETATM    9  O3  UNL     1      19.218   0.130  52.065  1.00  0.00    -0.267 OA
ENDBRANCH   2   5
BRANCH   1  10
HETATM   10  C8  UNL     1      23.832   1.073  52.555  1.00  0.00    -0.029 A 
HETATM   11  C7  UNL     1      24.116   1.717  51.377  1.00  0.00     0.052 A 
HETATM   12  C6  UNL     1      25.321   2.322  51.111  1.00  0.00     0.113 A 
HETATM   13  C17 UNL     1      26.301   2.268  52.115  1.00  0.00     0.133 A 
HETATM   14  C14 UNL     1      26.051   1.621  53.333  1.00  0.00     0.105 A 
HETATM   15  C13 UNL     1      24.820   1.046  53.508  1.00  0.00     0.051 A 
BRANCH  12  16
HETATM   16  O2  UNL     1      25.842   3.006  50.051  1.00  0.00    -0.300 OA
BRANCH  16  17
HETATM   17  C5  UNL     1      25.680   4.354  49.878  1.00  0.00     0.118 A 
HETATM   18  C4  UNL     1      26.405   5.218  49.283  1.00  0.00    -0.006 A 
HETATM   19  C18 UNL     1      25.613   6.366  49.539  1.00  0.00     0.121 A 
HETATM   20  S1  UNL     1      24.420   5.384  50.415  1.00  0.00    -0.100 SA
BRANCH  18  21
HETATM   21  C3  UNL     1      27.681   5.043  48.578  1.00  0.00     0.206 C 
BRANCH  21  22
HETATM   22  O1  UNL     1      28.208   6.100  47.936  1.00  0.00    -0.387 OA
BRANCH  22  23
HETATM   23  C2  UNL     1      29.466   6.538  48.190  1.00  0.00     0.163 C 
HETATM   24  C1  UNL     1      30.424   5.377  47.875  1.00  0.00     0.033 C 
ENDBRANCH  22  23
ENDBRANCH  21  22
ENDBRANCH  18  21
ENDBRANCH  16  17
ENDBRANCH  12  16
BRANCH  13  25
HETATM   25  O5  UNL     1      27.599   2.813  52.070  1.00  0.00    -0.356 OA
HETATM   26  H18 UNL     1      28.321   2.468  52.673  1.00  0.00     0.218 HD
ENDBRANCH  13  25
BRANCH  14  27
HETATM   27  O4  UNL     1      26.985   1.537  54.362  1.00  0.00    -0.349 OA
BRANCH  27  28
HETATM   28  C15 UNL     1      27.426   0.255  54.736  1.00  0.00     0.171 C 
HETATM   29  C16 UNL     1      28.919   0.158  54.505  1.00  0.00     0.034 C 
ENDBRANCH  27  28
ENDBRANCH  14  27
ENDBRANCH   1  10
TORSDOF 10
ENDMDL
MODEL 9
REMARK VINA RESULT:      -6.7      3.541      6.285
REMARK  10 active torsions:
REMARK  status: ('A' for Active; 'I' for Inactive)
REMARK    1  A    between atoms: C2_2  and  O1_3 
REMARK    2  A    between atoms: O1_3  and  C3_4 
REMARK    3  A    between atoms: C3_4  and  C4_5 
REMARK    4  A    between atoms: C5_6  and  O2_7 
REMARK    5  A    between atoms: O2_7  and  C6_8 
REMARK    6  A    between atoms: C8_10  and  C9_11 
REMARK    7  A    between atoms: C10_12  and  C12_15 
REMARK       I    between atoms: C12_15  and  N2_16 
REMARK    8  A    between atoms: C14_19  and  O4_20 
REMARK    9  A    between atoms: O4_20  and  C15_21 
REMARK   10  A    between atoms: C17_23  and  O5_24 
ROOT
HETATM    1  C9  UNL     1      22.504   0.128  52.963  1.00  0.00     0.040 C 
HETATM    2  C10 UNL     1      21.255   0.507  53.099  1.00  0.00     0.112 C 
HETATM    3  C11 UNL     1      20.849   1.867  52.856  1.00  0.00     0.105 C 
HETATM    4  N1  UNL     1      20.530   2.960  52.663  1.00  0.00    -0.191 NA
ENDROOT
BRANCH   2   5
HETATM    5  C12 UNL     1      20.251  -0.462  53.502  1.00  0.00     0.260 C 
HETATM    6  N2  UNL     1      20.573  -1.540  54.360  1.00  0.00    -0.365 N 
HETATM    7  H10 UNL     1      20.915  -2.247  55.046  1.00  0.00     0.159 HD
HETATM    8  H11 UNL     1      20.067  -2.452  54.361  1.00  0.00     0.159 HD
HETATM    9  O3  UNL     1      19.044  -0.383  53.101  1.00  0.00    -0.267 OA
ENDBRANCH   2   5
BRANCH   1  10
HETATM   10  C8  UNL     1      23.685   0.870  52.580  1.00  0.00    -0.029 A 
HETATM   11  C7  UNL     1      23.640   1.644  51.449  1.00  0.00     0.052 A 
HETATM   12  C6  UNL     1      24.697   2.398  50.999  1.00  0.00     0.113 A 
HETATM   13  C17 UNL     1      25.879   2.361  51.756  1.00  0.00     0.133 A 
HETATM   14  C14 UNL     1      25.966   1.583  52.919  1.00  0.00     0.105 A 
HETATM   15  C13 UNL     1      24.861   0.863  53.289  1.00  0.00     0.051 A 
BRANCH  12  16
HETATM   16  O2  UNL     1      24.905   3.228  49.935  1.00  0.00    -0.300 OA
BRANCH  16  17
HETATM   17  C5  UNL     1      24.315   4.458  49.820  1.00  0.00     0.118 A 
HETATM   18  C4  UNL     1      23.154   4.798  49.417  1.00  0.00    -0.006 A 
HETATM   19  C18 UNL     1      23.286   6.202  49.564  1.00  0.00     0.121 A 
HETATM   20  S1  UNL     1      24.943   6.012  50.177  1.00  0.00    -0.100 SA
BRANCH  18  21
HETATM   21  C3  UNL     1      22.049   3.962  48.933  1.00  0.00     0.206 C 
BRANCH  21  22
HETATM   22  O1  UNL     1      22.201   3.313  47.765  1.00  0.00    -0.387 OA
BRANCH  22  23
HETATM   23  C2  UNL     1      22.400   1.972  47.712  1.00  0.00     0.163 C 
HETATM   24  C1  UNL     1      21.374   1.323  48.657  1.00  0.00     0.033 C 
ENDBRANCH  22  23
ENDBRANCH  21  22
ENDBRANCH  18  21
ENDBRANCH  16  17
ENDBRANCH  12  16
BRANCH  13  25
HETATM   25  O5  UNL     1      27.082   3.046  51.494  1.00  0.00    -0.356 OA
HETATM   26  H18 UNL     1      27.956   2.694  51.834  1.00  0.00     0.218 HD
ENDBRANCH  13  25
BRANCH  14  27
HETATM   27  O4  UNL     1      27.112   1.508  53.707  1.00  0.00    -0.349 OA
BRANCH  27  28
HETATM   28  C15 UNL     1      27.199   0.449  54.629  1.00  0.00     0.171 C 
HETATM   29  C16 UNL     1      28.655   0.097  54.843  1.00  0.00     0.034 C 
ENDBRANCH  27  28
ENDBRANCH  14  27
ENDBRANCH   1  10
TORSDOF 10
ENDMDL
