MODEL 1
REMARK VINA RESULT:      -7.9      0.000      0.000
REMARK  2 active torsions:
REMARK  status: ('A' for Active; 'I' for Inactive)
REMARK    1  A    between atoms: O1_2  and  C2_3 
REMARK    2  A    between atoms: C7_8  and  O2_9 
ROOT
HETATM    1  C2  UNL     1      22.566   3.274  52.372  1.00  0.00     0.104 A 
HETATM    2  C3  UNL     1      23.826   3.555  52.859  1.00  0.00     0.069 A 
HETATM    3  C4  UNL     1      24.786   2.570  52.972  1.00  0.00     0.043 A 
HETATM    4  C5  UNL     1      24.518   1.270  52.602  1.00  0.00    -0.024 A 
HETATM    5  C6  UNL     1      23.248   1.003  52.114  1.00  0.00     0.050 A 
HETATM    6  C7  UNL     1      22.254   1.972  51.987  1.00  0.00     0.116 A 
HETATM    7  C8  UNL     1      25.446   0.111  52.665  1.00  0.00     0.089 A 
HETATM    8  C9  UNL     1      26.735   0.568  53.200  1.00  0.00     0.060 A 
HETATM    9  C10 UNL     1      27.106   1.833  53.599  1.00  0.00     0.141 A 
HETATM   10  N1  UNL     1      28.339   2.091  54.072  1.00  0.00    -0.225 NA
HETATM   11  C11 UNL     1      29.250   1.084  54.163  1.00  0.00     0.214 A 
HETATM   12  N2  UNL     1      28.934  -0.183  53.783  1.00  0.00    -0.312 N 
HETATM   13  C12 UNL     1      29.943  -1.214  53.902  1.00  0.00     0.160 C 
HETATM   14  C13 UNL     1      27.684  -0.444  53.304  1.00  0.00     0.258 A 
HETATM   15  O3  UNL     1      27.499  -1.636  52.984  1.00  0.00    -0.267 OA
HETATM   16  N3  UNL     1      26.097   2.815  53.469  1.00  0.00    -0.340 N 
HETATM   17  H12 UNL     1      26.308   3.801  53.752  1.00  0.00     0.167 HD
ENDROOT
BRANCH   1  18
HETATM   18  O1  UNL     1      21.562   4.196  52.231  1.00  0.00    -0.353 OA
HETATM   19  C1  UNL     1      21.730   5.282  51.366  1.00  0.00     0.210 C 
ENDBRANCH   1  18
BRANCH   6  20
HETATM   20  O2  UNL     1      20.998   1.624  51.486  1.00  0.00    -0.276 OA
HETATM   21  I1  UNL     1      20.624   1.488  49.476  1.00  0.00     0.116 I 
ENDBRANCH   6  20
TORSDOF 2
ENDMDL
MODEL 2
REMARK VINA RESULT:      -7.8      3.524      6.415
REMARK  2 active torsions:
REMARK  status: ('A' for Active; 'I' for Inactive)
REMARK    1  A    between atoms: O1_2  and  C2_3 
REMARK    2  A    between atoms: C7_8  and  O2_9 
ROOT
HETATM    1  C2  UNL     1      27.051   1.126  52.958  1.00  0.00     0.104 A 
HETATM    2  C3  UNL     1      26.249   0.270  53.685  1.00  0.00     0.069 A 
HETATM    3  C4  UNL     1      24.891   0.189  53.452  1.00  0.00     0.043 A 
HETATM    4  C5  UNL     1      24.288   0.964  52.484  1.00  0.00    -0.024 A 
HETATM    5  C6  UNL     1      25.106   1.819  51.762  1.00  0.00     0.050 A 
HETATM    6  C7  UNL     1      26.480   1.926  51.971  1.00  0.00     0.116 A 
HETATM    7  C8  UNL     1      22.847   0.984  52.123  1.00  0.00     0.089 A 
HETATM    8  C9  UNL     1      22.133   0.027  52.978  1.00  0.00     0.060 A 
HETATM    9  C10 UNL     1      22.634  -0.790  53.968  1.00  0.00     0.141 A 
HETATM   10  N1  UNL     1      21.840  -1.620  54.668  1.00  0.00    -0.225 NA
HETATM   11  C11 UNL     1      20.506  -1.662  54.400  1.00  0.00     0.214 A 
HETATM   12  N2  UNL     1      19.961  -0.876  53.432  1.00  0.00    -0.312 N 
HETATM   13  C12 UNL     1      18.537  -0.963  53.190  1.00  0.00     0.160 C 
HETATM   14  C13 UNL     1      20.767  -0.034  52.723  1.00  0.00     0.258 A 
HETATM   15  O3  UNL     1      20.167   0.640  51.861  1.00  0.00    -0.267 OA
HETATM   16  N3  UNL     1      24.028  -0.679  54.177  1.00  0.00    -0.340 N 
HETATM   17  H12 UNL     1      24.479  -1.271  54.914  1.00  0.00     0.167 HD
ENDROOT
BRANCH   1  18
HETATM   18  O1  UNL     1      28.403   1.262  53.131  1.00  0.00    -0.353 OA
HETATM   19  C1  UNL     1      29.018   0.722  54.265  1.00  0.00     0.210 C 
ENDBRANCH   1  18
BRANCH   6  20
HETATM   20  O2  UNL     1      27.236   2.814  51.201  1.00  0.00    -0.276 OA
HETATM   21  I1  UNL     1      26.423   3.879  49.651  1.00  0.00     0.116 I 
ENDBRANCH   6  20
TORSDOF 2
ENDMDL
MODEL 3
REMARK VINA RESULT:      -7.5      3.957      6.690
REMARK  2 active torsions:
REMARK  status: ('A' for Active; 'I' for Inactive)
REMARK    1  A    between atoms: O1_2  and  C2_3 
REMARK    2  A    between atoms: C7_8  and  O2_9 
ROOT
HETATM    1  C2  UNL     1      26.908   1.124  52.970  1.00  0.00     0.104 A 
HETATM    2  C3  UNL     1      25.723   1.508  52.375  1.00  0.00     0.069 A 
HETATM    3  C4  UNL     1      24.526   0.908  52.708  1.00  0.00     0.043 A 
HETATM    4  C5  UNL     1      24.473  -0.098  53.649  1.00  0.00    -0.024 A 
HETATM    5  C6  UNL     1      25.670  -0.474  54.238  1.00  0.00     0.050 A 
HETATM    6  C7  UNL     1      26.897   0.110  53.926  1.00  0.00     0.116 A 
HETATM    7  C8  UNL     1      23.265  -0.832  54.107  1.00  0.00     0.089 A 
HETATM    8  C9  UNL     1      22.096  -0.312  53.386  1.00  0.00     0.060 A 
HETATM    9  C10 UNL     1      22.037   0.682  52.435  1.00  0.00     0.141 A 
HETATM   10  N1  UNL     1      20.875   1.046  51.863  1.00  0.00    -0.225 NA
HETATM   11  C11 UNL     1      19.721   0.423  52.227  1.00  0.00     0.214 A 
HETATM   12  N2  UNL     1      19.724  -0.566  53.163  1.00  0.00    -0.312 N 
HETATM   13  C12 UNL     1      18.467  -1.193  53.510  1.00  0.00     0.160 C 
HETATM   14  C13 UNL     1      20.903  -0.934  53.741  1.00  0.00     0.258 A 
HETATM   15  O3  UNL     1      20.793  -1.848  54.584  1.00  0.00    -0.267 OA
HETATM   16  N3  UNL     1      23.283   1.273  52.120  1.00  0.00    -0.340 N 
HETATM   17  H12 UNL     1      23.316   2.037  51.404  1.00  0.00     0.167 HD
ENDROOT
BRANCH   1  18
HETATM   18  O1  UNL     1      28.132   1.670  52.692  1.00  0.00    -0.353 OA
HETATM   19  C1  UNL     1      28.697   2.600  53.573  1.00  0.00     0.210 C 
ENDBRANCH   1  18
BRANCH   6  20
HETATM   20  O2  UNL     1      28.060  -0.324  54.564  1.00  0.00    -0.276 OA
HETATM   21  I1  UNL     1      29.559  -1.294  53.557  1.00  0.00     0.116 I 
ENDBRANCH   6  20
TORSDOF 2
ENDMDL
MODEL 4
REMARK VINA RESULT:      -7.4      2.163      2.987
REMARK  2 active torsions:
REMARK  status: ('A' for Active; 'I' for Inactive)
REMARK    1  A    between atoms: O1_2  and  C2_3 
REMARK    2  A    between atoms: C7_8  and  O2_9 
ROOT
HETATM    1  C2  UNL     1      21.117   0.493  51.451  1.00  0.00     0.104 A 
HETATM    2  C3  UNL     1      21.896  -0.032  52.461  1.00  0.00     0.069 A 
HETATM    3  C4  UNL     1      23.215   0.345  52.619  1.00  0.00     0.043 A 
HETATM    4  C5  UNL     1      23.799   1.261  51.770  1.00  0.00    -0.024 A 
HETATM    5  C6  UNL     1      23.004   1.780  50.760  1.00  0.00     0.050 A 
HETATM    6  C7  UNL     1      21.669   1.422  50.571  1.00  0.00     0.116 A 
HETATM    7  C8  UNL     1      25.197   1.760  51.817  1.00  0.00     0.089 A 
HETATM    8  C9  UNL     1      25.892   1.112  52.937  1.00  0.00     0.060 A 
HETATM    9  C10 UNL     1      25.407   0.191  53.839  1.00  0.00     0.141 A 
HETATM   10  N1  UNL     1      26.180  -0.312  54.818  1.00  0.00    -0.225 NA
HETATM   11  C11 UNL     1      27.474   0.092  54.931  1.00  0.00     0.214 A 
HETATM   12  N2  UNL     1      28.002   1.001  54.066  1.00  0.00    -0.312 N 
HETATM   13  C12 UNL     1      29.385   1.394  54.234  1.00  0.00     0.160 C 
HETATM   14  C13 UNL     1      27.218   1.510  53.072  1.00  0.00     0.258 A 
HETATM   15  O3  UNL     1      27.800   2.333  52.336  1.00  0.00    -0.267 OA
HETATM   16  N3  UNL     1      24.054  -0.170  53.645  1.00  0.00    -0.340 N 
HETATM   17  H12 UNL     1      23.617  -0.867  54.295  1.00  0.00     0.167 HD
ENDROOT
BRANCH   1  18
HETATM   18  O1  UNL     1      19.804   0.169  51.231  1.00  0.00    -0.353 OA
HETATM   19  C1  UNL     1      18.982  -0.175  52.309  1.00  0.00     0.210 C 
ENDBRANCH   1  18
BRANCH   6  20
HETATM   20  O2  UNL     1      20.934   1.990  49.529  1.00  0.00    -0.276 OA
HETATM   21  I1  UNL     1      21.828   2.721  47.836  1.00  0.00     0.116 I 
ENDBRANCH   6  20
TORSDOF 2
ENDMDL
MODEL 5
REMARK VINA RESULT:      -7.2      3.864      6.288
REMARK  2 active torsions:
REMARK  status: ('A' for Active; 'I' for Inactive)
REMARK    1  A    between atoms: O1_2  and  C2_3 
REMARK    2  A    between atoms: C7_8  and  O2_9 
ROOT
HETATM    1  C2  UNL     1      25.415  -0.269  53.787  1.00  0.00     0.104 A 
HETATM    2  C3  UNL     1      24.527   0.732  53.450  1.00  0.00     0.069 A 
HETATM    3  C4  UNL     1      24.845   1.681  52.499  1.00  0.00     0.043 A 
HETATM    4  C5  UNL     1      26.062   1.660  51.852  1.00  0.00    -0.024 A 
HETATM    5  C6  UNL     1      26.943   0.649  52.201  1.00  0.00     0.050 A 
HETATM    6  C7  UNL     1      26.657  -0.324  53.157  1.00  0.00     0.116 A 
HETATM    7  C8  UNL     1      26.540   2.608  50.812  1.00  0.00     0.089 A 
HETATM    8  C9  UNL     1      25.490   3.606  50.566  1.00  0.00     0.060 A 
HETATM    9  C10 UNL     1      24.248   3.718  51.151  1.00  0.00     0.141 A 
HETATM   10  N1  UNL     1      23.394   4.699  50.811  1.00  0.00    -0.225 NA
HETATM   11  C11 UNL     1      23.754   5.610  49.867  1.00  0.00     0.214 A 
HETATM   12  N2  UNL     1      24.969   5.544  49.258  1.00  0.00    -0.312 N 
HETATM   13  C12 UNL     1      25.299   6.540  48.261  1.00  0.00     0.160 C 
HETATM   14  C13 UNL     1      25.836   4.549  49.603  1.00  0.00     0.258 A 
HETATM   15  O3  UNL     1      26.920   4.580  48.986  1.00  0.00    -0.267 OA
HETATM   16  N3  UNL     1      23.960   2.729  52.120  1.00  0.00    -0.340 N 
HETATM   17  H12 UNL     1      23.033   2.751  52.607  1.00  0.00     0.167 HD
ENDROOT
BRANCH   1  18
HETATM   18  O1  UNL     1      25.174  -1.242  54.720  1.00  0.00    -0.353 OA
HETATM   19  C1  UNL     1      23.951  -1.269  55.399  1.00  0.00     0.210 C 
ENDBRANCH   1  18
BRANCH   6  20
HETATM   20  O2  UNL     1      27.599  -1.311  53.454  1.00  0.00    -0.276 OA
HETATM   21  I1  UNL     1      29.602  -0.900  53.593  1.00  0.00     0.116 I 
ENDBRANCH   6  20
TORSDOF 2
ENDMDL
MODEL 6
REMARK VINA RESULT:      -7.1      3.190      6.219
REMARK  2 active torsions:
REMARK  status: ('A' for Active; 'I' for Inactive)
REMARK    1  A    between atoms: O1_2  and  C2_3 
REMARK    2  A    between atoms: C7_8  and  O2_9 
ROOT
HETATM    1  C2  UNL     1      26.445   0.414  53.302  1.00  0.00     0.104 A 
HETATM    2  C3  UNL     1      26.993   1.433  52.549  1.00  0.00     0.069 A 
HETATM    3  C4  UNL     1      26.206   2.234  51.747  1.00  0.00     0.043 A 
HETATM    4  C5  UNL     1      24.843   2.045  51.672  1.00  0.00    -0.024 A 
HETATM    5  C6  UNL     1      24.307   1.019  52.434  1.00  0.00     0.050 A 
HETATM    6  C7  UNL     1      25.071   0.189  53.254  1.00  0.00     0.116 A 
HETATM    7  C8  UNL     1      23.874   2.825  50.860  1.00  0.00     0.089 A 
HETATM    8  C9  UNL     1      24.606   3.863  50.121  1.00  0.00     0.060 A 
HETATM    9  C10 UNL     1      25.955   4.137  50.123  1.00  0.00     0.141 A 
HETATM   10  N1  UNL     1      26.475   5.133  49.384  1.00  0.00    -0.225 NA
HETATM   11  C11 UNL     1      25.655   5.896  48.610  1.00  0.00     0.214 A 
HETATM   12  N2  UNL     1      24.314   5.667  48.572  1.00  0.00    -0.312 N 
HETATM   13  C12 UNL     1      23.492   6.510  47.732  1.00  0.00     0.160 C 
HETATM   14  C13 UNL     1      23.788   4.656  49.322  1.00  0.00     0.258 A 
HETATM   15  O3  UNL     1      22.551   4.532  49.214  1.00  0.00    -0.267 OA
HETATM   16  N3  UNL     1      26.729   3.294  50.956  1.00  0.00    -0.340 N 
HETATM   17  H12 UNL     1      27.764   3.445  51.008  1.00  0.00     0.167 HD
ENDROOT
BRANCH   1  18
HETATM   18  O1  UNL     1      27.160  -0.422  54.118  1.00  0.00    -0.353 OA
HETATM   19  C1  UNL     1      28.351   0.024  54.701  1.00  0.00     0.210 C 
ENDBRANCH   1  18
BRANCH   6  20
HETATM   20  O2  UNL     1      24.456  -0.825  53.991  1.00  0.00    -0.276 OA
HETATM   21  I1  UNL     1      22.420  -0.943  54.194  1.00  0.00     0.116 I 
ENDBRANCH   6  20
TORSDOF 2
ENDMDL
MODEL 7
REMARK VINA RESULT:      -7.0      3.316      4.144
REMARK  2 active torsions:
REMARK  status: ('A' for Active; 'I' for Inactive)
REMARK    1  A    between atoms: O1_2  and  C2_3 
REMARK    2  A    between atoms: C7_8  and  O2_9 
ROOT
HETATM    1  C2  UNL     1      19.190   0.073  52.055  1.00  0.00     0.104 A 
HETATM    2  C3  UNL     1      20.372   0.573  51.547  1.00  0.00     0.069 A 
HETATM    3  C4  UNL     1      21.574   0.369  52.195  1.00  0.00     0.043 A 
HETATM    4  C5  UNL     1      21.634  -0.344  53.373  1.00  0.00    -0.024 A 
HETATM    5  C6  UNL     1      20.440  -0.840  53.871  1.00  0.00     0.050 A 
HETATM    6  C7  UNL     1      19.209  -0.653  53.244  1.00  0.00     0.116 A 
HETATM    7  C8  UNL     1      22.847  -0.643  54.177  1.00  0.00     0.089 A 
HETATM    8  C9  UNL     1      24.013  -0.048  53.511  1.00  0.00     0.060 A 
HETATM    9  C10 UNL     1      24.064   0.677  52.341  1.00  0.00     0.141 A 
HETATM   10  N1  UNL     1      25.224   1.159  51.859  1.00  0.00    -0.225 NA
HETATM   11  C11 UNL     1      26.383   0.929  52.535  1.00  0.00     0.214 A 
HETATM   12  N2  UNL     1      26.387   0.218  53.695  1.00  0.00    -0.312 N 
HETATM   13  C12 UNL     1      27.649   0.005  54.372  1.00  0.00     0.160 C 
HETATM   14  C13 UNL     1      25.210  -0.269  54.184  1.00  0.00     0.258 A 
HETATM   15  O3  UNL     1      25.327  -0.905  55.252  1.00  0.00    -0.267 OA
HETATM   16  N3  UNL     1      22.814   0.866  51.707  1.00  0.00    -0.340 N 
HETATM   17  H12 UNL     1      22.776   1.408  50.812  1.00  0.00     0.167 HD
ENDROOT
BRANCH   1  18
HETATM   18  O1  UNL     1      17.962   0.234  51.472  1.00  0.00    -0.353 OA
HETATM   19  C1  UNL     1      17.869   0.749  50.174  1.00  0.00     0.210 C 
ENDBRANCH   1  18
BRANCH   6  20
HETATM   20  O2  UNL     1      18.048  -1.185  53.810  1.00  0.00    -0.276 OA
HETATM   21  I1  UNL     1      17.432  -3.102  53.435  1.00  0.00     0.116 I 
ENDBRANCH   6  20
TORSDOF 2
ENDMDL
MODEL 8
REMARK VINA RESULT:      -6.7      3.389      6.773
REMARK  2 active torsions:
REMARK  status: ('A' for Active; 'I' for Inactive)
REMARK    1  A    between atoms: O1_2  and  C2_3 
REMARK    2  A    between atoms: C7_8  and  O2_9 
ROOT
HETATM    1  C2  UNL     1      26.104   1.636  53.857  1.00  0.00     0.104 A 
HETATM    2  C3  UNL     1      25.216   2.620  53.472  1.00  0.00     0.069 A 
HETATM    3  C4  UNL     1      23.954   2.305  53.011  1.00  0.00     0.043 A 
HETATM    4  C5  UNL     1      23.536   0.994  52.921  1.00  0.00    -0.024 A 
HETATM    5  C6  UNL     1      24.438   0.017  53.312  1.00  0.00     0.050 A 
HETATM    6  C7  UNL     1      25.721   0.299  53.781  1.00  0.00     0.116 A 
HETATM    7  C8  UNL     1      22.215   0.506  52.449  1.00  0.00     0.089 A 
HETATM    8  C9  UNL     1      21.390   1.664  52.077  1.00  0.00     0.060 A 
HETATM    9  C10 UNL     1      21.706   3.003  52.128  1.00  0.00     0.141 A 
HETATM   10  N1  UNL     1      20.829   3.950  51.748  1.00  0.00    -0.225 NA
HETATM   11  C11 UNL     1      19.596   3.588  51.302  1.00  0.00     0.214 A 
HETATM   12  N2  UNL     1      19.233   2.278  51.233  1.00  0.00    -0.312 N 
HETATM   13  C12 UNL     1      17.909   1.951  50.750  1.00  0.00     0.160 C 
HETATM   14  C13 UNL     1      20.123   1.318  51.617  1.00  0.00     0.258 A 
HETATM   15  O3  UNL     1      19.690   0.152  51.514  1.00  0.00    -0.267 OA
HETATM   16  N3  UNL     1      23.007   3.286  52.604  1.00  0.00    -0.340 N 
HETATM   17  H12 UNL     1      23.317   4.285  52.670  1.00  0.00     0.167 HD
ENDROOT
BRANCH   1  18
HETATM   18  O1  UNL     1      27.371   1.869  54.322  1.00  0.00    -0.353 OA
HETATM   19  C1  UNL     1      28.363   2.322  53.445  1.00  0.00     0.210 C 
ENDBRANCH   1  18
BRANCH   6  20
HETATM   20  O2  UNL     1      26.572  -0.743  54.155  1.00  0.00    -0.276 OA
HETATM   21  I1  UNL     1      27.508  -1.935  52.776  1.00  0.00     0.116 I 
ENDBRANCH   6  20
TORSDOF 2
ENDMDL
MODEL 9
REMARK VINA RESULT:      -6.7      2.799      6.377
REMARK  2 active torsions:
REMARK  status: ('A' for Active; 'I' for Inactive)
REMARK    1  A    between atoms: O1_2  and  C2_3 
REMARK    2  A    between atoms: C7_8  and  O2_9 
ROOT
HETATM    1  C2  UNL     1      25.335   0.256  52.854  1.00  0.00     0.104 A 
HETATM    2  C3  UNL     1      25.851   1.336  52.167  1.00  0.00     0.069 A 
HETATM    3  C4  UNL     1      25.071   2.435  51.868  1.00  0.00     0.043 A 
HETATM    4  C5  UNL     1      23.747   2.491  52.248  1.00  0.00    -0.024 A 
HETATM    5  C6  UNL     1      23.242   1.399  52.937  1.00  0.00     0.050 A 
HETATM    6  C7  UNL     1      24.001   0.273  53.255  1.00  0.00     0.116 A 
HETATM    7  C8  UNL     1      22.790   3.600  52.000  1.00  0.00     0.089 A 
HETATM    8  C9  UNL     1      23.485   4.666  51.264  1.00  0.00     0.060 A 
HETATM    9  C10 UNL     1      24.794   4.712  50.839  1.00  0.00     0.141 A 
HETATM   10  N1  UNL     1      25.282   5.772  50.170  1.00  0.00    -0.225 NA
HETATM   11  C11 UNL     1      24.471   6.831  49.901  1.00  0.00     0.214 A 
HETATM   12  N2  UNL     1      23.170   6.836  50.299  1.00  0.00    -0.312 N 
HETATM   13  C12 UNL     1      22.355   7.990  49.986  1.00  0.00     0.160 C 
HETATM   14  C13 UNL     1      22.675   5.760  50.977  1.00  0.00     0.258 A 
HETATM   15  O3  UNL     1      21.473   5.867  51.295  1.00  0.00    -0.267 OA
HETATM   16  N3  UNL     1      25.561   3.569  51.163  1.00  0.00    -0.340 N 
HETATM   17  H12 UNL     1      26.567   3.534  50.871  1.00  0.00     0.167 HD
ENDROOT
BRANCH   1  18
HETATM   18  O1  UNL     1      26.045  -0.867  53.185  1.00  0.00    -0.353 OA
HETATM   19  C1  UNL     1      27.370  -1.006  52.757  1.00  0.00     0.210 C 
ENDBRANCH   1  18
BRANCH   6  20
HETATM   20  O2  UNL     1      23.419  -0.787  53.952  1.00  0.00    -0.276 OA
HETATM   21  I1  UNL     1      21.418  -0.837  54.390  1.00  0.00     0.116 I 
ENDBRANCH   6  20
TORSDOF 2
ENDMDL
