MODEL 1
REMARK VINA RESULT:      -7.5      0.000      0.000
REMARK  7 active torsions:
REMARK  status: ('A' for Active; 'I' for Inactive)
REMARK    1  A    between atoms: O1_2  and  C2_3 
REMARK    2  A    between atoms: C2_3  and  C3_4 
REMARK    3  A    between atoms: C3_4  and  O2_21 
REMARK    4  A    between atoms: C4_5  and  C5_6 
REMARK    5  A    between atoms: C8_11  and  N3_12 
REMARK    6  A    between atoms: N3_12  and  C9_13 
REMARK    7  A    between atoms: C9_13  and  C10_14 
ROOT
HETATM    1  C5  UNL     1      27.397   1.715  53.071  1.00  0.00     0.013 A 
HETATM    2  C6  UNL     1      28.638   2.166  53.531  1.00  0.00     0.129 A 
HETATM    3  N1  UNL     1      29.252   1.506  54.548  1.00  0.00    -0.253 NA
HETATM    4  C7  UNL     1      28.613   0.420  55.076  1.00  0.00     0.234 A 
HETATM    5  N2  UNL     1      27.422  -0.033  54.652  1.00  0.00    -0.224 NA
HETATM    6  C8  UNL     1      26.784   0.614  53.631  1.00  0.00     0.133 A 
ENDROOT
BRANCH   6   7
HETATM    7  N3  UNL     1      25.577  -0.098  53.437  1.00  0.00    -0.370 N 
HETATM    8  H9  UNL     1      25.447  -0.074  52.424  1.00  0.00     0.161 HD
BRANCH   7   9
HETATM    9  C9  UNL     1      24.632  -0.758  54.301  1.00  0.00     0.160 C 
BRANCH   9  10
HETATM   10  C10 UNL     1      23.217  -0.580  53.916  1.00  0.00    -0.040 A 
HETATM   11  C11 UNL     1      22.085  -0.828  54.662  1.00  0.00     0.009 A 
HETATM   12  C12 UNL     1      20.801  -0.620  54.215  1.00  0.00     0.001 A 
HETATM   13  C13 UNL     1      20.603  -0.135  52.951  1.00  0.00     0.007 A 
HETATM   14  C14 UNL     1      21.698   0.132  52.157  1.00  0.00    -0.061 A 
HETATM   15  C15 UNL     1      21.373   0.654  50.805  1.00  0.00     0.048 C 
HETATM   16  C16 UNL     1      22.971  -0.086  52.630  1.00  0.00     0.015 A 
ENDBRANCH   9  10
ENDBRANCH   7   9
ENDBRANCH   6   7
BRANCH   1  17
HETATM   17  C4  UNL     1      26.512   2.206  52.059  1.00  0.00     0.146 C 
HETATM   18  C3  UNL     1      26.233   2.862  50.963  1.00  0.00     0.072 C 
BRANCH  18  19
HETATM   19  C2  UNL     1      26.173   3.657  49.716  1.00  0.00     0.200 C 
BRANCH  19  20
HETATM   20  O1  UNL     1      27.368   3.925  49.115  1.00  0.00    -0.393 OA
HETATM   21  C1  UNL     1      27.532   5.190  48.596  1.00  0.00     0.201 C 
ENDBRANCH  19  20
ENDBRANCH  18  19
BRANCH  18  22
HETATM   22  O2  UNL     1      24.886   2.464  51.186  1.00  0.00    -0.387 OA
HETATM   23  C17 UNL     1      24.019   3.396  51.795  1.00  0.00     0.202 C 
ENDBRANCH  18  22
ENDBRANCH   1  17
TORSDOF 7
ENDMDL
MODEL 2
REMARK VINA RESULT:      -7.3      1.850      6.354
REMARK  7 active torsions:
REMARK  status: ('A' for Active; 'I' for Inactive)
REMARK    1  A    between atoms: O1_2  and  C2_3 
REMARK    2  A    between atoms: C2_3  and  C3_4 
REMARK    3  A    between atoms: C3_4  and  O2_21 
REMARK    4  A    between atoms: C4_5  and  C5_6 
REMARK    5  A    between atoms: C8_11  and  N3_12 
REMARK    6  A    between atoms: N3_12  and  C9_13 
REMARK    7  A    between atoms: C9_13  and  C10_14 
ROOT
HETATM    1  C5  UNL     1      26.265   1.039  53.278  1.00  0.00     0.013 A 
HETATM    2  C6  UNL     1      26.881   0.243  54.249  1.00  0.00     0.129 A 
HETATM    3  N1  UNL     1      28.200   0.425  54.521  1.00  0.00    -0.253 NA
HETATM    4  C7  UNL     1      28.865   1.390  53.818  1.00  0.00     0.234 A 
HETATM    5  N2  UNL     1      28.297   2.166  52.882  1.00  0.00    -0.224 NA
HETATM    6  C8  UNL     1      26.972   2.003  52.590  1.00  0.00     0.133 A 
ENDROOT
BRANCH   6   7
HETATM    7  N3  UNL     1      26.695   2.952  51.577  1.00  0.00    -0.370 N 
HETATM    8  H9  UNL     1      26.595   3.828  52.094  1.00  0.00     0.161 HD
BRANCH   7   9
HETATM    9  C9  UNL     1      26.550   2.902  50.146  1.00  0.00     0.160 C 
BRANCH   9  10
HETATM   10  C10 UNL     1      26.441   4.222  49.491  1.00  0.00    -0.040 A 
HETATM   11  C11 UNL     1      25.334   5.034  49.369  1.00  0.00     0.009 A 
HETATM   12  C12 UNL     1      25.336   6.259  48.744  1.00  0.00     0.001 A 
HETATM   13  C13 UNL     1      26.499   6.731  48.200  1.00  0.00     0.007 A 
HETATM   14  C14 UNL     1      27.640   5.962  48.290  1.00  0.00    -0.061 A 
HETATM   15  C15 UNL     1      28.846   6.566  47.667  1.00  0.00     0.048 C 
HETATM   16  C16 UNL     1      27.609   4.740  48.921  1.00  0.00     0.015 A 
ENDBRANCH   9  10
ENDBRANCH   7   9
ENDBRANCH   6   7
BRANCH   1  17
HETATM   17  C4  UNL     1      24.930   1.064  52.762  1.00  0.00     0.146 C 
HETATM   18  C3  UNL     1      23.690   0.656  52.700  1.00  0.00     0.072 C 
BRANCH  18  19
HETATM   19  C2  UNL     1      22.356   0.026  52.816  1.00  0.00     0.200 C 
BRANCH  19  20
HETATM   20  O1  UNL     1      22.336  -1.271  53.241  1.00  0.00    -0.393 OA
HETATM   21  C1  UNL     1      21.705  -1.522  54.439  1.00  0.00     0.201 C 
ENDBRANCH  19  20
ENDBRANCH  18  19
BRANCH  18  22
HETATM   22  O2  UNL     1      23.520   1.644  51.692  1.00  0.00    -0.387 OA
HETATM   23  C17 UNL     1      23.161   2.946  52.103  1.00  0.00     0.202 C 
ENDBRANCH  18  22
ENDBRANCH   1  17
TORSDOF 7
ENDMDL
MODEL 3
REMARK VINA RESULT:      -7.1      2.896      7.091
REMARK  7 active torsions:
REMARK  status: ('A' for Active; 'I' for Inactive)
REMARK    1  A    between atoms: O1_2  and  C2_3 
REMARK    2  A    between atoms: C2_3  and  C3_4 
REMARK    3  A    between atoms: C3_4  and  O2_21 
REMARK    4  A    between atoms: C4_5  and  C5_6 
REMARK    5  A    between atoms: C8_11  and  N3_12 
REMARK    6  A    between atoms: N3_12  and  C9_13 
REMARK    7  A    between atoms: C9_13  and  C10_14 
ROOT
HETATM    1  C5  UNL     1      24.525   2.062  52.686  1.00  0.00     0.013 A 
HETATM    2  C6  UNL     1      23.223   1.649  52.984  1.00  0.00     0.129 A 
HETATM    3  N1  UNL     1      22.207   1.997  52.152  1.00  0.00    -0.253 NA
HETATM    4  C7  UNL     1      22.517   2.745  51.050  1.00  0.00     0.234 A 
HETATM    5  N2  UNL     1      23.758   3.153  50.742  1.00  0.00    -0.224 NA
HETATM    6  C8  UNL     1      24.797   2.817  51.564  1.00  0.00     0.133 A 
ENDROOT
BRANCH   6   7
HETATM    7  N3  UNL     1      25.943   3.396  50.969  1.00  0.00    -0.370 N 
HETATM    8  H9  UNL     1      26.316   3.995  51.708  1.00  0.00     0.161 HD
BRANCH   7   9
HETATM    9  C9  UNL     1      26.582   3.302  49.682  1.00  0.00     0.160 C 
BRANCH   9  10
HETATM   10  C10 UNL     1      26.921   4.600  49.065  1.00  0.00    -0.040 A 
HETATM   11  C11 UNL     1      28.140   5.038  48.595  1.00  0.00     0.009 A 
HETATM   12  C12 UNL     1      28.354   6.271  48.024  1.00  0.00     0.001 A 
HETATM   13  C13 UNL     1      27.307   7.142  47.900  1.00  0.00     0.007 A 
HETATM   14  C14 UNL     1      26.062   6.760  48.353  1.00  0.00    -0.061 A 
HETATM   15  C15 UNL     1      24.995   7.778  48.171  1.00  0.00     0.048 C 
HETATM   16  C16 UNL     1      25.877   5.520  48.921  1.00  0.00     0.015 A 
ENDBRANCH   9  10
ENDBRANCH   7   9
ENDBRANCH   6   7
BRANCH   1  17
HETATM   17  C4  UNL     1      25.770   1.881  53.369  1.00  0.00     0.146 C 
HETATM   18  C3  UNL     1      26.684   1.166  53.971  1.00  0.00     0.072 C 
BRANCH  18  19
HETATM   19  C2  UNL     1      27.559   0.154  54.604  1.00  0.00     0.200 C 
BRANCH  19  20
HETATM   20  O1  UNL     1      27.814  -0.967  53.869  1.00  0.00    -0.393 OA
HETATM   21  C1  UNL     1      26.898  -1.291  52.893  1.00  0.00     0.201 C 
ENDBRANCH  19  20
ENDBRANCH  18  19
BRANCH  18  22
HETATM   22  O2  UNL     1      27.396   2.386  54.126  1.00  0.00    -0.387 OA
HETATM   23  C17 UNL     1      28.711   2.448  53.620  1.00  0.00     0.202 C 
ENDBRANCH  18  22
ENDBRANCH   1  17
TORSDOF 7
ENDMDL
MODEL 4
REMARK VINA RESULT:      -7.0      2.460      6.372
REMARK  7 active torsions:
REMARK  status: ('A' for Active; 'I' for Inactive)
REMARK    1  A    between atoms: O1_2  and  C2_3 
REMARK    2  A    between atoms: C2_3  and  C3_4 
REMARK    3  A    between atoms: C3_4  and  O2_21 
REMARK    4  A    between atoms: C4_5  and  C5_6 
REMARK    5  A    between atoms: C8_11  and  N3_12 
REMARK    6  A    between atoms: N3_12  and  C9_13 
REMARK    7  A    between atoms: C9_13  and  C10_14 
ROOT
HETATM    1  C5  UNL     1      24.577   0.628  53.392  1.00  0.00     0.013 A 
HETATM    2  C6  UNL     1      23.874  -0.573  53.521  1.00  0.00     0.129 A 
HETATM    3  N1  UNL     1      22.587  -0.642  53.092  1.00  0.00    -0.253 NA
HETATM    4  C7  UNL     1      22.038   0.486  52.549  1.00  0.00     0.234 A 
HETATM    5  N2  UNL     1      22.692   1.650  52.413  1.00  0.00    -0.224 NA
HETATM    6  C8  UNL     1      23.988   1.745  52.837  1.00  0.00     0.133 A 
ENDROOT
BRANCH   6   7
HETATM    7  N3  UNL     1      24.372   3.079  52.561  1.00  0.00    -0.370 N 
HETATM    8  H9  UNL     1      25.029   3.297  53.313  1.00  0.00     0.161 HD
BRANCH   7   9
HETATM    9  C9  UNL     1      24.042   4.046  51.547  1.00  0.00     0.160 C 
BRANCH   9  10
HETATM   10  C10 UNL     1      25.124   4.318  50.579  1.00  0.00    -0.040 A 
HETATM   11  C11 UNL     1      26.089   3.458  50.101  1.00  0.00     0.009 A 
HETATM   12  C12 UNL     1      27.055   3.807  49.187  1.00  0.00     0.001 A 
HETATM   13  C13 UNL     1      27.087   5.086  48.702  1.00  0.00     0.007 A 
HETATM   14  C14 UNL     1      26.147   5.993  49.144  1.00  0.00    -0.061 A 
HETATM   15  C15 UNL     1      26.270   7.352  48.555  1.00  0.00     0.048 C 
HETATM   16  C16 UNL     1      25.192   5.616  50.059  1.00  0.00     0.015 A 
ENDBRANCH   9  10
ENDBRANCH   7   9
ENDBRANCH   6   7
BRANCH   1  17
HETATM   17  C4  UNL     1      25.904   1.010  53.768  1.00  0.00     0.146 C 
HETATM   18  C3  UNL     1      27.091   0.786  54.269  1.00  0.00     0.072 C 
BRANCH  18  19
HETATM   19  C2  UNL     1      28.346   0.290  54.876  1.00  0.00     0.200 C 
BRANCH  19  20
HETATM   20  O1  UNL     1      28.716  -0.980  54.541  1.00  0.00    -0.393 OA
HETATM   21  C1  UNL     1      28.892  -1.242  53.200  1.00  0.00     0.201 C 
ENDBRANCH  19  20
ENDBRANCH  18  19
BRANCH  18  22
HETATM   22  O2  UNL     1      27.366   2.148  53.966  1.00  0.00    -0.387 OA
HETATM   23  C17 UNL     1      28.702   2.497  53.672  1.00  0.00     0.202 C 
ENDBRANCH  18  22
ENDBRANCH   1  17
TORSDOF 7
ENDMDL
MODEL 5
REMARK VINA RESULT:      -6.9      2.558      5.678
REMARK  7 active torsions:
REMARK  status: ('A' for Active; 'I' for Inactive)
REMARK    1  A    between atoms: O1_2  and  C2_3 
REMARK    2  A    between atoms: C2_3  and  C3_4 
REMARK    3  A    between atoms: C3_4  and  O2_21 
REMARK    4  A    between atoms: C4_5  and  C5_6 
REMARK    5  A    between atoms: C8_11  and  N3_12 
REMARK    6  A    between atoms: N3_12  and  C9_13 
REMARK    7  A    between atoms: C9_13  and  C10_14 
ROOT
HETATM    1  C5  UNL     1      24.041  -0.600  54.305  1.00  0.00     0.013 A 
HETATM    2  C6  UNL     1      23.573  -1.437  55.322  1.00  0.00     0.129 A 
HETATM    3  N1  UNL     1      22.252  -1.751  55.373  1.00  0.00    -0.253 NA
HETATM    4  C7  UNL     1      21.438  -1.222  54.411  1.00  0.00     0.234 A 
HETATM    5  N2  UNL     1      21.862  -0.417  53.425  1.00  0.00    -0.224 NA
HETATM    6  C8  UNL     1      23.186  -0.086  53.352  1.00  0.00     0.133 A 
ENDROOT
BRANCH   6   7
HETATM    7  N3  UNL     1      23.296   0.763  52.226  1.00  0.00    -0.370 N 
HETATM    8  H9  UNL     1      24.285   1.020  52.217  1.00  0.00     0.161 HD
BRANCH   7   9
HETATM    9  C9  UNL     1      22.382   1.259  51.230  1.00  0.00     0.160 C 
BRANCH   9  10
HETATM   10  C10 UNL     1      22.914   2.355  50.395  1.00  0.00    -0.040 A 
HETATM   11  C11 UNL     1      22.228   3.224  49.575  1.00  0.00     0.009 A 
HETATM   12  C12 UNL     1      22.818   4.225  48.839  1.00  0.00     0.001 A 
HETATM   13  C13 UNL     1      24.174   4.395  48.906  1.00  0.00     0.007 A 
HETATM   14  C14 UNL     1      24.914   3.555  49.710  1.00  0.00    -0.061 A 
HETATM   15  C15 UNL     1      26.375   3.825  49.711  1.00  0.00     0.048 C 
HETATM   16  C16 UNL     1      24.298   2.561  50.435  1.00  0.00     0.015 A 
ENDBRANCH   9  10
ENDBRANCH   7   9
ENDBRANCH   6   7
BRANCH   1  17
HETATM   17  C4  UNL     1      25.341  -0.079  54.011  1.00  0.00     0.146 C 
HETATM   18  C3  UNL     1      26.609   0.119  54.262  1.00  0.00     0.072 C 
BRANCH  18  19
HETATM   19  C2  UNL     1      27.999   0.206  54.764  1.00  0.00     0.200 C 
BRANCH  19  20
HETATM   20  O1  UNL     1      28.811  -0.852  54.476  1.00  0.00    -0.393 OA
HETATM   21  C1  UNL     1      29.856  -0.614  53.612  1.00  0.00     0.201 C 
ENDBRANCH  19  20
ENDBRANCH  18  19
BRANCH  18  22
HETATM   22  O2  UNL     1      26.640   0.830  53.031  1.00  0.00    -0.387 OA
HETATM   23  C17 UNL     1      26.705   0.076  51.840  1.00  0.00     0.202 C 
ENDBRANCH  18  22
ENDBRANCH   1  17
TORSDOF 7
ENDMDL
MODEL 6
REMARK VINA RESULT:      -6.7      2.610      6.304
REMARK  7 active torsions:
REMARK  status: ('A' for Active; 'I' for Inactive)
REMARK    1  A    between atoms: O1_2  and  C2_3 
REMARK    2  A    between atoms: C2_3  and  C3_4 
REMARK    3  A    between atoms: C3_4  and  O2_21 
REMARK    4  A    between atoms: C4_5  and  C5_6 
REMARK    5  A    between atoms: C8_11  and  N3_12 
REMARK    6  A    between atoms: N3_12  and  C9_13 
REMARK    7  A    between atoms: C9_13  and  C10_14 
ROOT
HETATM    1  C5  UNL     1      21.855  -0.117  52.996  1.00  0.00     0.013 A 
HETATM    2  C6  UNL     1      20.960  -0.932  53.695  1.00  0.00     0.129 A 
HETATM    3  N1  UNL     1      21.386  -1.590  54.805  1.00  0.00    -0.253 NA
HETATM    4  C7  UNL     1      22.687  -1.419  55.184  1.00  0.00     0.234 A 
HETATM    5  N2  UNL     1      23.566  -0.643  54.530  1.00  0.00    -0.224 NA
HETATM    6  C8  UNL     1      23.163   0.030  53.411  1.00  0.00     0.133 A 
ENDROOT
BRANCH   6   7
HETATM    7  N3  UNL     1      24.307   0.735  52.969  1.00  0.00    -0.370 N 
HETATM    8  H9  UNL     1      24.195   1.658  53.394  1.00  0.00     0.161 HD
BRANCH   7   9
HETATM    9  C9  UNL     1      25.441   0.422  52.140  1.00  0.00     0.160 C 
BRANCH   9  10
HETATM   10  C10 UNL     1      26.749   0.791  52.718  1.00  0.00    -0.040 A 
HETATM   11  C11 UNL     1      27.216   2.040  53.064  1.00  0.00     0.009 A 
HETATM   12  C12 UNL     1      28.455   2.281  53.609  1.00  0.00     0.001 A 
HETATM   13  C13 UNL     1      29.303   1.231  53.836  1.00  0.00     0.007 A 
HETATM   14  C14 UNL     1      28.891  -0.044  53.510  1.00  0.00    -0.061 A 
HETATM   15  C15 UNL     1      29.885  -1.110  53.796  1.00  0.00     0.048 C 
HETATM   16  C16 UNL     1      27.645  -0.255  52.965  1.00  0.00     0.015 A 
ENDBRANCH   9  10
ENDBRANCH   7   9
ENDBRANCH   6   7
BRANCH   1  17
HETATM   17  C4  UNL     1      21.714   0.663  51.804  1.00  0.00     0.146 C 
HETATM   18  C3  UNL     1      21.024   1.295  50.891  1.00  0.00     0.072 C 
BRANCH  18  19
HETATM   19  C2  UNL     1      20.033   1.933  49.996  1.00  0.00     0.200 C 
BRANCH  19  20
HETATM   20  O1  UNL     1      18.934   2.471  50.599  1.00  0.00    -0.393 OA
HETATM   21  C1  UNL     1      19.160   3.435  51.557  1.00  0.00     0.201 C 
ENDBRANCH  19  20
ENDBRANCH  18  19
BRANCH  18  22
HETATM   22  O2  UNL     1      22.278   1.608  50.301  1.00  0.00    -0.387 OA
HETATM   23  C17 UNL     1      22.806   2.898  50.527  1.00  0.00     0.202 C 
ENDBRANCH  18  22
ENDBRANCH   1  17
TORSDOF 7
ENDMDL
MODEL 7
REMARK VINA RESULT:      -6.5      2.021      5.434
REMARK  7 active torsions:
REMARK  status: ('A' for Active; 'I' for Inactive)
REMARK    1  A    between atoms: O1_2  and  C2_3 
REMARK    2  A    between atoms: C2_3  and  C3_4 
REMARK    3  A    between atoms: C3_4  and  O2_21 
REMARK    4  A    between atoms: C4_5  and  C5_6 
REMARK    5  A    between atoms: C8_11  and  N3_12 
REMARK    6  A    between atoms: N3_12  and  C9_13 
REMARK    7  A    between atoms: C9_13  and  C10_14 
ROOT
HETATM    1  C5  UNL     1      25.546   0.411  53.607  1.00  0.00     0.013 A 
HETATM    2  C6  UNL     1      26.044  -0.169  54.778  1.00  0.00     0.129 A 
HETATM    3  N1  UNL     1      27.385  -0.191  54.993  1.00  0.00    -0.253 NA
HETATM    4  C7  UNL     1      28.190   0.364  54.038  1.00  0.00     0.234 A 
HETATM    5  N2  UNL     1      27.736   0.927  52.906  1.00  0.00    -0.224 NA
HETATM    6  C8  UNL     1      26.392   0.961  52.666  1.00  0.00     0.133 A 
ENDROOT
BRANCH   6   7
HETATM    7  N3  UNL     1      26.255   1.603  51.412  1.00  0.00    -0.370 N 
HETATM    8  H9  UNL     1      25.781   0.902  50.838  1.00  0.00     0.161 HD
BRANCH   7   9
HETATM    9  C9  UNL     1      26.617   2.891  50.881  1.00  0.00     0.160 C 
BRANCH   9  10
HETATM   10  C10 UNL     1      25.476   3.729  50.462  1.00  0.00    -0.040 A 
HETATM   11  C11 UNL     1      25.308   4.431  49.288  1.00  0.00     0.009 A 
HETATM   12  C12 UNL     1      24.195   5.180  48.985  1.00  0.00     0.001 A 
HETATM   13  C13 UNL     1      23.170   5.252  49.888  1.00  0.00     0.007 A 
HETATM   14  C14 UNL     1      23.280   4.571  51.081  1.00  0.00    -0.061 A 
HETATM   15  C15 UNL     1      22.114   4.715  51.989  1.00  0.00     0.048 C 
HETATM   16  C16 UNL     1      24.405   3.829  51.358  1.00  0.00     0.015 A 
ENDBRANCH   9  10
ENDBRANCH   7   9
ENDBRANCH   6   7
BRANCH   1  17
HETATM   17  C4  UNL     1      24.217   0.557  53.097  1.00  0.00     0.146 C 
HETATM   18  C3  UNL     1      22.915   0.590  53.210  1.00  0.00     0.072 C 
BRANCH  18  19
HETATM   19  C2  UNL     1      21.485   0.581  53.591  1.00  0.00     0.200 C 
BRANCH  19  20
HETATM   20  O1  UNL     1      21.144  -0.234  54.631  1.00  0.00    -0.393 OA
HETATM   21  C1  UNL     1      21.447  -1.570  54.497  1.00  0.00     0.201 C 
ENDBRANCH  19  20
ENDBRANCH  18  19
BRANCH  18  22
HETATM   22  O2  UNL     1      22.899   0.845  51.811  1.00  0.00    -0.387 OA
HETATM   23  C17 UNL     1      21.645   0.887  51.166  1.00  0.00     0.202 C 
ENDBRANCH  18  22
ENDBRANCH   1  17
TORSDOF 7
ENDMDL
MODEL 8
REMARK VINA RESULT:      -6.3      2.767      6.883
REMARK  7 active torsions:
REMARK  status: ('A' for Active; 'I' for Inactive)
REMARK    1  A    between atoms: O1_2  and  C2_3 
REMARK    2  A    between atoms: C2_3  and  C3_4 
REMARK    3  A    between atoms: C3_4  and  O2_21 
REMARK    4  A    between atoms: C4_5  and  C5_6 
REMARK    5  A    between atoms: C8_11  and  N3_12 
REMARK    6  A    between atoms: N3_12  and  C9_13 
REMARK    7  A    between atoms: C9_13  and  C10_14 
ROOT
HETATM    1  C5  UNL     1      23.527   1.287  52.522  1.00  0.00     0.013 A 
HETATM    2  C6  UNL     1      22.230   1.018  52.972  1.00  0.00     0.129 A 
HETATM    3  N1  UNL     1      21.224   1.875  52.656  1.00  0.00    -0.253 NA
HETATM    4  C7  UNL     1      21.538   2.973  51.904  1.00  0.00     0.234 A 
HETATM    5  N2  UNL     1      22.774   3.252  51.461  1.00  0.00    -0.224 NA
HETATM    6  C8  UNL     1      23.803   2.407  51.765  1.00  0.00     0.133 A 
ENDROOT
BRANCH   6   7
HETATM    7  N3  UNL     1      24.947   2.983  51.165  1.00  0.00    -0.370 N 
HETATM    8  H9  UNL     1      25.366   3.525  51.923  1.00  0.00     0.161 HD
BRANCH   7   9
HETATM    9  C9  UNL     1      25.539   2.943  49.853  1.00  0.00     0.160 C 
BRANCH   9  10
HETATM   10  C10 UNL     1      25.908   4.263  49.303  1.00  0.00    -0.040 A 
HETATM   11  C11 UNL     1      25.100   5.356  49.071  1.00  0.00     0.009 A 
HETATM   12  C12 UNL     1      25.543   6.554  48.560  1.00  0.00     0.001 A 
HETATM   13  C13 UNL     1      26.868   6.701  48.253  1.00  0.00     0.007 A 
HETATM   14  C14 UNL     1      27.726   5.642  48.463  1.00  0.00    -0.061 A 
HETATM   15  C15 UNL     1      29.141   5.907  48.098  1.00  0.00     0.048 C 
HETATM   16  C16 UNL     1      27.255   4.455  48.975  1.00  0.00     0.015 A 
ENDBRANCH   9  10
ENDBRANCH   7   9
ENDBRANCH   6   7
BRANCH   1  17
HETATM   17  C4  UNL     1      24.770   0.604  52.712  1.00  0.00     0.146 C 
HETATM   18  C3  UNL     1      26.066   0.551  52.876  1.00  0.00     0.072 C 
BRANCH  18  19
HETATM   19  C2  UNL     1      27.522   0.753  53.047  1.00  0.00     0.200 C 
BRANCH  19  20
HETATM   20  O1  UNL     1      27.906   1.481  54.135  1.00  0.00    -0.393 OA
HETATM   21  C1  UNL     1      29.249   1.481  54.440  1.00  0.00     0.201 C 
ENDBRANCH  19  20
ENDBRANCH  18  19
BRANCH  18  22
HETATM   22  O2  UNL     1      25.901  -0.860  52.933  1.00  0.00    -0.387 OA
HETATM   23  C17 UNL     1      27.037  -1.663  52.696  1.00  0.00     0.202 C 
ENDBRANCH  18  22
ENDBRANCH   1  17
TORSDOF 7
ENDMDL
MODEL 9
REMARK VINA RESULT:      -6.3      3.331      5.209
REMARK  7 active torsions:
REMARK  status: ('A' for Active; 'I' for Inactive)
REMARK    1  A    between atoms: O1_2  and  C2_3 
REMARK    2  A    between atoms: C2_3  and  C3_4 
REMARK    3  A    between atoms: C3_4  and  O2_21 
REMARK    4  A    between atoms: C4_5  and  C5_6 
REMARK    5  A    between atoms: C8_11  and  N3_12 
REMARK    6  A    between atoms: N3_12  and  C9_13 
REMARK    7  A    between atoms: C9_13  and  C10_14 
ROOT
HETATM    1  C5  UNL     1      25.415   5.206  49.159  1.00  0.00     0.013 A 
HETATM    2  C6  UNL     1      25.828   6.384  48.530  1.00  0.00     0.129 A 
HETATM    3  N1  UNL     1      27.131   6.529  48.174  1.00  0.00    -0.253 NA
HETATM    4  C7  UNL     1      27.983   5.499  48.456  1.00  0.00     0.234 A 
HETATM    5  N2  UNL     1      27.612   4.358  49.058  1.00  0.00    -0.224 NA
HETATM    6  C8  UNL     1      26.307   4.188  49.426  1.00  0.00     0.133 A 
ENDROOT
BRANCH   6   7
HETATM    7  N3  UNL     1      26.254   2.909  50.028  1.00  0.00    -0.370 N 
HETATM    8  H9  UNL     1      25.691   2.362  49.373  1.00  0.00     0.161 HD
BRANCH   7   9
HETATM    9  C9  UNL     1      26.782   2.327  51.235  1.00  0.00     0.160 C 
BRANCH   9  10
HETATM   10  C10 UNL     1      25.857   1.411  51.933  1.00  0.00    -0.040 A 
HETATM   11  C11 UNL     1      26.135   0.209  52.546  1.00  0.00     0.009 A 
HETATM   12  C12 UNL     1      25.199  -0.572  53.184  1.00  0.00     0.001 A 
HETATM   13  C13 UNL     1      23.898  -0.154  53.229  1.00  0.00     0.007 A 
HETATM   14  C14 UNL     1      23.558   1.042  52.632  1.00  0.00    -0.061 A 
HETATM   15  C15 UNL     1      22.121   1.403  52.738  1.00  0.00     0.048 C 
HETATM   16  C16 UNL     1      24.515   1.803  52.001  1.00  0.00     0.015 A 
ENDBRANCH   9  10
ENDBRANCH   7   9
ENDBRANCH   6   7
BRANCH   1  17
HETATM   17  C4  UNL     1      24.146   4.782  49.666  1.00  0.00     0.146 C 
HETATM   18  C3  UNL     1      23.088   4.898  50.426  1.00  0.00     0.072 C 
BRANCH  18  19
HETATM   19  C2  UNL     1      22.006   5.249  51.372  1.00  0.00     0.200 C 
BRANCH  19  20
HETATM   20  O1  UNL     1      21.292   6.374  51.080  1.00  0.00    -0.393 OA
HETATM   21  C1  UNL     1      22.007   7.467  50.645  1.00  0.00     0.201 C 
ENDBRANCH  19  20
ENDBRANCH  18  19
BRANCH  18  22
HETATM   22  O2  UNL     1      22.648   3.686  49.828  1.00  0.00    -0.387 OA
HETATM   23  C17 UNL     1      21.713   3.775  48.775  1.00  0.00     0.202 C 
ENDBRANCH  18  22
ENDBRANCH   1  17
TORSDOF 7
ENDMDL
