MODEL 1
REMARK VINA RESULT:      -8.4      0.000      0.000
REMARK  0 active torsions:
REMARK  status: ('A' for Active; 'I' for Inactive)
REMARK       I    between atoms: C2_2  and  N1_4 
ROOT
HETATM    1  C1  UNL     1      28.775   1.035  53.868  1.00  0.00     0.119 C 
HETATM    2  C2  UNL     1      27.633   0.209  54.380  1.00  0.00     0.239 C 
HETATM    3  O1  UNL     1      27.512   0.126  55.643  1.00  0.00    -0.272 OA
HETATM    4  N1  UNL     1      26.779  -0.418  53.384  1.00  0.00    -0.223 N 
HETATM    5  C3  UNL     1      27.052  -0.225  51.992  1.00  0.00     0.186 C 
HETATM    6  C4  UNL     1      26.377   0.962  51.458  1.00  0.00    -0.005 C 
HETATM    7  C5  UNL     1      26.445   2.149  50.881  1.00  0.00    -0.002 C 
HETATM    8  C6  UNL     1      26.631   3.429  50.252  1.00  0.00     0.001 C 
HETATM    9  C7  UNL     1      25.571   4.150  49.963  1.00  0.00     0.024 C 
HETATM   10  C8  UNL     1      24.167   4.505  49.873  1.00  0.00     0.062 C 
HETATM   11  C9  UNL     1      23.669   5.751  49.298  1.00  0.00     0.101 C 
HETATM   12  N2  UNL     1      23.286   6.766  48.826  1.00  0.00    -0.191 NA
HETATM   13  C10 UNL     1      23.147   3.772  50.286  1.00  0.00     0.142 C 
HETATM   14  N3  UNL     1      23.578   2.572  50.842  1.00  0.00    -0.235 NA
HETATM   15  C11 UNL     1      22.718   1.646  51.078  1.00  0.00     0.175 C 
HETATM   16 BR1  UNL     1      20.952   2.223  50.555  1.00  0.00    -0.009 Br
HETATM   17  N4  UNL     1      22.217   0.387  51.509  1.00  0.00    -0.345 N 
HETATM   18  C12 UNL     1      21.774   0.356  52.890  1.00  0.00     0.086 C 
HETATM   19  C13 UNL     1      22.245   0.038  54.114  1.00  0.00    -0.002 C 
HETATM   20  C14 UNL     1      23.605  -0.361  53.678  1.00  0.00     0.117 C 
HETATM   21  C15 UNL     1      24.605  -0.800  54.469  1.00  0.00     0.138 C 
HETATM   22  O2  UNL     1      25.829  -1.153  54.013  1.00  0.00    -0.274 OA
HETATM   23  H11 UNL     1      22.200  -0.412  50.832  1.00  0.00     0.167 HD
ENDROOT
TORSDOF 0
ENDMDL
MODEL 2
REMARK VINA RESULT:      -8.3      3.570      6.384
REMARK  0 active torsions:
REMARK  status: ('A' for Active; 'I' for Inactive)
REMARK       I    between atoms: C2_2  and  N1_4 
ROOT
HETATM    1  C1  UNL     1      22.645   5.241  49.459  1.00  0.00     0.119 C 
HETATM    2  C2  UNL     1      21.293   4.713  49.835  1.00  0.00     0.239 C 
HETATM    3  O1  UNL     1      20.463   4.549  48.886  1.00  0.00    -0.272 OA
HETATM    4  N1  UNL     1      21.065   4.441  51.245  1.00  0.00    -0.223 N 
HETATM    5  C3  UNL     1      22.111   4.680  52.193  1.00  0.00     0.186 C 
HETATM    6  C4  UNL     1      22.975   3.509  52.366  1.00  0.00    -0.005 C 
HETATM    7  C5  UNL     1      24.172   2.955  52.293  1.00  0.00    -0.002 C 
HETATM    8  C6  UNL     1      25.515   2.452  52.177  1.00  0.00     0.001 C 
HETATM    9  C7  UNL     1      25.750   1.200  52.499  1.00  0.00     0.024 C 
HETATM   10  C8  UNL     1      25.469  -0.150  52.951  1.00  0.00     0.062 C 
HETATM   11  C9  UNL     1      26.472  -1.204  53.064  1.00  0.00     0.101 C 
HETATM   12  N2  UNL     1      27.301  -2.045  53.151  1.00  0.00    -0.191 NA
HETATM   13  C10 UNL     1      24.290  -0.622  53.320  1.00  0.00     0.142 C 
HETATM   14  N3  UNL     1      23.303   0.353  53.227  1.00  0.00    -0.235 NA
HETATM   15  C11 UNL     1      22.156   0.137  53.765  1.00  0.00     0.175 C 
HETATM   16 BR1  UNL     1      22.128  -1.599  54.609  1.00  0.00    -0.009 Br
HETATM   17  N4  UNL     1      20.810   0.385  54.153  1.00  0.00    -0.345 N 
HETATM   18  C12 UNL     1      19.814  -0.084  53.208  1.00  0.00     0.086 C 
HETATM   19  C13 UNL     1      19.086   0.376  52.170  1.00  0.00    -0.002 C 
HETATM   20  C14 UNL     1      19.618   1.760  52.184  1.00  0.00     0.117 C 
HETATM   21  C15 UNL     1      19.270   2.762  51.351  1.00  0.00     0.138 C 
HETATM   22  O2  UNL     1      19.790   4.010  51.414  1.00  0.00    -0.274 OA
HETATM   23  H11 UNL     1      20.625   0.873  55.061  1.00  0.00     0.167 HD
ENDROOT
TORSDOF 0
ENDMDL
MODEL 3
REMARK VINA RESULT:      -8.1      1.266      1.455
REMARK  0 active torsions:
REMARK  status: ('A' for Active; 'I' for Inactive)
REMARK       I    between atoms: C2_2  and  N1_4 
ROOT
HETATM    1  C1  UNL     1      28.220   2.101  53.601  1.00  0.00     0.119 C 
HETATM    2  C2  UNL     1      27.019   1.263  53.922  1.00  0.00     0.239 C 
HETATM    3  O1  UNL     1      26.674   1.207  55.145  1.00  0.00    -0.272 OA
HETATM    4  N1  UNL     1      26.367   0.596  52.806  1.00  0.00    -0.223 N 
HETATM    5  C3  UNL     1      26.883   0.763  51.481  1.00  0.00     0.186 C 
HETATM    6  C4  UNL     1      26.296   1.923  50.803  1.00  0.00    -0.005 C 
HETATM    7  C5  UNL     1      26.446   3.097  50.217  1.00  0.00    -0.002 C 
HETATM    8  C6  UNL     1      26.722   4.366  49.597  1.00  0.00     0.001 C 
HETATM    9  C7  UNL     1      25.720   5.058  49.104  1.00  0.00     0.024 C 
HETATM   10  C8  UNL     1      24.349   5.381  48.755  1.00  0.00     0.062 C 
HETATM   11  C9  UNL     1      23.942   6.603  48.068  1.00  0.00     0.101 C 
HETATM   12  N2  UNL     1      23.633   7.600  47.508  1.00  0.00    -0.191 NA
HETATM   13  C10 UNL     1      23.283   4.637  48.998  1.00  0.00     0.142 C 
HETATM   14  N3  UNL     1      23.627   3.460  49.654  1.00  0.00    -0.235 NA
HETATM   15  C11 UNL     1      22.754   2.522  49.756  1.00  0.00     0.175 C 
HETATM   16 BR1  UNL     1      21.101   3.050  48.911  1.00  0.00    -0.009 Br
HETATM   17  N4  UNL     1      22.204   1.263  50.124  1.00  0.00    -0.345 N 
HETATM   18  C12 UNL     1      21.521   1.255  51.403  1.00  0.00     0.086 C 
HETATM   19  C13 UNL     1      21.770   0.975  52.699  1.00  0.00    -0.002 C 
HETATM   20  C14 UNL     1      23.192   0.594  52.525  1.00  0.00     0.117 C 
HETATM   21  C15 UNL     1      24.040   0.194  53.494  1.00  0.00     0.138 C 
HETATM   22  O2  UNL     1      25.332  -0.144  53.273  1.00  0.00    -0.274 OA
HETATM   23  H11 UNL     1      22.321   0.448  49.475  1.00  0.00     0.167 HD
ENDROOT
TORSDOF 0
ENDMDL
MODEL 4
REMARK VINA RESULT:      -7.6      3.750      6.599
REMARK  0 active torsions:
REMARK  status: ('A' for Active; 'I' for Inactive)
REMARK       I    between atoms: C2_2  and  N1_4 
ROOT
HETATM    1  C1  UNL     1      21.455   3.590  47.864  1.00  0.00     0.119 C 
HETATM    2  C2  UNL     1      20.216   3.035  48.503  1.00  0.00     0.239 C 
HETATM    3  O1  UNL     1      19.396   2.443  47.733  1.00  0.00    -0.272 OA
HETATM    4  N1  UNL     1      20.074   3.230  49.937  1.00  0.00    -0.223 N 
HETATM    5  C3  UNL     1      21.095   3.923  50.663  1.00  0.00     0.186 C 
HETATM    6  C4  UNL     1      22.140   3.015  51.145  1.00  0.00    -0.005 C 
HETATM    7  C5  UNL     1      23.408   2.644  51.163  1.00  0.00    -0.002 C 
HETATM    8  C6  UNL     1      24.810   2.326  51.113  1.00  0.00     0.001 C 
HETATM    9  C7  UNL     1      25.251   1.304  51.812  1.00  0.00     0.024 C 
HETATM   10  C8  UNL     1      25.202   0.163  52.707  1.00  0.00     0.062 C 
HETATM   11  C9  UNL     1      26.364  -0.637  53.082  1.00  0.00     0.101 C 
HETATM   12  N2  UNL     1      27.319  -1.272  53.376  1.00  0.00    -0.191 NA
HETATM   13  C10 UNL     1      24.126  -0.316  53.306  1.00  0.00     0.142 C 
HETATM   14  N3  UNL     1      22.993   0.420  52.975  1.00  0.00    -0.235 NA
HETATM   15  C11 UNL     1      21.911   0.240  53.645  1.00  0.00     0.175 C 
HETATM   16 BR1  UNL     1      22.185  -1.090  55.017  1.00  0.00    -0.009 Br
HETATM   17  N4  UNL     1      20.554   0.413  54.036  1.00  0.00    -0.345 N 
HETATM   18  C12 UNL     1      19.620  -0.484  53.384  1.00  0.00     0.086 C 
HETATM   19  C13 UNL     1      18.798  -0.513  52.315  1.00  0.00    -0.002 C 
HETATM   20  C14 UNL     1      19.102   0.854  51.826  1.00  0.00     0.117 C 
HETATM   21  C15 UNL     1      18.575   1.453  50.739  1.00  0.00     0.138 C 
HETATM   22  O2  UNL     1      18.890   2.708  50.341  1.00  0.00    -0.274 OA
HETATM   23  H11 UNL     1      20.319   1.151  54.743  1.00  0.00     0.167 HD
ENDROOT
TORSDOF 0
ENDMDL
MODEL 5
REMARK VINA RESULT:      -7.5      3.754      7.289
REMARK  0 active torsions:
REMARK  status: ('A' for Active; 'I' for Inactive)
REMARK       I    between atoms: C2_2  and  N1_4 
ROOT
HETATM    1  C1  UNL     1      17.928   1.794  51.582  1.00  0.00     0.119 C 
HETATM    2  C2  UNL     1      18.460   2.944  50.780  1.00  0.00     0.239 C 
HETATM    3  O1  UNL     1      17.942   4.083  51.006  1.00  0.00    -0.272 OA
HETATM    4  N1  UNL     1      19.514   2.644  49.824  1.00  0.00    -0.223 N 
HETATM    5  C3  UNL     1      19.990   1.301  49.690  1.00  0.00     0.186 C 
HETATM    6  C4  UNL     1      21.093   1.013  50.613  1.00  0.00    -0.005 C 
HETATM    7  C5  UNL     1      21.586   0.307  51.614  1.00  0.00    -0.002 C 
HETATM    8  C6  UNL     1      22.025  -0.520  52.707  1.00  0.00     0.001 C 
HETATM    9  C7  UNL     1      23.229  -0.330  53.198  1.00  0.00     0.024 C 
HETATM   10  C8  UNL     1      24.545   0.263  53.346  1.00  0.00     0.062 C 
HETATM   11  C9  UNL     1      25.530  -0.159  54.337  1.00  0.00     0.101 C 
HETATM   12  N2  UNL     1      26.316  -0.518  55.146  1.00  0.00    -0.191 NA
HETATM   13  C10 UNL     1      25.043   1.253  52.624  1.00  0.00     0.142 C 
HETATM   14  N3  UNL     1      24.134   1.686  51.664  1.00  0.00    -0.235 NA
HETATM   15  C11 UNL     1      24.536   2.474  50.731  1.00  0.00     0.175 C 
HETATM   16 BR1  UNL     1      26.416   2.855  50.939  1.00  0.00    -0.009 Br
HETATM   17  N4  UNL     1      24.462   3.293  49.571  1.00  0.00    -0.345 N 
HETATM   18  C12 UNL     1      24.173   4.689  49.836  1.00  0.00     0.086 C 
HETATM   19  C13 UNL     1      23.117   5.526  49.898  1.00  0.00    -0.002 C 
HETATM   20  C14 UNL     1      22.079   4.520  49.568  1.00  0.00     0.117 C 
HETATM   21  C15 UNL     1      20.752   4.740  49.468  1.00  0.00     0.138 C 
HETATM   22  O2  UNL     1      19.849   3.779  49.162  1.00  0.00    -0.274 OA
HETATM   23  H11 UNL     1      24.614   2.856  48.630  1.00  0.00     0.167 HD
ENDROOT
TORSDOF 0
ENDMDL
MODEL 6
REMARK VINA RESULT:      -7.1      2.867      5.788
REMARK  0 active torsions:
REMARK  status: ('A' for Active; 'I' for Inactive)
REMARK       I    between atoms: C2_2  and  N1_4 
ROOT
HETATM    1  C1  UNL     1      26.581   0.747  51.938  1.00  0.00     0.119 C 
HETATM    2  C2  UNL     1      26.294   2.009  51.181  1.00  0.00     0.239 C 
HETATM    3  O1  UNL     1      26.833   2.120  50.034  1.00  0.00    -0.272 OA
HETATM    4  N1  UNL     1      25.430   2.982  51.831  1.00  0.00    -0.223 N 
HETATM    5  C3  UNL     1      24.901   2.703  53.131  1.00  0.00     0.186 C 
HETATM    6  C4  UNL     1      23.622   1.988  53.064  1.00  0.00    -0.005 C 
HETATM    7  C5  UNL     1      22.897   0.921  53.348  1.00  0.00    -0.002 C 
HETATM    8  C6  UNL     1      22.198  -0.284  53.709  1.00  0.00     0.001 C 
HETATM    9  C7  UNL     1      20.938  -0.411  53.362  1.00  0.00     0.024 C 
HETATM   10  C8  UNL     1      19.660  -0.053  52.773  1.00  0.00     0.062 C 
HETATM   11  C9  UNL     1      18.475  -0.904  52.803  1.00  0.00     0.101 C 
HETATM   12  N2  UNL     1      17.524  -1.608  52.841  1.00  0.00    -0.191 NA
HETATM   13  C10 UNL     1      19.380   1.070  52.134  1.00  0.00     0.142 C 
HETATM   14  N3  UNL     1      20.486   1.912  52.082  1.00  0.00    -0.235 NA
HETATM   15  C11 UNL     1      20.328   3.132  51.708  1.00  0.00     0.175 C 
HETATM   16 BR1  UNL     1      18.472   3.472  51.299  1.00  0.00    -0.009 Br
HETATM   17  N4  UNL     1      20.681   4.471  51.384  1.00  0.00    -0.345 N 
HETATM   18  C12 UNL     1      21.005   4.688  49.987  1.00  0.00     0.086 C 
HETATM   19  C13 UNL     1      22.082   4.724  49.176  1.00  0.00    -0.002 C 
HETATM   20  C14 UNL     1      23.095   4.436  50.219  1.00  0.00     0.117 C 
HETATM   21  C15 UNL     1      24.428   4.335  50.038  1.00  0.00     0.138 C 
HETATM   22  O2  UNL     1      25.307   4.070  51.033  1.00  0.00    -0.274 OA
HETATM   23  H11 UNL     1      20.687   5.193  52.144  1.00  0.00     0.167 HD
ENDROOT
TORSDOF 0
ENDMDL
MODEL 7
REMARK VINA RESULT:      -7.1      3.910      7.489
REMARK  0 active torsions:
REMARK  status: ('A' for Active; 'I' for Inactive)
REMARK       I    between atoms: C2_2  and  N1_4 
ROOT
HETATM    1  C1  UNL     1      19.007   3.901  48.474  1.00  0.00     0.119 C 
HETATM    2  C2  UNL     1      20.268   4.678  48.239  1.00  0.00     0.239 C 
HETATM    3  O1  UNL     1      20.184   5.942  48.341  1.00  0.00    -0.272 OA
HETATM    4  N1  UNL     1      21.460   3.910  47.916  1.00  0.00    -0.223 N 
HETATM    5  C3  UNL     1      21.386   2.482  47.840  1.00  0.00     0.186 C 
HETATM    6  C4  UNL     1      21.635   1.848  49.139  1.00  0.00    -0.005 C 
HETATM    7  C5  UNL     1      21.219   1.081  50.131  1.00  0.00    -0.002 C 
HETATM    8  C6  UNL     1      20.670   0.232  51.154  1.00  0.00     0.001 C 
HETATM    9  C7  UNL     1      21.403  -0.038  52.211  1.00  0.00     0.024 C 
HETATM   10  C8  UNL     1      22.555  -0.012  53.094  1.00  0.00     0.062 C 
HETATM   11  C9  UNL     1      22.627  -0.717  54.370  1.00  0.00     0.101 C 
HETATM   12  N2  UNL     1      22.667  -1.298  55.400  1.00  0.00    -0.191 NA
HETATM   13  C10 UNL     1      23.687   0.638  52.884  1.00  0.00     0.142 C 
HETATM   14  N3  UNL     1      23.660   1.326  51.676  1.00  0.00    -0.235 NA
HETATM   15  C11 UNL     1      24.753   1.813  51.207  1.00  0.00     0.175 C 
HETATM   16 BR1  UNL     1      26.223   1.425  52.396  1.00  0.00    -0.009 Br
HETATM   17  N4  UNL     1      25.614   2.504  50.311  1.00  0.00    -0.345 N 
HETATM   18  C12 UNL     1      25.782   3.915  50.602  1.00  0.00     0.086 C 
HETATM   19  C13 UNL     1      25.259   5.106  50.245  1.00  0.00    -0.002 C 
HETATM   20  C14 UNL     1      24.260   4.578  49.286  1.00  0.00     0.117 C 
HETATM   21  C15 UNL     1      23.383   5.302  48.562  1.00  0.00     0.138 C 
HETATM   22  O2  UNL     1      22.491   4.762  47.697  1.00  0.00    -0.274 OA
HETATM   23  H11 UNL     1      26.059   1.973  49.524  1.00  0.00     0.167 HD
ENDROOT
TORSDOF 0
ENDMDL
MODEL 8
REMARK VINA RESULT:      -7.0      3.858      5.991
REMARK  0 active torsions:
REMARK  status: ('A' for Active; 'I' for Inactive)
REMARK       I    between atoms: C2_2  and  N1_4 
ROOT
HETATM    1  C1  UNL     1      26.156   2.370  52.168  1.00  0.00     0.119 C 
HETATM    2  C2  UNL     1      24.792   2.985  52.268  1.00  0.00     0.239 C 
HETATM    3  O1  UNL     1      24.349   3.198  53.440  1.00  0.00    -0.272 OA
HETATM    4  N1  UNL     1      24.110   3.275  51.016  1.00  0.00    -0.223 N 
HETATM    5  C3  UNL     1      24.751   2.972  49.772  1.00  0.00     0.186 C 
HETATM    6  C4  UNL     1      25.573   4.087  49.291  1.00  0.00    -0.005 C 
HETATM    7  C5  UNL     1      26.754   4.563  48.939  1.00  0.00    -0.002 C 
HETATM    8  C6  UNL     1      28.083   4.979  48.578  1.00  0.00     0.001 C 
HETATM    9  C7  UNL     1      28.269   6.215  48.171  1.00  0.00     0.024 C 
HETATM   10  C8  UNL     1      27.932   7.581  47.817  1.00  0.00     0.062 C 
HETATM   11  C9  UNL     1      28.898   8.570  47.347  1.00  0.00     0.101 C 
HETATM   12  N2  UNL     1      29.696   9.356  46.965  1.00  0.00    -0.191 NA
HETATM   13  C10 UNL     1      26.729   8.128  47.865  1.00  0.00     0.142 C 
HETATM   14  N3  UNL     1      25.776   7.218  48.310  1.00  0.00    -0.235 NA
HETATM   15  C11 UNL     1      24.530   7.508  48.193  1.00  0.00     0.175 C 
HETATM   16 BR1  UNL     1      24.320   9.244  47.376  1.00  0.00    -0.009 Br
HETATM   17  N4  UNL     1      23.121   7.347  48.295  1.00  0.00    -0.345 N 
HETATM   18  C12 UNL     1      22.540   7.876  49.514  1.00  0.00     0.086 C 
HETATM   19  C13 UNL     1      22.186   7.460  50.748  1.00  0.00    -0.002 C 
HETATM   20  C14 UNL     1      22.595   6.045  50.579  1.00  0.00     0.117 C 
HETATM   21  C15 UNL     1      22.494   5.065  51.499  1.00  0.00     0.138 C 
HETATM   22  O2  UNL     1      22.884   3.786  51.286  1.00  0.00    -0.274 OA
HETATM   23  H11 UNL     1      22.605   6.874  47.514  1.00  0.00     0.167 HD
ENDROOT
TORSDOF 0
ENDMDL
MODEL 9
REMARK VINA RESULT:      -7.0      8.039     10.595
REMARK  0 active torsions:
REMARK  status: ('A' for Active; 'I' for Inactive)
REMARK       I    between atoms: C2_2  and  N1_4 
ROOT
HETATM    1  C1  UNL     1      32.778   3.976  45.987  1.00  0.00     0.119 C 
HETATM    2  C2  UNL     1      33.503   5.288  45.964  1.00  0.00     0.239 C 
HETATM    3  O1  UNL     1      34.098   5.590  44.882  1.00  0.00    -0.272 OA
HETATM    4  N1  UNL     1      33.456   6.084  47.180  1.00  0.00    -0.223 N 
HETATM    5  C3  UNL     1      32.738   5.598  48.319  1.00  0.00     0.186 C 
HETATM    6  C4  UNL     1      31.330   6.007  48.298  1.00  0.00    -0.005 C 
HETATM    7  C5  UNL     1      30.050   5.683  48.274  1.00  0.00    -0.002 C 
HETATM    8  C6  UNL     1      28.687   5.222  48.249  1.00  0.00     0.001 C 
HETATM    9  C7  UNL     1      27.720   6.111  48.239  1.00  0.00     0.024 C 
HETATM   10  C8  UNL     1      27.094   7.420  48.236  1.00  0.00     0.062 C 
HETATM   11  C9  UNL     1      25.651   7.640  48.214  1.00  0.00     0.101 C 
HETATM   12  N2  UNL     1      24.478   7.798  48.199  1.00  0.00    -0.191 NA
HETATM   13  C10 UNL     1      27.717   8.586  48.253  1.00  0.00     0.142 C 
HETATM   14  N3  UNL     1      29.098   8.421  48.274  1.00  0.00    -0.235 NA
HETATM   15  C11 UNL     1      29.847   9.434  48.527  1.00  0.00     0.175 C 
HETATM   16 BR1  UNL     1      28.767  11.006  48.828  1.00  0.00    -0.009 Br
HETATM   17  N4  UNL     1      31.043  10.174  48.736  1.00  0.00    -0.345 N 
HETATM   18  C12 UNL     1      31.581  10.800  47.543  1.00  0.00     0.086 C 
HETATM   19  C13 UNL     1      32.482  10.553  46.570  1.00  0.00    -0.002 C 
HETATM   20  C14 UNL     1      32.912   9.223  47.064  1.00  0.00     0.117 C 
HETATM   21  C15 UNL     1      33.836   8.418  46.502  1.00  0.00     0.138 C 
HETATM   22  O2  UNL     1      34.189   7.210  47.002  1.00  0.00    -0.274 OA
HETATM   23  H11 UNL     1      31.450  10.220  49.700  1.00  0.00     0.167 HD
ENDROOT
TORSDOF 0
ENDMDL
