MODEL 1
REMARK VINA RESULT:      -8.0      0.000      0.000
REMARK  7 active torsions:
REMARK  status: ('A' for Active; 'I' for Inactive)
REMARK    1  A    between atoms: C5_6  and  C6_7 
REMARK    2  A    between atoms: C9_11  and  C10_12 
REMARK    3  A    between atoms: C10_12  and  C11_13 
REMARK    4  A    between atoms: C11_13  and  C12_14 
REMARK    5  A    between atoms: C12_14  and  O2_16 
REMARK    6  A    between atoms: C16_20  and  C17_21 
REMARK    7  A    between atoms: C18_22  and  O3_23 
ROOT
HETATM    1  C6  UNL     1      23.437   2.990  50.921  1.00  0.00     0.113 C 
HETATM    2  N2  UNL     1      22.856   1.904  50.145  1.00  0.00    -0.385 N 
HETATM    3  C7  UNL     1      22.166   1.128  51.141  1.00  0.00     0.004 C 
HETATM    4  C8  UNL     1      20.922   0.294  51.011  1.00  0.00     0.068 C 
HETATM    5  C9  UNL     1      22.830   1.258  52.291  1.00  0.00    -0.051 C 
HETATM    6  C13 UNL     1      24.017   2.162  52.075  1.00  0.00     0.039 C 
HETATM    7  C14 UNL     1      25.154   1.308  51.621  1.00  0.00     0.017 C 
HETATM    8  H8  UNL     1      22.806   1.559  49.143  1.00  0.00     0.160 HD
ENDROOT
BRANCH   1   9
HETATM    9  C5  UNL     1      24.450   3.738  50.196  1.00  0.00     0.008 C 
HETATM   10  C4  UNL     1      24.801   4.978  50.494  1.00  0.00    -0.030 C 
HETATM   11  C3  UNL     1      24.107   5.617  51.637  1.00  0.00     0.158 C 
HETATM   12  C15 UNL     1      25.794   5.878  49.861  1.00  0.00    -0.006 C 
HETATM   13  N1  UNL     1      24.391   7.011  51.381  1.00  0.00    -0.388 N 
HETATM   14  C2  UNL     1      25.474   7.151  50.474  1.00  0.00     0.016 C 
HETATM   15  H3  UNL     1      23.973   7.905  51.718  1.00  0.00     0.159 HD
HETATM   16  C1  UNL     1      26.218   8.186  50.107  1.00  0.00     0.063 C 
HETATM   17  C16 UNL     1      26.584   5.306  48.986  1.00  0.00     0.016 C 
BRANCH  17  18
HETATM   18  C17 UNL     1      27.536   6.142  48.308  1.00  0.00     0.025 C 
HETATM   19  C18 UNL     1      28.832   5.965  48.236  1.00  0.00     0.134 C 
BRANCH  19  20
HETATM   20  O3  UNL     1      29.984   5.289  48.509  1.00  0.00    -0.368 OA
HETATM   21  C19 UNL     1      31.131   5.341  47.713  1.00  0.00     0.208 C 
ENDBRANCH  19  20
ENDBRANCH  17  18
ENDBRANCH   1   9
BRANCH   5  22
HETATM   22  C10 UNL     1      22.493   0.644  53.579  1.00  0.00     0.047 C 
BRANCH  22  23
HETATM   23  C11 UNL     1      23.120  -0.695  53.794  1.00  0.00     0.114 C 
BRANCH  23  24
HETATM   24  C12 UNL     1      22.411  -1.394  54.922  1.00  0.00     0.139 C 
HETATM   25  O1  UNL     1      21.180  -1.565  54.936  1.00  0.00    -0.650 OA
BRANCH  24  26
HETATM   26  O2  UNL     1      23.191  -1.869  55.996  1.00  0.00    -0.776 OA
HETATM   27  H16 UNL     1      23.918  -2.574  55.825  1.00  0.00     0.167 HD
ENDBRANCH  24  26
ENDBRANCH  23  24
ENDBRANCH  22  23
ENDBRANCH   5  22
TORSDOF 7
ENDMDL
MODEL 2
REMARK VINA RESULT:      -7.8      2.436      8.649
REMARK  7 active torsions:
REMARK  status: ('A' for Active; 'I' for Inactive)
REMARK    1  A    between atoms: C5_6  and  C6_7 
REMARK    2  A    between atoms: C9_11  and  C10_12 
REMARK    3  A    between atoms: C10_12  and  C11_13 
REMARK    4  A    between atoms: C11_13  and  C12_14 
REMARK    5  A    between atoms: C12_14  and  O2_16 
REMARK    6  A    between atoms: C16_20  and  C17_21 
REMARK    7  A    between atoms: C18_22  and  O3_23 
ROOT
HETATM    1  C6  UNL     1      25.604   3.644  50.785  1.00  0.00     0.113 C 
HETATM    2  N2  UNL     1      26.435   3.287  49.646  1.00  0.00    -0.385 N 
HETATM    3  C7  UNL     1      26.867   4.565  49.145  1.00  0.00     0.004 C 
HETATM    4  C8  UNL     1      28.144   4.935  48.442  1.00  0.00     0.068 C 
HETATM    5  C9  UNL     1      25.906   5.452  49.412  1.00  0.00    -0.051 C 
HETATM    6  C13 UNL     1      24.776   4.755  50.126  1.00  0.00     0.039 C 
HETATM    7  C14 UNL     1      23.856   4.210  49.084  1.00  0.00     0.017 C 
HETATM    8  H8  UNL     1      26.777   2.425  49.130  1.00  0.00     0.160 HD
ENDROOT
BRANCH   1   9
HETATM    9  C5  UNL     1      24.788   2.544  51.272  1.00  0.00     0.008 C 
HETATM   10  C4  UNL     1      25.087   1.828  52.343  1.00  0.00    -0.030 C 
HETATM   11  C3  UNL     1      26.328   2.187  53.069  1.00  0.00     0.158 C 
HETATM   12  C15 UNL     1      24.381   0.682  52.964  1.00  0.00    -0.006 C 
HETATM   13  N1  UNL     1      26.551   0.983  53.836  1.00  0.00    -0.388 N 
HETATM   14  C2  UNL     1      25.372   0.196  53.902  1.00  0.00     0.016 C 
HETATM   15  H3  UNL     1      27.379   0.588  54.334  1.00  0.00     0.159 HD
HETATM   16  C1  UNL     1      25.024  -0.851  54.639  1.00  0.00     0.063 C 
HETATM   17  C16 UNL     1      23.178   0.451  52.497  1.00  0.00     0.016 C 
BRANCH  17  18
HETATM   18  C17 UNL     1      22.466  -0.677  53.032  1.00  0.00     0.025 C 
HETATM   19  C18 UNL     1      21.209  -0.715  53.398  1.00  0.00     0.134 C 
BRANCH  19  20
HETATM   20  O3  UNL     1      19.978  -0.158  53.583  1.00  0.00    -0.368 OA
HETATM   21  C19 UNL     1      18.876  -0.401  52.760  1.00  0.00     0.208 C 
ENDBRANCH  19  20
ENDBRANCH  17  18
ENDBRANCH   1   9
BRANCH   5  22
HETATM   22  C10 UNL     1      25.910   6.881  49.085  1.00  0.00     0.047 C 
BRANCH  22  23
HETATM   23  C11 UNL     1      25.980   7.775  50.280  1.00  0.00     0.114 C 
BRANCH  23  24
HETATM   24  C12 UNL     1      27.019   8.838  50.039  1.00  0.00     0.139 C 
HETATM   25  O1  UNL     1      27.389   9.166  48.899  1.00  0.00    -0.650 OA
BRANCH  24  26
HETATM   26  O2  UNL     1      27.582   9.474  51.163  1.00  0.00    -0.776 OA
HETATM   27  H16 UNL     1      27.469   9.056  52.095  1.00  0.00     0.167 HD
ENDBRANCH  24  26
ENDBRANCH  23  24
ENDBRANCH  22  23
ENDBRANCH   5  22
TORSDOF 7
ENDMDL
MODEL 3
REMARK VINA RESULT:      -7.8      4.943      7.904
REMARK  7 active torsions:
REMARK  status: ('A' for Active; 'I' for Inactive)
REMARK    1  A    between atoms: C5_6  and  C6_7 
REMARK    2  A    between atoms: C9_11  and  C10_12 
REMARK    3  A    between atoms: C10_12  and  C11_13 
REMARK    4  A    between atoms: C11_13  and  C12_14 
REMARK    5  A    between atoms: C12_14  and  O2_16 
REMARK    6  A    between atoms: C16_20  and  C17_21 
REMARK    7  A    between atoms: C18_22  and  O3_23 
ROOT
HETATM    1  C6  UNL     1      24.797  -0.337  53.524  1.00  0.00     0.113 C 
HETATM    2  N2  UNL     1      25.499  -1.065  52.478  1.00  0.00    -0.385 N 
HETATM    3  C7  UNL     1      26.807  -1.265  53.043  1.00  0.00     0.004 C 
HETATM    4  C8  UNL     1      27.781  -2.390  52.825  1.00  0.00     0.068 C 
HETATM    5  C9  UNL     1      27.061  -0.237  53.854  1.00  0.00    -0.051 C 
HETATM    6  C13 UNL     1      25.880   0.700  53.848  1.00  0.00     0.039 C 
HETATM    7  C14 UNL     1      26.076   1.660  52.721  1.00  0.00     0.017 C 
HETATM    8  H8  UNL     1      25.328  -1.451  51.504  1.00  0.00     0.160 HD
ENDROOT
BRANCH   1   9
HETATM    9  C5  UNL     1      23.554   0.265  53.074  1.00  0.00     0.008 C 
HETATM   10  C4  UNL     1      22.357  -0.164  53.437  1.00  0.00    -0.030 C 
HETATM   11  C3  UNL     1      22.309  -1.326  54.355  1.00  0.00     0.158 C 
HETATM   12  C15 UNL     1      21.005   0.322  53.068  1.00  0.00    -0.006 C 
HETATM   13  N1  UNL     1      20.945  -1.766  54.163  1.00  0.00    -0.388 N 
HETATM   14  C2  UNL     1      20.161  -0.747  53.563  1.00  0.00     0.016 C 
HETATM   15  H3  UNL     1      20.439  -2.654  54.370  1.00  0.00     0.159 HD
HETATM   16  C1  UNL     1      18.855  -0.597  53.386  1.00  0.00     0.063 C 
HETATM   17  C16 UNL     1      20.981   1.467  52.432  1.00  0.00     0.016 C 
BRANCH  17  18
HETATM   18  C17 UNL     1      19.699   1.962  52.010  1.00  0.00     0.025 C 
HETATM   19  C18 UNL     1      19.245   2.035  50.784  1.00  0.00     0.134 C 
BRANCH  19  20
HETATM   20  O3  UNL     1      19.352   1.865  49.435  1.00  0.00    -0.368 OA
HETATM   21  C19 UNL     1      20.558   1.914  48.731  1.00  0.00     0.208 C 
ENDBRANCH  19  20
ENDBRANCH  17  18
ENDBRANCH   1   9
BRANCH   5  22
HETATM   22  C10 UNL     1      28.276  -0.017  54.645  1.00  0.00     0.047 C 
BRANCH  22  23
HETATM   23  C11 UNL     1      29.407   0.571  53.867  1.00  0.00     0.114 C 
BRANCH  23  24
HETATM   24  C12 UNL     1      29.506   2.041  54.178  1.00  0.00     0.139 C 
HETATM   25  O1  UNL     1      29.805   2.468  55.306  1.00  0.00    -0.650 OA
BRANCH  24  26
HETATM   26  O2  UNL     1      29.247   2.952  53.135  1.00  0.00    -0.776 OA
HETATM   27  H16 UNL     1      28.549   3.694  53.268  1.00  0.00     0.167 HD
ENDBRANCH  24  26
ENDBRANCH  23  24
ENDBRANCH  22  23
ENDBRANCH   5  22
TORSDOF 7
ENDMDL
MODEL 4
REMARK VINA RESULT:      -7.6      1.857      2.873
REMARK  7 active torsions:
REMARK  status: ('A' for Active; 'I' for Inactive)
REMARK    1  A    between atoms: C5_6  and  C6_7 
REMARK    2  A    between atoms: C9_11  and  C10_12 
REMARK    3  A    between atoms: C10_12  and  C11_13 
REMARK    4  A    between atoms: C11_13  and  C12_14 
REMARK    5  A    between atoms: C12_14  and  O2_16 
REMARK    6  A    between atoms: C16_20  and  C17_21 
REMARK    7  A    between atoms: C18_22  and  O3_23 
ROOT
HETATM    1  C6  UNL     1      25.556   1.446  51.335  1.00  0.00     0.113 C 
HETATM    2  N2  UNL     1      26.785   0.730  51.641  1.00  0.00    -0.385 N 
HETATM    3  C7  UNL     1      26.336  -0.331  52.503  1.00  0.00     0.004 C 
HETATM    4  C8  UNL     1      26.891  -1.717  52.683  1.00  0.00     0.068 C 
HETATM    5  C9  UNL     1      25.272   0.113  53.175  1.00  0.00    -0.051 C 
HETATM    6  C13 UNL     1      24.979   1.530  52.754  1.00  0.00     0.039 C 
HETATM    7  C14 UNL     1      25.790   2.433  53.623  1.00  0.00     0.017 C 
HETATM    8  H8  UNL     1      27.823   0.771  51.427  1.00  0.00     0.160 HD
ENDROOT
BRANCH   1   9
HETATM    9  C5  UNL     1      25.782   2.751  50.737  1.00  0.00     0.008 C 
HETATM   10  C4  UNL     1      24.853   3.432  50.087  1.00  0.00    -0.030 C 
HETATM   11  C3  UNL     1      23.514   2.807  49.978  1.00  0.00     0.158 C 
HETATM   12  C15 UNL     1      24.917   4.753  49.418  1.00  0.00    -0.006 C 
HETATM   13  N1  UNL     1      22.949   3.566  48.886  1.00  0.00    -0.388 N 
HETATM   14  C2  UNL     1      23.674   4.769  48.674  1.00  0.00     0.016 C 
HETATM   15  H3  UNL     1      22.143   3.413  48.242  1.00  0.00     0.159 HD
HETATM   16  C1  UNL     1      23.429   5.858  47.957  1.00  0.00     0.063 C 
HETATM   17  C16 UNL     1      26.004   5.445  49.657  1.00  0.00     0.016 C 
BRANCH  17  18
HETATM   18  C17 UNL     1      26.138   6.714  48.996  1.00  0.00     0.025 C 
HETATM   19  C18 UNL     1      27.241   7.255  48.542  1.00  0.00     0.134 C 
BRANCH  19  20
HETATM   20  O3  UNL     1      28.586   7.268  48.316  1.00  0.00    -0.368 OA
HETATM   21  C19 UNL     1      29.348   6.127  48.052  1.00  0.00     0.208 C 
ENDBRANCH  19  20
ENDBRANCH  17  18
ENDBRANCH   1   9
BRANCH   5  22
HETATM   22  C10 UNL     1      24.484  -0.625  54.167  1.00  0.00     0.047 C 
BRANCH  22  23
HETATM   23  C11 UNL     1      23.024  -0.685  53.858  1.00  0.00     0.114 C 
BRANCH  23  24
HETATM   24  C12 UNL     1      22.325  -1.472  54.934  1.00  0.00     0.139 C 
HETATM   25  O1  UNL     1      21.107  -1.713  54.902  1.00  0.00    -0.650 OA
BRANCH  24  26
HETATM   26  O2  UNL     1      23.100  -1.947  56.011  1.00  0.00    -0.776 OA
HETATM   27  H16 UNL     1      22.636  -2.341  56.838  1.00  0.00     0.167 HD
ENDBRANCH  24  26
ENDBRANCH  23  24
ENDBRANCH  22  23
ENDBRANCH   5  22
TORSDOF 7
ENDMDL
MODEL 5
REMARK VINA RESULT:      -7.6      4.563      9.023
REMARK  7 active torsions:
REMARK  status: ('A' for Active; 'I' for Inactive)
REMARK    1  A    between atoms: C5_6  and  C6_7 
REMARK    2  A    between atoms: C9_11  and  C10_12 
REMARK    3  A    between atoms: C10_12  and  C11_13 
REMARK    4  A    between atoms: C11_13  and  C12_14 
REMARK    5  A    between atoms: C12_14  and  O2_16 
REMARK    6  A    between atoms: C16_20  and  C17_21 
REMARK    7  A    between atoms: C18_22  and  O3_23 
ROOT
HETATM    1  C6  UNL     1      21.943   0.428  52.268  1.00  0.00     0.113 C 
HETATM    2  N2  UNL     1      22.246   1.670  52.961  1.00  0.00    -0.385 N 
HETATM    3  C7  UNL     1      23.682   1.654  53.044  1.00  0.00     0.004 C 
HETATM    4  C8  UNL     1      24.652   2.803  53.056  1.00  0.00     0.068 C 
HETATM    5  C9  UNL     1      24.071   0.380  53.112  1.00  0.00    -0.051 C 
HETATM    6  C13 UNL     1      22.855  -0.510  53.069  1.00  0.00     0.039 C 
HETATM    7  C14 UNL     1      22.373  -0.679  54.472  1.00  0.00     0.017 C 
HETATM    8  H8  UNL     1      21.746   2.506  53.384  1.00  0.00     0.160 HD
ENDROOT
BRANCH   1   9
HETATM    9  C5  UNL     1      20.541   0.053  52.341  1.00  0.00     0.008 C 
HETATM   10  C4  UNL     1      19.683   0.220  51.349  1.00  0.00    -0.030 C 
HETATM   11  C3  UNL     1      20.207   0.825  50.102  1.00  0.00     0.158 C 
HETATM   12  C15 UNL     1      18.237  -0.094  51.261  1.00  0.00    -0.006 C 
HETATM   13  N1  UNL     1      18.978   1.251  49.471  1.00  0.00    -0.388 N 
HETATM   14  C2  UNL     1      17.858   0.593  50.043  1.00  0.00     0.016 C 
HETATM   15  H3  UNL     1      18.757   1.924  48.705  1.00  0.00     0.159 HD
HETATM   16  C1  UNL     1      16.587   0.490  49.679  1.00  0.00     0.063 C 
HETATM   17  C16 UNL     1      17.764  -0.817  52.246  1.00  0.00     0.016 C 
BRANCH  17  18
HETATM   18  C17 UNL     1      16.358  -1.113  52.234  1.00  0.00     0.025 C 
HETATM   19  C18 UNL     1      15.791  -2.265  52.491  1.00  0.00     0.134 C 
BRANCH  19  20
HETATM   20  O3  UNL     1      15.819  -3.587  52.824  1.00  0.00    -0.368 OA
HETATM   21  C19 UNL     1      16.880  -4.206  53.491  1.00  0.00     0.208 C 
ENDBRANCH  19  20
ENDBRANCH  17  18
ENDBRANCH   1   9
BRANCH   5  22
HETATM   22  C10 UNL     1      25.447  -0.118  53.208  1.00  0.00     0.047 C 
BRANCH  22  23
HETATM   23  C11 UNL     1      25.975  -0.171  54.604  1.00  0.00     0.114 C 
BRANCH  23  24
HETATM   24  C12 UNL     1      27.410   0.286  54.605  1.00  0.00     0.139 C 
HETATM   25  O1  UNL     1      28.364  -0.505  54.693  1.00  0.00    -0.650 OA
BRANCH  24  26
HETATM   26  O2  UNL     1      27.660   1.669  54.499  1.00  0.00    -0.776 OA
HETATM   27  H16 UNL     1      28.599   2.033  54.701  1.00  0.00     0.167 HD
ENDBRANCH  24  26
ENDBRANCH  23  24
ENDBRANCH  22  23
ENDBRANCH   5  22
TORSDOF 7
ENDMDL
MODEL 6
REMARK VINA RESULT:      -7.5      4.561      8.537
REMARK  7 active torsions:
REMARK  status: ('A' for Active; 'I' for Inactive)
REMARK    1  A    between atoms: C5_6  and  C6_7 
REMARK    2  A    between atoms: C9_11  and  C10_12 
REMARK    3  A    between atoms: C10_12  and  C11_13 
REMARK    4  A    between atoms: C11_13  and  C12_14 
REMARK    5  A    between atoms: C12_14  and  O2_16 
REMARK    6  A    between atoms: C16_20  and  C17_21 
REMARK    7  A    between atoms: C18_22  and  O3_23 
ROOT
HETATM    1  C6  UNL     1      22.556   0.754  53.012  1.00  0.00     0.113 C 
HETATM    2  N2  UNL     1      23.422  -0.407  52.883  1.00  0.00    -0.385 N 
HETATM    3  C7  UNL     1      24.660   0.046  53.459  1.00  0.00     0.004 C 
HETATM    4  C8  UNL     1      25.718  -0.734  54.189  1.00  0.00     0.068 C 
HETATM    5  C9  UNL     1      24.752   1.360  53.245  1.00  0.00    -0.051 C 
HETATM    6  C13 UNL     1      23.527   1.824  52.497  1.00  0.00     0.039 C 
HETATM    7  C14 UNL     1      23.803   1.659  51.039  1.00  0.00     0.017 C 
HETATM    8  H8  UNL     1      23.396  -1.402  52.515  1.00  0.00     0.160 HD
ENDROOT
BRANCH   1   9
HETATM    9  C5  UNL     1      21.343   0.661  52.216  1.00  0.00     0.008 C 
HETATM   10  C4  UNL     1      20.218   0.121  52.652  1.00  0.00    -0.030 C 
HETATM   11  C3  UNL     1      20.219  -0.410  54.036  1.00  0.00     0.158 C 
HETATM   12  C15 UNL     1      18.910  -0.061  51.978  1.00  0.00    -0.006 C 
HETATM   13  N1  UNL     1      19.062  -1.275  53.994  1.00  0.00    -0.388 N 
HETATM   14  C2  UNL     1      18.229  -0.958  52.889  1.00  0.00     0.016 C 
HETATM   15  H3  UNL     1      18.726  -2.060  54.594  1.00  0.00     0.159 HD
HETATM   16  C1  UNL     1      16.995  -1.311  52.556  1.00  0.00     0.063 C 
HETATM   17  C16 UNL     1      18.781   0.570  50.837  1.00  0.00     0.016 C 
BRANCH  17  18
HETATM   18  C17 UNL     1      17.549   0.392  50.118  1.00  0.00     0.025 C 
HETATM   19  C18 UNL     1      16.735   1.329  49.703  1.00  0.00     0.134 C 
BRANCH  19  20
HETATM   20  O3  UNL     1      16.348   2.629  49.558  1.00  0.00    -0.368 OA
HETATM   21  C19 UNL     1      16.131   3.506  50.624  1.00  0.00     0.208 C 
ENDBRANCH  19  20
ENDBRANCH  17  18
ENDBRANCH   1   9
BRANCH   5  22
HETATM   22  C10 UNL     1      25.844   2.246  53.655  1.00  0.00     0.047 C 
BRANCH  22  23
HETATM   23  C11 UNL     1      27.015   2.234  52.728  1.00  0.00     0.114 C 
BRANCH  23  24
HETATM   24  C12 UNL     1      28.284   2.257  53.538  1.00  0.00     0.139 C 
HETATM   25  O1  UNL     1      28.408   1.633  54.605  1.00  0.00    -0.650 OA
BRANCH  24  26
HETATM   26  O2  UNL     1      29.363   3.021  53.049  1.00  0.00    -0.776 OA
HETATM   27  H16 UNL     1      30.006   2.611  52.361  1.00  0.00     0.167 HD
ENDBRANCH  24  26
ENDBRANCH  23  24
ENDBRANCH  22  23
ENDBRANCH   5  22
TORSDOF 7
ENDMDL
MODEL 7
REMARK VINA RESULT:      -7.4      2.767      3.398
REMARK  7 active torsions:
REMARK  status: ('A' for Active; 'I' for Inactive)
REMARK    1  A    between atoms: C5_6  and  C6_7 
REMARK    2  A    between atoms: C9_11  and  C10_12 
REMARK    3  A    between atoms: C10_12  and  C11_13 
REMARK    4  A    between atoms: C11_13  and  C12_14 
REMARK    5  A    between atoms: C12_14  and  O2_16 
REMARK    6  A    between atoms: C16_20  and  C17_21 
REMARK    7  A    between atoms: C18_22  and  O3_23 
ROOT
HETATM    1  C6  UNL     1      24.444   2.358  52.341  1.00  0.00     0.113 C 
HETATM    2  N2  UNL     1      23.621   1.288  51.799  1.00  0.00    -0.385 N 
HETATM    3  C7  UNL     1      23.758   0.244  52.780  1.00  0.00     0.004 C 
HETATM    4  C8  UNL     1      22.779  -0.824  53.183  1.00  0.00     0.068 C 
HETATM    5  C9  UNL     1      24.967   0.361  53.333  1.00  0.00    -0.051 C 
HETATM    6  C13 UNL     1      25.683   1.531  52.709  1.00  0.00     0.039 C 
HETATM    7  C14 UNL     1      26.388   1.029  51.492  1.00  0.00     0.017 C 
HETATM    8  H8  UNL     1      23.007   1.083  50.958  1.00  0.00     0.160 HD
ENDROOT
BRANCH   1   9
HETATM    9  C5  UNL     1      24.730   3.410  51.380  1.00  0.00     0.008 C 
HETATM   10  C4  UNL     1      24.144   4.595  51.393  1.00  0.00    -0.030 C 
HETATM   11  C3  UNL     1      23.143   4.839  52.458  1.00  0.00     0.158 C 
HETATM   12  C15 UNL     1      24.309   5.763  50.494  1.00  0.00    -0.006 C 
HETATM   13  N1  UNL     1      22.432   5.971  51.907  1.00  0.00    -0.388 N 
HETATM   14  C2  UNL     1      23.187   6.594  50.879  1.00  0.00     0.016 C 
HETATM   15  H3  UNL     1      21.506   6.407  52.107  1.00  0.00     0.159 HD
HETATM   16  C1  UNL     1      23.063   7.750  50.241  1.00  0.00     0.063 C 
HETATM   17  C16 UNL     1      25.322   5.688  49.666  1.00  0.00     0.016 C 
BRANCH  17  18
HETATM   18  C17 UNL     1      25.501   6.772  48.741  1.00  0.00     0.025 C 
HETATM   19  C18 UNL     1      26.464   7.660  48.742  1.00  0.00     0.134 C 
BRANCH  19  20
HETATM   20  O3  UNL     1      27.603   8.219  49.243  1.00  0.00    -0.368 OA
HETATM   21  C19 UNL     1      27.637   9.414  49.966  1.00  0.00     0.208 C 
ENDBRANCH  19  20
ENDBRANCH  17  18
ENDBRANCH   1   9
BRANCH   5  22
HETATM   22  C10 UNL     1      25.543  -0.487  54.381  1.00  0.00     0.047 C 
BRANCH  22  23
HETATM   23  C11 UNL     1      26.482   0.232  55.293  1.00  0.00     0.114 C 
BRANCH  23  24
HETATM   24  C12 UNL     1      27.891   0.043  54.797  1.00  0.00     0.139 C 
HETATM   25  O1  UNL     1      28.241  -0.952  54.140  1.00  0.00    -0.650 OA
BRANCH  24  26
HETATM   26  O2  UNL     1      28.835   1.044  55.099  1.00  0.00    -0.776 OA
HETATM   27  H16 UNL     1      29.615   1.220  54.455  1.00  0.00     0.167 HD
ENDBRANCH  24  26
ENDBRANCH  23  24
ENDBRANCH  22  23
ENDBRANCH   5  22
TORSDOF 7
ENDMDL
MODEL 8
REMARK VINA RESULT:      -7.4      2.728      4.066
REMARK  7 active torsions:
REMARK  status: ('A' for Active; 'I' for Inactive)
REMARK    1  A    between atoms: C5_6  and  C6_7 
REMARK    2  A    between atoms: C9_11  and  C10_12 
REMARK    3  A    between atoms: C10_12  and  C11_13 
REMARK    4  A    between atoms: C11_13  and  C12_14 
REMARK    5  A    between atoms: C12_14  and  O2_16 
REMARK    6  A    between atoms: C16_20  and  C17_21 
REMARK    7  A    between atoms: C18_22  and  O3_23 
ROOT
HETATM    1  C6  UNL     1      24.891   2.276  51.354  1.00  0.00     0.113 C 
HETATM    2  N2  UNL     1      25.495   2.633  52.628  1.00  0.00    -0.385 N 
HETATM    3  C7  UNL     1      25.467   1.394  53.359  1.00  0.00     0.004 C 
HETATM    4  C8  UNL     1      26.411   0.882  54.412  1.00  0.00     0.068 C 
HETATM    5  C9  UNL     1      24.406   0.700  52.943  1.00  0.00    -0.051 C 
HETATM    6  C13 UNL     1      23.683   1.493  51.884  1.00  0.00     0.039 C 
HETATM    7  C14 UNL     1      22.711   2.387  52.579  1.00  0.00     0.017 C 
HETATM    8  H8  UNL     1      25.911   3.476  53.121  1.00  0.00     0.160 HD
ENDROOT
BRANCH   1   9
HETATM    9  C5  UNL     1      24.511   3.427  50.552  1.00  0.00     0.008 C 
HETATM   10  C4  UNL     1      25.369   4.147  49.849  1.00  0.00    -0.030 C 
HETATM   11  C3  UNL     1      26.792   3.734  49.897  1.00  0.00     0.158 C 
HETATM   12  C15 UNL     1      25.155   5.341  48.997  1.00  0.00    -0.006 C 
HETATM   13  N1  UNL     1      27.439   4.939  49.430  1.00  0.00    -0.388 N 
HETATM   14  C2  UNL     1      26.514   5.790  48.769  1.00  0.00     0.016 C 
HETATM   15  H3  UNL     1      28.417   5.298  49.479  1.00  0.00     0.159 HD
HETATM   16  C1  UNL     1      26.660   6.868  48.010  1.00  0.00     0.063 C 
HETATM   17  C16 UNL     1      23.902   5.628  48.747  1.00  0.00     0.016 C 
BRANCH  17  18
HETATM   18  C17 UNL     1      23.635   6.802  47.962  1.00  0.00     0.025 C 
HETATM   19  C18 UNL     1      22.764   7.744  48.223  1.00  0.00     0.134 C 
BRANCH  19  20
HETATM   20  O3  UNL     1      21.786   8.322  48.978  1.00  0.00    -0.368 OA
HETATM   21  C19 UNL     1      21.312   7.797  50.183  1.00  0.00     0.208 C 
ENDBRANCH  19  20
ENDBRANCH  17  18
ENDBRANCH   1   9
BRANCH   5  22
HETATM   22  C10 UNL     1      23.979  -0.622  53.410  1.00  0.00     0.047 C 
BRANCH  22  23
HETATM   23  C11 UNL     1      22.503  -0.842  53.340  1.00  0.00     0.114 C 
BRANCH  23  24
HETATM   24  C12 UNL     1      22.028  -1.416  54.648  1.00  0.00     0.139 C 
HETATM   25  O1  UNL     1      22.797  -1.642  55.598  1.00  0.00    -0.650 OA
BRANCH  24  26
HETATM   26  O2  UNL     1      20.655  -1.700  54.782  1.00  0.00    -0.776 OA
HETATM   27  H16 UNL     1      20.178  -2.261  54.065  1.00  0.00     0.167 HD
ENDBRANCH  24  26
ENDBRANCH  23  24
ENDBRANCH  22  23
ENDBRANCH   5  22
TORSDOF 7
ENDMDL
MODEL 9
REMARK VINA RESULT:      -7.3      3.842      5.446
REMARK  7 active torsions:
REMARK  status: ('A' for Active; 'I' for Inactive)
REMARK    1  A    between atoms: C5_6  and  C6_7 
REMARK    2  A    between atoms: C9_11  and  C10_12 
REMARK    3  A    between atoms: C10_12  and  C11_13 
REMARK    4  A    between atoms: C11_13  and  C12_14 
REMARK    5  A    between atoms: C12_14  and  O2_16 
REMARK    6  A    between atoms: C16_20  and  C17_21 
REMARK    7  A    between atoms: C18_22  and  O3_23 
ROOT
HETATM    1  C6  UNL     1      26.031   2.123  51.218  1.00  0.00     0.113 C 
HETATM    2  N2  UNL     1      26.754   2.823  52.268  1.00  0.00    -0.385 N 
HETATM    3  C7  UNL     1      27.356   1.751  53.016  1.00  0.00     0.004 C 
HETATM    4  C8  UNL     1      28.647   1.730  53.788  1.00  0.00     0.068 C 
HETATM    5  C9  UNL     1      26.552   0.690  52.926  1.00  0.00    -0.051 C 
HETATM    6  C13 UNL     1      25.357   1.048  52.080  1.00  0.00     0.039 C 
HETATM    7  C14 UNL     1      24.327   1.637  52.986  1.00  0.00     0.017 C 
HETATM    8  H8  UNL     1      26.942   3.812  52.604  1.00  0.00     0.160 HD
ENDROOT
BRANCH   1   9
HETATM    9  C5  UNL     1      25.077   2.964  50.515  1.00  0.00     0.008 C 
HETATM   10  C4  UNL     1      25.423   3.989  49.754  1.00  0.00    -0.030 C 
HETATM   11  C3  UNL     1      26.872   4.274  49.628  1.00  0.00     0.158 C 
HETATM   12  C15 UNL     1      24.590   4.944  48.985  1.00  0.00    -0.006 C 
HETATM   13  N1  UNL     1      26.839   5.636  49.146  1.00  0.00    -0.388 N 
HETATM   14  C2  UNL     1      25.557   5.962  48.630  1.00  0.00     0.016 C 
HETATM   15  H3  UNL     1      27.545   6.403  49.104  1.00  0.00     0.159 HD
HETATM   16  C1  UNL     1      25.105   6.980  47.908  1.00  0.00     0.063 C 
HETATM   17  C16 UNL     1      23.324   4.623  48.886  1.00  0.00     0.016 C 
BRANCH  17  18
HETATM   18  C17 UNL     1      22.461   5.537  48.189  1.00  0.00     0.025 C 
HETATM   19  C18 UNL     1      21.300   5.988  48.592  1.00  0.00     0.134 C 
BRANCH  19  20
HETATM   20  O3  UNL     1      20.270   6.076  49.482  1.00  0.00    -0.368 OA
HETATM   21  C19 UNL     1      19.826   5.015  50.275  1.00  0.00     0.208 C 
ENDBRANCH  19  20
ENDBRANCH  17  18
ENDBRANCH   1   9
BRANCH   5  22
HETATM   22  C10 UNL     1      26.761  -0.628  53.532  1.00  0.00     0.047 C 
BRANCH  22  23
HETATM   23  C11 UNL     1      27.245  -1.666  52.573  1.00  0.00     0.114 C 
BRANCH  23  24
HETATM   24  C12 UNL     1      28.555  -2.219  53.065  1.00  0.00     0.139 C 
HETATM   25  O1  UNL     1      29.567  -1.513  53.212  1.00  0.00    -0.650 OA
BRANCH  24  26
HETATM   26  O2  UNL     1      28.617  -3.594  53.368  1.00  0.00    -0.776 OA
HETATM   27  H16 UNL     1      27.985  -3.989  54.075  1.00  0.00     0.167 HD
ENDBRANCH  24  26
ENDBRANCH  23  24
ENDBRANCH  22  23
ENDBRANCH   5  22
TORSDOF 7
ENDMDL
