MODEL 1
REMARK VINA RESULT:      -7.7      0.000      0.000
REMARK  5 active torsions:
REMARK  status: ('A' for Active; 'I' for Inactive)
REMARK    1  A    between atoms: C2_2  and  P1_3 
REMARK    2  A    between atoms: C2_2  and  C3_4 
REMARK    3  A    between atoms: C4_5  and  C5_6 
REMARK       I    between atoms: C5_6  and  N1_8 
REMARK    4  A    between atoms: N1_8  and  C6_9 
REMARK    5  A    between atoms: C18_24  and  N4_25 
ROOT
HETATM    1  C6  UNL     1      24.494   2.872  52.270  1.00  0.00     0.154 C 
HETATM    2  C7  UNL     1      23.602   3.464  51.415  1.00  0.00     0.011 C 
HETATM    3  C8  UNL     1      22.145   3.645  51.125  1.00  0.00     0.136 C 
HETATM    4  C9  UNL     1      21.243   3.055  51.988  1.00  0.00     0.610 C 
HETATM    5  N2  UNL     1      20.030   2.593  52.650  1.00  0.00     0.022 NA
HETATM    6  C10 UNL     1      19.700   1.286  52.353  1.00  0.00     0.262 C 
HETATM    7  C11 UNL     1      20.680   0.625  51.401  1.00  0.00     0.139 C 
HETATM    8  C12 UNL     1      22.007   0.410  51.969  1.00  0.00     0.025 C 
HETATM    9  C13 UNL     1      23.085   0.966  52.581  1.00  0.00     0.142 C 
HETATM   10  O2  UNL     1      23.436   2.282  53.014  1.00  0.00    -0.306 OA
HETATM   11  N3  UNL     1      20.591   1.349  50.177  1.00  0.00    -0.389 N 
HETATM   12  C14 UNL     1      21.113   1.355  48.853  1.00  0.00     0.080 C 
HETATM   13  C15 UNL     1      22.057   1.909  48.113  1.00  0.00    -0.004 C 
HETATM   14  C16 UNL     1      22.810   2.826  49.006  1.00  0.00     0.024 C 
HETATM   15  C17 UNL     1      23.839   3.687  48.953  1.00  0.00     0.038 C 
HETATM   16  C18 UNL     1      24.084   4.292  50.261  1.00  0.00     0.256 C 
HETATM   17  H14 UNL     1      19.936   2.200  50.112  1.00  0.00     0.159 HD
ENDROOT
BRANCH   1  18
HETATM   18  N1  UNL     1      25.685   2.475  52.861  1.00  0.00    -0.304 N 
HETATM   19  C5  UNL     1      26.976   2.432  52.319  1.00  0.00     0.247 C 
HETATM   20  O1  UNL     1      27.184   2.774  51.150  1.00  0.00    -0.268 OA
HETATM   21  H7  UNL     1      25.665   2.159  53.838  1.00  0.00     0.171 HD
BRANCH  19  22
HETATM   22  C4  UNL     1      28.054   1.977  53.174  1.00  0.00     0.075 C 
HETATM   23  C3  UNL     1      28.741   0.906  53.589  1.00  0.00     0.013 C 
BRANCH  23  24
HETATM   24  C2  UNL     1      28.877  -0.563  53.458  1.00  0.00    -0.055 C 
HETATM   25  C1  UNL     1      30.155  -1.195  53.816  1.00  0.00     0.049 C 
BRANCH  24  26
HETATM   26  P1  UNL     1      28.037  -1.955  53.017  1.00  0.00    -0.069 P 
HETATM   27  H4  UNL     1      26.801  -2.295  53.642  1.00  0.00     0.067 HD
ENDBRANCH  24  26
ENDBRANCH  23  24
ENDBRANCH  19  22
ENDBRANCH   1  18
BRANCH  16  28
HETATM   28  N4  UNL     1      23.466   5.625  50.242  1.00  0.00     0.087 N 
HETATM   29  H20 UNL     1      23.346   5.934  49.242  1.00  0.00     0.313 HD
HETATM   30  H21 UNL     1      24.203   6.287  50.636  1.00  0.00     0.313 HD
ENDBRANCH  16  28
TORSDOF 5
ENDMDL
MODEL 2
REMARK VINA RESULT:      -7.4      3.648      5.304
REMARK  5 active torsions:
REMARK  status: ('A' for Active; 'I' for Inactive)
REMARK    1  A    between atoms: C2_2  and  P1_3 
REMARK    2  A    between atoms: C2_2  and  C3_4 
REMARK    3  A    between atoms: C4_5  and  C5_6 
REMARK       I    between atoms: C5_6  and  N1_8 
REMARK    4  A    between atoms: N1_8  and  C6_9 
REMARK    5  A    between atoms: C18_24  and  N4_25 
ROOT
HETATM    1  C6  UNL     1      26.010   3.501  51.170  1.00  0.00     0.154 C 
HETATM    2  C7  UNL     1      24.953   3.350  52.028  1.00  0.00     0.011 C 
HETATM    3  C8  UNL     1      24.511   2.693  53.298  1.00  0.00     0.136 C 
HETATM    4  C9  UNL     1      25.439   1.931  53.979  1.00  0.00     0.610 C 
HETATM    5  N2  UNL     1      26.114   1.072  54.944  1.00  0.00     0.022 NA
HETATM    6  C10 UNL     1      26.196  -0.248  54.550  1.00  0.00     0.262 C 
HETATM    7  C11 UNL     1      25.562  -0.505  53.195  1.00  0.00     0.139 C 
HETATM    8  C12 UNL     1      26.267   0.117  52.080  1.00  0.00     0.025 C 
HETATM    9  C13 UNL     1      26.766   1.265  51.550  1.00  0.00     0.142 C 
HETATM   10  O2  UNL     1      26.814   2.633  51.960  1.00  0.00    -0.306 OA
HETATM   11  N3  UNL     1      24.174  -0.217  53.346  1.00  0.00    -0.389 N 
HETATM   12  C14 UNL     1      22.952  -0.236  52.616  1.00  0.00     0.080 C 
HETATM   13  C15 UNL     1      22.155   0.544  51.909  1.00  0.00    -0.004 C 
HETATM   14  C16 UNL     1      22.789   1.887  51.887  1.00  0.00     0.024 C 
HETATM   15  C17 UNL     1      22.561   3.117  51.399  1.00  0.00     0.038 C 
HETATM   16  C18 UNL     1      23.644   4.031  51.755  1.00  0.00     0.256 C 
HETATM   17  H14 UNL     1      23.809   0.141  54.292  1.00  0.00     0.159 HD
ENDROOT
BRANCH   1  18
HETATM   18  N1  UNL     1      26.782   3.909  50.092  1.00  0.00    -0.304 N 
HETATM   19  C5  UNL     1      26.792   5.138  49.420  1.00  0.00     0.247 C 
HETATM   20  O1  UNL     1      26.036   6.054  49.762  1.00  0.00    -0.268 OA
HETATM   21  H7  UNL     1      27.459   3.246  49.695  1.00  0.00     0.171 HD
BRANCH  19  22
HETATM   22  C4  UNL     1      27.718   5.298  48.316  1.00  0.00     0.075 C 
HETATM   23  C3  UNL     1      28.933   5.733  47.965  1.00  0.00     0.013 C 
BRANCH  23  24
HETATM   24  C2  UNL     1      30.182   6.354  48.464  1.00  0.00    -0.055 C 
HETATM   25  C1  UNL     1      30.229   7.810  48.651  1.00  0.00     0.049 C 
BRANCH  24  26
HETATM   26  P1  UNL     1      31.751   5.998  48.966  1.00  0.00    -0.069 P 
HETATM   27  H4  UNL     1      32.195   4.647  49.083  1.00  0.00     0.067 HD
ENDBRANCH  24  26
ENDBRANCH  23  24
ENDBRANCH  19  22
ENDBRANCH   1  18
BRANCH  16  28
HETATM   28  N4  UNL     1      23.181   4.820  52.906  1.00  0.00     0.087 N 
HETATM   29  H20 UNL     1      22.738   4.174  53.609  1.00  0.00     0.313 HD
HETATM   30  H21 UNL     1      22.372   5.409  52.540  1.00  0.00     0.313 HD
ENDBRANCH  16  28
TORSDOF 5
ENDMDL
MODEL 3
REMARK VINA RESULT:      -7.4      2.014      2.372
REMARK  5 active torsions:
REMARK  status: ('A' for Active; 'I' for Inactive)
REMARK    1  A    between atoms: C2_2  and  P1_3 
REMARK    2  A    between atoms: C2_2  and  C3_4 
REMARK    3  A    between atoms: C4_5  and  C5_6 
REMARK       I    between atoms: C5_6  and  N1_8 
REMARK    4  A    between atoms: N1_8  and  C6_9 
REMARK    5  A    between atoms: C18_24  and  N4_25 
ROOT
HETATM    1  C6  UNL     1      23.746   2.067  52.020  1.00  0.00     0.154 C 
HETATM    2  C7  UNL     1      23.187   3.311  51.888  1.00  0.00     0.011 C 
HETATM    3  C8  UNL     1      21.890   4.055  51.861  1.00  0.00     0.136 C 
HETATM    4  C9  UNL     1      20.732   3.328  52.052  1.00  0.00     0.610 C 
HETATM    5  N2  UNL     1      19.343   2.915  52.205  1.00  0.00     0.022 NA
HETATM    6  C10 UNL     1      18.796   2.367  51.062  1.00  0.00     0.262 C 
HETATM    7  C11 UNL     1      19.772   2.318  49.901  1.00  0.00     0.139 C 
HETATM    8  C12 UNL     1      20.885   1.395  50.096  1.00  0.00     0.025 C 
HETATM    9  C13 UNL     1      21.920   1.016  50.890  1.00  0.00     0.142 C 
HETATM   10  O2  UNL     1      22.461   1.468  52.133  1.00  0.00    -0.306 OA
HETATM   11  N3  UNL     1      20.082   3.673  49.587  1.00  0.00    -0.389 N 
HETATM   12  C14 UNL     1      20.837   4.453  48.666  1.00  0.00     0.080 C 
HETATM   13  C15 UNL     1      22.004   5.058  48.533  1.00  0.00    -0.004 C 
HETATM   14  C16 UNL     1      22.754   4.813  49.791  1.00  0.00     0.024 C 
HETATM   15  C17 UNL     1      23.937   5.112  50.350  1.00  0.00     0.038 C 
HETATM   16  C18 UNL     1      24.052   4.519  51.681  1.00  0.00     0.256 C 
HETATM   17  H14 UNL     1      19.654   4.464  50.178  1.00  0.00     0.159 HD
ENDROOT
BRANCH   1  18
HETATM   18  N1  UNL     1      24.684   1.049  52.104  1.00  0.00    -0.304 N 
HETATM   19  C5  UNL     1      24.784   0.006  53.034  1.00  0.00     0.247 C 
HETATM   20  O1  UNL     1      23.965  -0.105  53.953  1.00  0.00    -0.268 OA
HETATM   21  H7  UNL     1      25.434   1.014  51.403  1.00  0.00     0.171 HD
BRANCH  19  22
HETATM   22  C4  UNL     1      25.874  -0.936  52.880  1.00  0.00     0.075 C 
HETATM   23  C3  UNL     1      27.192  -1.116  53.031  1.00  0.00     0.013 C 
BRANCH  23  24
HETATM   24  C2  UNL     1      28.454  -0.473  53.465  1.00  0.00    -0.055 C 
HETATM   25  C1  UNL     1      29.703  -1.246  53.412  1.00  0.00     0.049 C 
BRANCH  24  26
HETATM   26  P1  UNL     1      29.092   0.970  54.056  1.00  0.00    -0.069 P 
HETATM   27  H4  UNL     1      30.291   1.519  53.511  1.00  0.00     0.067 HD
ENDBRANCH  24  26
ENDBRANCH  23  24
ENDBRANCH  19  22
ENDBRANCH   1  18
BRANCH  16  28
HETATM   28  N4  UNL     1      23.757   5.582  52.653  1.00  0.00     0.087 N 
HETATM   29  H20 UNL     1      24.634   5.811  53.189  1.00  0.00     0.313 HD
HETATM   30  H21 UNL     1      23.115   5.135  53.377  1.00  0.00     0.313 HD
ENDBRANCH  16  28
TORSDOF 5
ENDMDL
MODEL 4
REMARK VINA RESULT:      -7.1      8.981     11.835
REMARK  5 active torsions:
REMARK  status: ('A' for Active; 'I' for Inactive)
REMARK    1  A    between atoms: C2_2  and  P1_3 
REMARK    2  A    between atoms: C2_2  and  C3_4 
REMARK    3  A    between atoms: C4_5  and  C5_6 
REMARK       I    between atoms: C5_6  and  N1_8 
REMARK    4  A    between atoms: N1_8  and  C6_9 
REMARK    5  A    between atoms: C18_24  and  N4_25 
ROOT
HETATM    1  C6  UNL     1      31.290   6.746  47.657  1.00  0.00     0.154 C 
HETATM    2  C7  UNL     1      32.514   6.164  47.453  1.00  0.00     0.011 C 
HETATM    3  C8  UNL     1      33.942   6.445  47.108  1.00  0.00     0.136 C 
HETATM    4  C9  UNL     1      34.305   7.763  46.915  1.00  0.00     0.610 C 
HETATM    5  N2  UNL     1      35.041   8.991  46.641  1.00  0.00     0.022 NA
HETATM    6  C10 UNL     1      34.869   9.467  45.357  1.00  0.00     0.262 C 
HETATM    7  C11 UNL     1      33.948   8.599  44.519  1.00  0.00     0.139 C 
HETATM    8  C12 UNL     1      32.557   8.608  44.962  1.00  0.00     0.025 C 
HETATM    9  C13 UNL     1      31.691   8.412  45.990  1.00  0.00     0.142 C 
HETATM   10  O2  UNL     1      31.818   8.032  47.362  1.00  0.00    -0.306 OA
HETATM   11  N3  UNL     1      34.597   7.337  44.395  1.00  0.00    -0.389 N 
HETATM   12  C14 UNL     1      34.437   6.064  43.778  1.00  0.00     0.080 C 
HETATM   13  C15 UNL     1      33.993   4.843  44.022  1.00  0.00    -0.004 C 
HETATM   14  C16 UNL     1      33.499   4.844  45.422  1.00  0.00     0.024 C 
HETATM   15  C17 UNL     1      32.950   4.002  46.312  1.00  0.00     0.038 C 
HETATM   16  C18 UNL     1      32.685   4.679  47.579  1.00  0.00     0.256 C 
HETATM   17  H14 UNL     1      35.538   7.175  44.891  1.00  0.00     0.159 HD
ENDROOT
BRANCH   1  18
HETATM   18  N1  UNL     1      29.941   6.908  47.938  1.00  0.00    -0.304 N 
HETATM   19  C5  UNL     1      28.956   5.938  48.164  1.00  0.00     0.247 C 
HETATM   20  O1  UNL     1      29.231   4.734  48.124  1.00  0.00    -0.268 OA
HETATM   21  H7  UNL     1      29.565   7.862  47.999  1.00  0.00     0.171 HD
BRANCH  19  22
HETATM   22  C4  UNL     1      27.610   6.394  48.447  1.00  0.00     0.075 C 
HETATM   23  C3  UNL     1      26.390   6.015  48.844  1.00  0.00     0.013 C 
BRANCH  23  24
HETATM   24  C2  UNL     1      25.566   4.862  49.275  1.00  0.00    -0.055 C 
HETATM   25  C1  UNL     1      26.228   3.585  49.577  1.00  0.00     0.049 C 
BRANCH  24  26
HETATM   26  P1  UNL     1      23.981   4.391  49.600  1.00  0.00    -0.069 P 
HETATM   27  H4  UNL     1      23.481   3.135  49.143  1.00  0.00     0.067 HD
ENDBRANCH  24  26
ENDBRANCH  23  24
ENDBRANCH  19  22
ENDBRANCH   1  18
BRANCH  16  28
HETATM   28  N4  UNL     1      33.779   4.325  48.495  1.00  0.00     0.087 N 
HETATM   29  H20 UNL     1      34.589   3.954  47.935  1.00  0.00     0.313 HD
HETATM   30  H21 UNL     1      33.429   3.481  49.044  1.00  0.00     0.313 HD
ENDBRANCH  16  28
TORSDOF 5
ENDMDL
MODEL 5
REMARK VINA RESULT:      -7.0      3.333      4.644
REMARK  5 active torsions:
REMARK  status: ('A' for Active; 'I' for Inactive)
REMARK    1  A    between atoms: C2_2  and  P1_3 
REMARK    2  A    between atoms: C2_2  and  C3_4 
REMARK    3  A    between atoms: C4_5  and  C5_6 
REMARK       I    between atoms: C5_6  and  N1_8 
REMARK    4  A    between atoms: N1_8  and  C6_9 
REMARK    5  A    between atoms: C18_24  and  N4_25 
ROOT
HETATM    1  C6  UNL     1      24.769   4.963  50.834  1.00  0.00     0.154 C 
HETATM    2  C7  UNL     1      24.816   6.256  50.380  1.00  0.00     0.011 C 
HETATM    3  C8  UNL     1      23.994   7.483  50.146  1.00  0.00     0.136 C 
HETATM    4  C9  UNL     1      22.660   7.437  50.499  1.00  0.00     0.610 C 
HETATM    5  N2  UNL     1      21.258   7.757  50.733  1.00  0.00     0.022 NA
HETATM    6  C10 UNL     1      20.407   7.272  49.761  1.00  0.00     0.262 C 
HETATM    7  C11 UNL     1      21.130   6.510  48.664  1.00  0.00     0.139 C 
HETATM    8  C12 UNL     1      21.725   5.254  49.105  1.00  0.00     0.025 C 
HETATM    9  C13 UNL     1      22.558   4.638  49.985  1.00  0.00     0.142 C 
HETATM   10  O2  UNL     1      23.372   5.067  51.078  1.00  0.00    -0.306 OA
HETATM   11  N3  UNL     1      21.978   7.456  48.019  1.00  0.00    -0.389 N 
HETATM   12  C14 UNL     1      22.901   7.562  46.940  1.00  0.00     0.080 C 
HETATM   13  C15 UNL     1      24.194   7.514  46.673  1.00  0.00    -0.004 C 
HETATM   14  C16 UNL     1      24.882   7.252  47.963  1.00  0.00     0.024 C 
HETATM   15  C17 UNL     1      26.126   7.096  48.445  1.00  0.00     0.038 C 
HETATM   16  C18 UNL     1      26.103   6.845  49.884  1.00  0.00     0.256 C 
HETATM   17  H14 UNL     1      22.015   8.468  48.382  1.00  0.00     0.159 HD
ENDROOT
BRANCH   1  18
HETATM   18  N1  UNL     1      25.156   3.680  51.189  1.00  0.00    -0.304 N 
HETATM   19  C5  UNL     1      26.309   2.967  50.835  1.00  0.00     0.247 C 
HETATM   20  O1  UNL     1      27.164   3.471  50.098  1.00  0.00    -0.268 OA
HETATM   21  H7  UNL     1      24.537   3.133  51.802  1.00  0.00     0.171 HD
BRANCH  19  22
HETATM   22  C4  UNL     1      26.464   1.626  51.362  1.00  0.00     0.075 C 
HETATM   23  C3  UNL     1      25.894   0.673  52.109  1.00  0.00     0.013 C 
BRANCH  23  24
HETATM   24  C2  UNL     1      24.701   0.327  52.916  1.00  0.00    -0.055 C 
HETATM   25  C1  UNL     1      24.865  -0.528  54.101  1.00  0.00     0.049 C 
BRANCH  24  26
HETATM   26  P1  UNL     1      23.037   0.566  53.023  1.00  0.00    -0.069 P 
HETATM   27  H4  UNL     1      22.283   0.992  51.889  1.00  0.00     0.067 HD
ENDBRANCH  24  26
ENDBRANCH  23  24
ENDBRANCH  19  22
ENDBRANCH   1  18
BRANCH  16  28
HETATM   28  N4  UNL     1      26.419   8.118  50.548  1.00  0.00     0.087 N 
HETATM   29  H20 UNL     1      27.041   8.689  49.919  1.00  0.00     0.313 HD
HETATM   30  H21 UNL     1      27.042   7.861  51.374  1.00  0.00     0.313 HD
ENDBRANCH  16  28
TORSDOF 5
ENDMDL
MODEL 6
REMARK VINA RESULT:      -6.8      2.022      4.058
REMARK  5 active torsions:
REMARK  status: ('A' for Active; 'I' for Inactive)
REMARK    1  A    between atoms: C2_2  and  P1_3 
REMARK    2  A    between atoms: C2_2  and  C3_4 
REMARK    3  A    between atoms: C4_5  and  C5_6 
REMARK       I    between atoms: C5_6  and  N1_8 
REMARK    4  A    between atoms: N1_8  and  C6_9 
REMARK    5  A    between atoms: C18_24  and  N4_25 
ROOT
HETATM    1  C6  UNL     1      23.833   1.851  51.179  1.00  0.00     0.154 C 
HETATM    2  C7  UNL     1      22.856   2.081  50.246  1.00  0.00     0.011 C 
HETATM    3  C8  UNL     1      22.398   3.031  49.186  1.00  0.00     0.136 C 
HETATM    4  C9  UNL     1      23.186   4.137  48.935  1.00  0.00     0.610 C 
HETATM    5  N2  UNL     1      23.734   5.380  48.408  1.00  0.00     0.022 NA
HETATM    6  C10 UNL     1      23.471   6.482  49.196  1.00  0.00     0.262 C 
HETATM    7  C11 UNL     1      22.668   6.146  50.440  1.00  0.00     0.139 C 
HETATM    8  C12 UNL     1      23.388   5.328  51.410  1.00  0.00     0.025 C 
HETATM    9  C13 UNL     1      24.086   4.184  51.637  1.00  0.00     0.142 C 
HETATM   10  O2  UNL     1      24.486   3.067  50.839  1.00  0.00    -0.306 OA
HETATM   11  N3  UNL     1      21.406   5.672  49.980  1.00  0.00    -0.389 N 
HETATM   12  C14 UNL     1      20.148   5.216  50.467  1.00  0.00     0.080 C 
HETATM   13  C15 UNL     1      19.489   4.109  50.758  1.00  0.00    -0.004 C 
HETATM   14  C16 UNL     1      20.410   2.980  50.470  1.00  0.00     0.024 C 
HETATM   15  C17 UNL     1      20.426   1.638  50.512  1.00  0.00     0.038 C 
HETATM   16  C18 UNL     1      21.719   1.116  50.077  1.00  0.00     0.256 C 
HETATM   17  H14 UNL     1      21.225   5.591  48.922  1.00  0.00     0.159 HD
ENDROOT
BRANCH   1  18
HETATM   18  N1  UNL     1      24.571   1.256  52.192  1.00  0.00    -0.304 N 
HETATM   19  C5  UNL     1      24.199   0.244  53.086  1.00  0.00     0.247 C 
HETATM   20  O1  UNL     1      23.068  -0.252  53.049  1.00  0.00    -0.268 OA
HETATM   21  H7  UNL     1      25.536   1.572  52.345  1.00  0.00     0.171 HD
BRANCH  19  22
HETATM   22  C4  UNL     1      25.185  -0.201  54.051  1.00  0.00     0.075 C 
HETATM   23  C3  UNL     1      26.472  -0.131  54.409  1.00  0.00     0.013 C 
BRANCH  23  24
HETATM   24  C2  UNL     1      27.788   0.456  54.066  1.00  0.00    -0.055 C 
HETATM   25  C1  UNL     1      28.964  -0.423  53.994  1.00  0.00     0.049 C 
BRANCH  24  26
HETATM   26  P1  UNL     1      28.550   1.906  53.672  1.00  0.00    -0.069 P 
HETATM   27  H4  UNL     1      29.467   2.522  54.575  1.00  0.00     0.067 HD
ENDBRANCH  24  26
ENDBRANCH  23  24
ENDBRANCH  19  22
ENDBRANCH   1  18
BRANCH  16  28
HETATM   28  N4  UNL     1      21.563   0.688  48.679  1.00  0.00     0.087 N 
HETATM   29  H20 UNL     1      21.686  -0.356  48.623  1.00  0.00     0.313 HD
HETATM   30  H21 UNL     1      22.410   1.081  48.164  1.00  0.00     0.313 HD
ENDBRANCH  16  28
TORSDOF 5
ENDMDL
MODEL 7
REMARK VINA RESULT:      -6.7      3.059      4.587
REMARK  5 active torsions:
REMARK  status: ('A' for Active; 'I' for Inactive)
REMARK    1  A    between atoms: C2_2  and  P1_3 
REMARK    2  A    between atoms: C2_2  and  C3_4 
REMARK    3  A    between atoms: C4_5  and  C5_6 
REMARK       I    between atoms: C5_6  and  N1_8 
REMARK    4  A    between atoms: N1_8  and  C6_9 
REMARK    5  A    between atoms: C18_24  and  N4_25 
ROOT
HETATM    1  C6  UNL     1      23.819   4.672  50.822  1.00  0.00     0.154 C 
HETATM    2  C7  UNL     1      24.144   5.943  50.424  1.00  0.00     0.011 C 
HETATM    3  C8  UNL     1      23.590   7.310  50.176  1.00  0.00     0.136 C 
HETATM    4  C9  UNL     1      22.246   7.509  50.424  1.00  0.00     0.610 C 
HETATM    5  N2  UNL     1      20.915   8.085  50.562  1.00  0.00     0.022 NA
HETATM    6  C10 UNL     1      20.071   7.794  49.509  1.00  0.00     0.262 C 
HETATM    7  C11 UNL     1      20.726   6.935  48.442  1.00  0.00     0.139 C 
HETATM    8  C12 UNL     1      21.037   5.578  48.878  1.00  0.00     0.025 C 
HETATM    9  C13 UNL     1      21.664   4.794  49.794  1.00  0.00     0.142 C 
HETATM   10  O2  UNL     1      22.451   5.034  50.963  1.00  0.00    -0.306 OA
HETATM   11  N3  UNL     1      21.787   7.717  47.901  1.00  0.00    -0.389 N 
HETATM   12  C14 UNL     1      22.799   7.672  46.901  1.00  0.00     0.080 C 
HETATM   13  C15 UNL     1      24.078   7.384  46.733  1.00  0.00    -0.004 C 
HETATM   14  C16 UNL     1      24.596   6.966  48.060  1.00  0.00     0.024 C 
HETATM   15  C17 UNL     1      25.744   6.564  48.629  1.00  0.00     0.038 C 
HETATM   16  C18 UNL     1      25.556   6.288  50.051  1.00  0.00     0.256 C 
HETATM   17  H14 UNL     1      21.983   8.695  48.306  1.00  0.00     0.159 HD
ENDROOT
BRANCH   1  18
HETATM   18  N1  UNL     1      23.927   3.331  51.156  1.00  0.00    -0.304 N 
HETATM   19  C5  UNL     1      24.159   2.740  52.405  1.00  0.00     0.247 C 
HETATM   20  O1  UNL     1      24.307   3.434  53.417  1.00  0.00    -0.268 OA
HETATM   21  H7  UNL     1      23.828   2.631  50.410  1.00  0.00     0.171 HD
BRANCH  19  22
HETATM   22  C4  UNL     1      24.217   1.293  52.468  1.00  0.00     0.075 C 
HETATM   23  C3  UNL     1      24.989   0.244  52.773  1.00  0.00     0.013 C 
BRANCH  23  24
HETATM   24  C2  UNL     1      26.325  -0.168  53.261  1.00  0.00    -0.055 C 
HETATM   25  C1  UNL     1      26.935  -1.393  52.724  1.00  0.00     0.049 C 
BRANCH  24  26
HETATM   26  P1  UNL     1      27.568   0.277  54.308  1.00  0.00    -0.069 P 
HETATM   27  H4  UNL     1      28.907  -0.167  54.089  1.00  0.00     0.067 HD
ENDBRANCH  24  26
ENDBRANCH  23  24
ENDBRANCH  19  22
ENDBRANCH   1  18
BRANCH  16  28
HETATM   28  N4  UNL     1      26.049   7.462  50.787  1.00  0.00     0.087 N 
HETATM   29  H20 UNL     1      26.906   7.189  51.334  1.00  0.00     0.313 HD
HETATM   30  H21 UNL     1      25.313   7.662  51.531  1.00  0.00     0.313 HD
ENDBRANCH  16  28
TORSDOF 5
ENDMDL
MODEL 8
REMARK VINA RESULT:      -6.7      2.350      4.488
REMARK  5 active torsions:
REMARK  status: ('A' for Active; 'I' for Inactive)
REMARK    1  A    between atoms: C2_2  and  P1_3 
REMARK    2  A    between atoms: C2_2  and  C3_4 
REMARK    3  A    between atoms: C4_5  and  C5_6 
REMARK       I    between atoms: C5_6  and  N1_8 
REMARK    4  A    between atoms: N1_8  and  C6_9 
REMARK    5  A    between atoms: C18_24  and  N4_25 
ROOT
HETATM    1  C6  UNL     1      24.598   3.761  50.646  1.00  0.00     0.154 C 
HETATM    2  C7  UNL     1      23.674   3.852  49.639  1.00  0.00     0.011 C 
HETATM    3  C8  UNL     1      23.156   4.739  48.551  1.00  0.00     0.136 C 
HETATM    4  C9  UNL     1      23.775   5.960  48.374  1.00  0.00     0.610 C 
HETATM    5  N2  UNL     1      24.157   7.285  47.902  1.00  0.00     0.022 NA
HETATM    6  C10 UNL     1      23.660   8.315  48.674  1.00  0.00     0.262 C 
HETATM    7  C11 UNL     1      22.825   7.830  49.846  1.00  0.00     0.139 C 
HETATM    8  C12 UNL     1      23.587   7.118  50.866  1.00  0.00     0.025 C 
HETATM    9  C13 UNL     1      24.438   6.095  51.140  1.00  0.00     0.142 C 
HETATM   10  O2  UNL     1      25.073   5.072  50.369  1.00  0.00    -0.306 OA
HETATM   11  N3  UNL     1      21.695   7.172  49.281  1.00  0.00    -0.389 N 
HETATM   12  C14 UNL     1      20.491   6.513  49.661  1.00  0.00     0.080 C 
HETATM   13  C15 UNL     1      19.996   5.309  49.889  1.00  0.00    -0.004 C 
HETATM   14  C16 UNL     1      21.106   4.347  49.669  1.00  0.00     0.024 C 
HETATM   15  C17 UNL     1      21.333   3.024  49.702  1.00  0.00     0.038 C 
HETATM   16  C18 UNL     1      22.723   2.722  49.370  1.00  0.00     0.256 C 
HETATM   17  H14 UNL     1      21.613   7.084  48.212  1.00  0.00     0.159 HD
ENDROOT
BRANCH   1  18
HETATM   18  N1  UNL     1      25.339   3.270  51.711  1.00  0.00    -0.304 N 
HETATM   19  C5  UNL     1      24.922   2.499  52.804  1.00  0.00     0.247 C 
HETATM   20  O1  UNL     1      23.740   2.160  52.928  1.00  0.00    -0.268 OA
HETATM   21  H7  UNL     1      26.345   3.477  51.745  1.00  0.00     0.171 HD
BRANCH  19  22
HETATM   22  C4  UNL     1      25.922   2.113  53.780  1.00  0.00     0.075 C 
HETATM   23  C3  UNL     1      26.903   1.244  54.053  1.00  0.00     0.013 C 
BRANCH  23  24
HETATM   24  C2  UNL     1      27.650   0.071  53.545  1.00  0.00    -0.055 C 
HETATM   25  C1  UNL     1      26.978  -0.863  52.631  1.00  0.00     0.049 C 
BRANCH  24  26
HETATM   26  P1  UNL     1      29.149  -0.696  53.608  1.00  0.00    -0.069 P 
HETATM   27  H4  UNL     1      29.243  -2.116  53.706  1.00  0.00     0.067 HD
ENDBRANCH  24  26
ENDBRANCH  23  24
ENDBRANCH  19  22
ENDBRANCH   1  18
BRANCH  16  28
HETATM   28  N4  UNL     1      22.749   2.303  47.961  1.00  0.00     0.087 N 
HETATM   29  H20 UNL     1      22.080   1.502  47.829  1.00  0.00     0.313 HD
HETATM   30  H21 UNL     1      23.712   1.872  47.809  1.00  0.00     0.313 HD
ENDBRANCH  16  28
TORSDOF 5
ENDMDL
MODEL 9
REMARK VINA RESULT:      -6.6      7.523     10.083
REMARK  5 active torsions:
REMARK  status: ('A' for Active; 'I' for Inactive)
REMARK    1  A    between atoms: C2_2  and  P1_3 
REMARK    2  A    between atoms: C2_2  and  C3_4 
REMARK    3  A    between atoms: C4_5  and  C5_6 
REMARK       I    between atoms: C5_6  and  N1_8 
REMARK    4  A    between atoms: N1_8  and  C6_9 
REMARK    5  A    between atoms: C18_24  and  N4_25 
ROOT
HETATM    1  C6  UNL     1      28.176   8.443  49.021  1.00  0.00     0.154 C 
HETATM    2  C7  UNL     1      28.973   9.557  49.049  1.00  0.00     0.011 C 
HETATM    3  C8  UNL     1      28.975  11.045  48.898  1.00  0.00     0.136 C 
HETATM    4  C9  UNL     1      27.765  11.664  48.653  1.00  0.00     0.610 C 
HETATM    5  N2  UNL     1      26.715  12.640  48.391  1.00  0.00     0.022 NA
HETATM    6  C10 UNL     1      26.357  12.728  47.061  1.00  0.00     0.262 C 
HETATM    7  C11 UNL     1      27.142  11.782  46.170  1.00  0.00     0.139 C 
HETATM    8  C12 UNL     1      26.852  10.370  46.399  1.00  0.00     0.025 C 
HETATM    9  C13 UNL     1      26.789   9.356  47.301  1.00  0.00     0.142 C 
HETATM   10  O2  UNL     1      27.035   9.230  48.703  1.00  0.00    -0.306 OA
HETATM   11  N3  UNL     1      28.501  12.202  46.247  1.00  0.00    -0.389 N 
HETATM   12  C14 UNL     1      29.788  11.895  45.720  1.00  0.00     0.080 C 
HETATM   13  C15 UNL     1      30.883  11.210  45.994  1.00  0.00    -0.004 C 
HETATM   14  C16 UNL     1      30.650  10.543  47.301  1.00  0.00     0.024 C 
HETATM   15  C17 UNL     1      31.288   9.739  48.167  1.00  0.00     0.038 C 
HETATM   16  C18 UNL     1      30.444   9.437  49.320  1.00  0.00     0.256 C 
HETATM   17  H14 UNL     1      28.765  13.024  46.889  1.00  0.00     0.159 HD
ENDROOT
BRANCH   1  18
HETATM   18  N1  UNL     1      27.759   7.121  49.084  1.00  0.00    -0.304 N 
HETATM   19  C5  UNL     1      28.277   5.993  48.435  1.00  0.00     0.247 C 
HETATM   20  O1  UNL     1      29.243   6.090  47.669  1.00  0.00    -0.268 OA
HETATM   21  H7  UNL     1      26.958   6.888  49.684  1.00  0.00     0.171 HD
BRANCH  19  22
HETATM   22  C4  UNL     1      27.645   4.715  48.692  1.00  0.00     0.075 C 
HETATM   23  C3  UNL     1      26.565   4.114  49.205  1.00  0.00     0.013 C 
BRANCH  23  24
HETATM   24  C2  UNL     1      25.261   4.341  49.869  1.00  0.00    -0.055 C 
HETATM   25  C1  UNL     1      24.331   3.213  50.022  1.00  0.00     0.049 C 
BRANCH  24  26
HETATM   26  P1  UNL     1      24.320   5.527  50.611  1.00  0.00    -0.069 P 
HETATM   27  H4  UNL     1      23.746   5.308  51.899  1.00  0.00     0.067 HD
ENDBRANCH  24  26
ENDBRANCH  23  24
ENDBRANCH  19  22
ENDBRANCH   1  18
BRANCH  16  28
HETATM   28  N4  UNL     1      30.877  10.318  50.414  1.00  0.00     0.087 N 
HETATM   29  H20 UNL     1      30.144  11.058  50.569  1.00  0.00     0.313 HD
HETATM   30  H21 UNL     1      31.716  10.853  50.034  1.00  0.00     0.313 HD
ENDBRANCH  16  28
TORSDOF 5
ENDMDL
