MODEL 1
REMARK VINA RESULT:      -7.3      0.000      0.000
REMARK  7 active torsions:
REMARK  status: ('A' for Active; 'I' for Inactive)
REMARK    1  A    between atoms: C7_7  and  N1_8 
REMARK    2  A    between atoms: N1_8  and  C8_9 
REMARK    3  A    between atoms: C15_19  and  O2_20 
REMARK    4  A    between atoms: O2_20  and  C16_21 
REMARK    5  A    between atoms: C16_21  and  C17_22 
REMARK    6  A    between atoms: C17_22  and  O3_23 
REMARK    7  A    between atoms: C19_25  and  O4_26 
ROOT
HETATM    1  C1  UNL     1      25.822  -0.394  53.089  1.00  0.00     0.018 C 
HETATM    2  C2  UNL     1      24.636  -0.332  53.304  1.00  0.00    -0.078 C 
HETATM    3  C3  UNL     1      23.211  -0.256  53.589  1.00  0.00     0.019 A 
HETATM    4  C4  UNL     1      22.522  -1.247  54.259  1.00  0.00     0.021 A 
HETATM    5  C5  UNL     1      21.167  -1.116  54.498  1.00  0.00     0.004 A 
HETATM    6  C6  UNL     1      20.574   0.041  54.032  1.00  0.00     0.029 A 
HETATM    7  C7  UNL     1      21.171   1.081  53.358  1.00  0.00     0.034 A 
HETATM    8  C21 UNL     1      22.522   0.876  53.157  1.00  0.00     0.050 A 
ENDROOT
BRANCH   7   9
HETATM    9  N1  UNL     1      20.561   2.243  52.898  1.00  0.00    -0.343 N 
HETATM   10  H5  UNL     1      19.754   2.643  53.471  1.00  0.00     0.167 HD
BRANCH   9  11
HETATM   11  C8  UNL     1      20.959   2.941  51.696  1.00  0.00     0.129 C 
HETATM   12  N2  UNL     1      20.652   2.299  50.628  1.00  0.00    -0.226 NA
HETATM   13  C9  UNL     1      20.833   2.572  49.288  1.00  0.00     0.235 C 
HETATM   14  N3  UNL     1      21.666   3.143  48.428  1.00  0.00    -0.239 NA
HETATM   15  C10 UNL     1      22.833   3.707  49.069  1.00  0.00     0.091 C 
HETATM   16  C11 UNL     1      23.486   2.805  49.773  1.00  0.00     0.021 C 
HETATM   17  C19 UNL     1      23.530   4.999  49.241  1.00  0.00     0.126 C 
HETATM   18  C12 UNL     1      24.419   3.528  50.684  1.00  0.00     0.094 C 
HETATM   19  C13 UNL     1      23.897   3.502  52.086  1.00  0.00     0.183 C 
HETATM   20  C15 UNL     1      24.567   4.839  50.044  1.00  0.00     0.091 C 
HETATM   21  O1  UNL     1      22.864   4.249  52.444  1.00  0.00    -0.383 OA
HETATM   22  C14 UNL     1      21.658   4.269  51.898  1.00  0.00     0.246 C 
BRANCH  20  23
HETATM   23  O2  UNL     1      25.456   5.930  50.036  1.00  0.00    -0.350 OA
BRANCH  23  24
HETATM   24  C16 UNL     1      26.478   6.074  49.070  1.00  0.00     0.201 C 
BRANCH  24  25
HETATM   25  C17 UNL     1      27.130   4.745  48.854  1.00  0.00     0.193 C 
BRANCH  25  26
HETATM   26  O3  UNL     1      28.479   4.910  48.626  1.00  0.00    -0.394 OA
HETATM   27  C18 UNL     1      28.840   6.112  48.071  1.00  0.00     0.201 C 
ENDBRANCH  25  26
ENDBRANCH  24  25
ENDBRANCH  23  24
ENDBRANCH  20  23
BRANCH  17  28
HETATM   28  O4  UNL     1      22.949   6.066  48.536  1.00  0.00    -0.351 OA
HETATM   29  C20 UNL     1      22.992   6.221  47.154  1.00  0.00     0.210 C 
ENDBRANCH  17  28
ENDBRANCH   9  11
ENDBRANCH   7   9
TORSDOF 7
ENDMDL
MODEL 2
REMARK VINA RESULT:      -7.2      1.517      2.255
REMARK  7 active torsions:
REMARK  status: ('A' for Active; 'I' for Inactive)
REMARK    1  A    between atoms: C7_7  and  N1_8 
REMARK    2  A    between atoms: N1_8  and  C8_9 
REMARK    3  A    between atoms: C15_19  and  O2_20 
REMARK    4  A    between atoms: O2_20  and  C16_21 
REMARK    5  A    between atoms: C16_21  and  C17_22 
REMARK    6  A    between atoms: C17_22  and  O3_23 
REMARK    7  A    between atoms: C19_25  and  O4_26 
ROOT
HETATM    1  C1  UNL     1      26.179  -0.274  52.737  1.00  0.00     0.018 C 
HETATM    2  C2  UNL     1      25.022  -0.224  53.074  1.00  0.00    -0.078 C 
HETATM    3  C3  UNL     1      23.633  -0.154  53.504  1.00  0.00     0.019 A 
HETATM    4  C4  UNL     1      23.116  -0.939  54.514  1.00  0.00     0.021 A 
HETATM    5  C5  UNL     1      21.787  -0.825  54.876  1.00  0.00     0.004 A 
HETATM    6  C6  UNL     1      21.041   0.101  54.176  1.00  0.00     0.029 A 
HETATM    7  C7  UNL     1      21.461   0.927  53.159  1.00  0.00     0.034 A 
HETATM    8  C21 UNL     1      22.798   0.754  52.856  1.00  0.00     0.050 A 
ENDROOT
BRANCH   7   9
HETATM    9  N1  UNL     1      20.699   1.860  52.465  1.00  0.00    -0.343 N 
HETATM   10  H5  UNL     1      19.793   2.200  52.918  1.00  0.00     0.167 HD
BRANCH   9  11
HETATM   11  C8  UNL     1      21.062   2.398  51.173  1.00  0.00     0.129 C 
HETATM   12  N2  UNL     1      21.071   1.505  50.251  1.00  0.00    -0.226 NA
HETATM   13  C9  UNL     1      21.352   1.556  48.902  1.00  0.00     0.235 C 
HETATM   14  N3  UNL     1      22.121   2.160  48.005  1.00  0.00    -0.239 NA
HETATM   15  C10 UNL     1      23.011   3.134  48.593  1.00  0.00     0.091 C 
HETATM   16  C11 UNL     1      23.772   2.598  49.525  1.00  0.00     0.021 C 
HETATM   17  C19 UNL     1      23.330   4.576  48.531  1.00  0.00     0.126 C 
HETATM   18  C12 UNL     1      24.363   3.709  50.324  1.00  0.00     0.094 C 
HETATM   19  C13 UNL     1      23.685   3.808  51.654  1.00  0.00     0.183 C 
HETATM   20  C15 UNL     1      24.258   4.863  49.426  1.00  0.00     0.091 C 
HETATM   21  O1  UNL     1      22.458   4.296  51.760  1.00  0.00    -0.383 OA
HETATM   22  C14 UNL     1      21.370   3.880  51.133  1.00  0.00     0.246 C 
BRANCH  20  23
HETATM   23  O2  UNL     1      24.835   6.135  49.247  1.00  0.00    -0.350 OA
BRANCH  23  24
HETATM   24  C16 UNL     1      25.202   6.965  50.333  1.00  0.00     0.201 C 
BRANCH  24  25
HETATM   25  C17 UNL     1      23.963   7.395  51.052  1.00  0.00     0.193 C 
BRANCH  25  26
HETATM   26  O3  UNL     1      23.090   7.997  50.173  1.00  0.00    -0.394 OA
HETATM   27  C18 UNL     1      21.764   7.695  50.358  1.00  0.00     0.201 C 
ENDBRANCH  25  26
ENDBRANCH  24  25
ENDBRANCH  23  24
ENDBRANCH  20  23
BRANCH  17  28
HETATM   28  O4  UNL     1      22.597   5.288  47.568  1.00  0.00    -0.351 OA
HETATM   29  C20 UNL     1      21.208   5.368  47.526  1.00  0.00     0.210 C 
ENDBRANCH  17  28
ENDBRANCH   9  11
ENDBRANCH   7   9
TORSDOF 7
ENDMDL
MODEL 3
REMARK VINA RESULT:      -7.2      2.705      5.120
REMARK  7 active torsions:
REMARK  status: ('A' for Active; 'I' for Inactive)
REMARK    1  A    between atoms: C7_7  and  N1_8 
REMARK    2  A    between atoms: N1_8  and  C8_9 
REMARK    3  A    between atoms: C15_19  and  O2_20 
REMARK    4  A    between atoms: O2_20  and  C16_21 
REMARK    5  A    between atoms: C16_21  and  C17_22 
REMARK    6  A    between atoms: C17_22  and  O3_23 
REMARK    7  A    between atoms: C19_25  and  O4_26 
ROOT
HETATM    1  C1  UNL     1      22.655  -1.205  54.922  1.00  0.00     0.018 C 
HETATM    2  C2  UNL     1      23.542  -0.725  54.259  1.00  0.00    -0.078 C 
HETATM    3  C3  UNL     1      24.603  -0.161  53.439  1.00  0.00     0.019 A 
HETATM    4  C4  UNL     1      25.658  -0.907  52.952  1.00  0.00     0.021 A 
HETATM    5  C5  UNL     1      26.636  -0.311  52.178  1.00  0.00     0.004 A 
HETATM    6  C6  UNL     1      26.485   1.040  51.938  1.00  0.00     0.029 A 
HETATM    7  C7  UNL     1      25.476   1.867  52.375  1.00  0.00     0.034 A 
HETATM    8  C21 UNL     1      24.539   1.199  53.140  1.00  0.00     0.050 A 
ENDROOT
BRANCH   7   9
HETATM    9  N1  UNL     1      25.334   3.226  52.120  1.00  0.00    -0.343 N 
HETATM   10  H5  UNL     1      25.757   3.912  52.822  1.00  0.00     0.167 HD
BRANCH   9  11
HETATM   11  C8  UNL     1      24.654   3.763  50.963  1.00  0.00     0.129 C 
HETATM   12  N2  UNL     1      25.370   4.613  50.320  1.00  0.00    -0.226 NA
HETATM   13  C9  UNL     1      25.140   5.361  49.184  1.00  0.00     0.235 C 
HETATM   14  N3  UNL     1      24.191   6.004  48.517  1.00  0.00    -0.239 NA
HETATM   15  C10 UNL     1      22.901   5.928  49.163  1.00  0.00     0.091 C 
HETATM   16  C11 UNL     1      22.947   6.384  50.398  1.00  0.00     0.021 C 
HETATM   17  C19 UNL     1      21.523   5.455  48.913  1.00  0.00     0.126 C 
HETATM   18  C12 UNL     1      21.714   5.925  51.099  1.00  0.00     0.094 C 
HETATM   19  C13 UNL     1      22.039   4.810  52.041  1.00  0.00     0.183 C 
HETATM   20  C15 UNL     1      20.791   5.631  49.999  1.00  0.00     0.091 C 
HETATM   21  O1  UNL     1      22.315   3.595  51.592  1.00  0.00    -0.383 OA
HETATM   22  C14 UNL     1      23.249   3.253  50.720  1.00  0.00     0.246 C 
BRANCH  20  23
HETATM   23  O2  UNL     1      19.409   5.488  49.772  1.00  0.00    -0.350 OA
BRANCH  23  24
HETATM   24  C16 UNL     1      18.753   4.236  49.827  1.00  0.00     0.201 C 
BRANCH  24  25
HETATM   25  C17 UNL     1      18.046   4.118  51.140  1.00  0.00     0.193 C 
BRANCH  25  26
HETATM   26  O3  UNL     1      18.851   3.474  52.054  1.00  0.00    -0.394 OA
HETATM   27  C18 UNL     1      19.095   2.148  51.795  1.00  0.00     0.201 C 
ENDBRANCH  25  26
ENDBRANCH  24  25
ENDBRANCH  23  24
ENDBRANCH  20  23
BRANCH  17  28
HETATM   28  O4  UNL     1      21.314   4.943  47.622  1.00  0.00    -0.351 OA
HETATM   29  C20 UNL     1      21.572   3.631  47.237  1.00  0.00     0.210 C 
ENDBRANCH  17  28
ENDBRANCH   9  11
ENDBRANCH   7   9
TORSDOF 7
ENDMDL
MODEL 4
REMARK VINA RESULT:      -7.1      8.019     10.996
REMARK  7 active torsions:
REMARK  status: ('A' for Active; 'I' for Inactive)
REMARK    1  A    between atoms: C7_7  and  N1_8 
REMARK    2  A    between atoms: N1_8  and  C8_9 
REMARK    3  A    between atoms: C15_19  and  O2_20 
REMARK    4  A    between atoms: O2_20  and  C16_21 
REMARK    5  A    between atoms: C16_21  and  C17_22 
REMARK    6  A    between atoms: C17_22  and  O3_23 
REMARK    7  A    between atoms: C19_25  and  O4_26 
ROOT
HETATM    1  C1  UNL     1      32.824   6.280  43.120  1.00  0.00     0.018 C 
HETATM    2  C2  UNL     1      33.221   5.671  44.083  1.00  0.00    -0.078 C 
HETATM    3  C3  UNL     1      33.724   4.949  45.243  1.00  0.00     0.019 A 
HETATM    4  C4  UNL     1      34.708   3.985  45.162  1.00  0.00     0.021 A 
HETATM    5  C5  UNL     1      35.142   3.334  46.301  1.00  0.00     0.004 A 
HETATM    6  C6  UNL     1      34.539   3.707  47.485  1.00  0.00     0.029 A 
HETATM    7  C7  UNL     1      33.555   4.651  47.669  1.00  0.00     0.034 A 
HETATM    8  C21 UNL     1      33.175   5.256  46.486  1.00  0.00     0.050 A 
ENDROOT
BRANCH   7   9
HETATM    9  N1  UNL     1      32.959   5.021  48.869  1.00  0.00    -0.343 N 
HETATM   10  H5  UNL     1      33.448   4.738  49.776  1.00  0.00     0.167 HD
BRANCH   9  11
HETATM   11  C8  UNL     1      31.724   5.766  48.961  1.00  0.00     0.129 C 
HETATM   12  N2  UNL     1      30.747   5.175  48.373  1.00  0.00    -0.226 NA
HETATM   13  C9  UNL     1      29.418   5.506  48.206  1.00  0.00     0.235 C 
HETATM   14  N3  UNL     1      28.598   6.534  48.033  1.00  0.00    -0.239 NA
HETATM   15  C10 UNL     1      29.289   7.803  48.000  1.00  0.00     0.091 C 
HETATM   16  C11 UNL     1      30.219   7.827  47.066  1.00  0.00     0.021 C 
HETATM   17  C19 UNL     1      29.337   9.098  48.710  1.00  0.00     0.126 C 
HETATM   18  C12 UNL     1      31.115   8.984  47.347  1.00  0.00     0.094 C 
HETATM   19  C13 UNL     1      32.416   8.507  47.911  1.00  0.00     0.183 C 
HETATM   20  C15 UNL     1      30.291   9.852  48.193  1.00  0.00     0.091 C 
HETATM   21  O1  UNL     1      32.497   8.059  49.155  1.00  0.00    -0.383 OA
HETATM   22  C14 UNL     1      31.794   7.082  49.706  1.00  0.00     0.246 C 
BRANCH  20  23
HETATM   23  O2  UNL     1      30.222  11.199  48.597  1.00  0.00    -0.350 OA
BRANCH  23  24
HETATM   24  C16 UNL     1      29.320  12.123  48.020  1.00  0.00     0.201 C 
BRANCH  24  25
HETATM   25  C17 UNL     1      28.685  12.924  49.112  1.00  0.00     0.193 C 
BRANCH  25  26
HETATM   26  O3  UNL     1      27.651  13.681  48.604  1.00  0.00    -0.394 OA
HETATM   27  C18 UNL     1      26.611  12.969  48.062  1.00  0.00     0.201 C 
ENDBRANCH  25  26
ENDBRANCH  24  25
ENDBRANCH  23  24
ENDBRANCH  20  23
BRANCH  17  28
HETATM   28  O4  UNL     1      28.389   9.227  49.738  1.00  0.00    -0.351 OA
HETATM   29  C20 UNL     1      27.041   9.518  49.544  1.00  0.00     0.210 C 
ENDBRANCH  17  28
ENDBRANCH   9  11
ENDBRANCH   7   9
TORSDOF 7
ENDMDL
MODEL 5
REMARK VINA RESULT:      -7.0      7.877     10.360
REMARK  7 active torsions:
REMARK  status: ('A' for Active; 'I' for Inactive)
REMARK    1  A    between atoms: C7_7  and  N1_8 
REMARK    2  A    between atoms: N1_8  and  C8_9 
REMARK    3  A    between atoms: C15_19  and  O2_20 
REMARK    4  A    between atoms: O2_20  and  C16_21 
REMARK    5  A    between atoms: C16_21  and  C17_22 
REMARK    6  A    between atoms: C17_22  and  O3_23 
REMARK    7  A    between atoms: C19_25  and  O4_26 
ROOT
HETATM    1  C1  UNL     1      32.015   0.263  46.678  1.00  0.00     0.018 C 
HETATM    2  C2  UNL     1      32.520   1.347  46.832  1.00  0.00    -0.078 C 
HETATM    3  C3  UNL     1      33.122   2.663  46.992  1.00  0.00     0.019 A 
HETATM    4  C4  UNL     1      34.215   3.086  46.263  1.00  0.00     0.021 A 
HETATM    5  C5  UNL     1      34.741   4.349  46.463  1.00  0.00     0.004 A 
HETATM    6  C6  UNL     1      34.113   5.128  47.414  1.00  0.00     0.029 A 
HETATM    7  C7  UNL     1      33.025   4.799  48.188  1.00  0.00     0.034 A 
HETATM    8  C21 UNL     1      32.558   3.525  47.931  1.00  0.00     0.050 A 
ENDROOT
BRANCH   7   9
HETATM    9  N1  UNL     1      32.399   5.597  49.140  1.00  0.00    -0.343 N 
HETATM   10  H5  UNL     1      32.840   5.652  50.111  1.00  0.00     0.167 HD
BRANCH   9  11
HETATM   11  C8  UNL     1      31.195   6.356  48.890  1.00  0.00     0.129 C 
HETATM   12  N2  UNL     1      30.174   5.607  48.677  1.00  0.00    -0.226 NA
HETATM   13  C9  UNL     1      28.852   5.884  48.401  1.00  0.00     0.235 C 
HETATM   14  N3  UNL     1      28.061   6.745  47.775  1.00  0.00    -0.239 NA
HETATM   15  C10 UNL     1      28.792   7.809  47.125  1.00  0.00     0.091 C 
HETATM   16  C11 UNL     1      29.682   7.339  46.274  1.00  0.00     0.021 C 
HETATM   17  C19 UNL     1      28.914   9.282  47.129  1.00  0.00     0.126 C 
HETATM   18  C12 UNL     1      30.628   8.444  45.948  1.00  0.00     0.094 C 
HETATM   19  C13 UNL     1      31.934   8.229  46.644  1.00  0.00     0.183 C 
HETATM   20  C15 UNL     1      29.870   9.650  46.294  1.00  0.00     0.091 C 
HETATM   21  O1  UNL     1      32.053   8.424  47.949  1.00  0.00    -0.383 OA
HETATM   22  C14 UNL     1      31.341   7.863  48.914  1.00  0.00     0.246 C 
BRANCH  20  23
HETATM   23  O2  UNL     1      29.864  11.028  46.008  1.00  0.00    -0.350 OA
BRANCH  23  24
HETATM   24  C16 UNL     1      30.592  11.969  46.773  1.00  0.00     0.201 C 
BRANCH  24  25
HETATM   25  C17 UNL     1      29.643  12.991  47.313  1.00  0.00     0.193 C 
BRANCH  25  26
HETATM   26  O3  UNL     1      29.779  13.087  48.681  1.00  0.00    -0.394 OA
HETATM   27  C18 UNL     1      30.721  12.261  49.240  1.00  0.00     0.201 C 
ENDBRANCH  25  26
ENDBRANCH  24  25
ENDBRANCH  23  24
ENDBRANCH  20  23
BRANCH  17  28
HETATM   28  O4  UNL     1      28.015   9.932  47.990  1.00  0.00    -0.351 OA
HETATM   29  C20 UNL     1      28.060   9.867  49.380  1.00  0.00     0.210 C 
ENDBRANCH  17  28
ENDBRANCH   9  11
ENDBRANCH   7   9
TORSDOF 7
ENDMDL
MODEL 6
REMARK VINA RESULT:      -6.9      3.015      7.604
REMARK  7 active torsions:
REMARK  status: ('A' for Active; 'I' for Inactive)
REMARK    1  A    between atoms: C7_7  and  N1_8 
REMARK    2  A    between atoms: N1_8  and  C8_9 
REMARK    3  A    between atoms: C15_19  and  O2_20 
REMARK    4  A    between atoms: O2_20  and  C16_21 
REMARK    5  A    between atoms: C16_21  and  C17_22 
REMARK    6  A    between atoms: C17_22  and  O3_23 
REMARK    7  A    between atoms: C19_25  and  O4_26 
ROOT
HETATM    1  C1  UNL     1      27.103   8.632  44.934  1.00  0.00     0.018 C 
HETATM    2  C2  UNL     1      26.880   8.469  46.109  1.00  0.00    -0.078 C 
HETATM    3  C3  UNL     1      26.586   8.280  47.522  1.00  0.00     0.019 A 
HETATM    4  C4  UNL     1      26.260   9.319  48.370  1.00  0.00     0.021 A 
HETATM    5  C5  UNL     1      25.992   9.073  49.703  1.00  0.00     0.004 A 
HETATM    6  C6  UNL     1      26.073   7.756  50.109  1.00  0.00     0.029 A 
HETATM    7  C7  UNL     1      26.388   6.656  49.346  1.00  0.00     0.034 A 
HETATM    8  C21 UNL     1      26.642   6.983  48.028  1.00  0.00     0.050 A 
ENDROOT
BRANCH   7   9
HETATM    9  N1  UNL     1      26.460   5.333  49.768  1.00  0.00    -0.343 N 
HETATM   10  H5  UNL     1      27.426   4.883  49.830  1.00  0.00     0.167 HD
BRANCH   9  11
HETATM   11  C8  UNL     1      25.309   4.538  50.130  1.00  0.00     0.129 C 
HETATM   12  N2  UNL     1      24.302   5.256  50.476  1.00  0.00    -0.226 NA
HETATM   13  C9  UNL     1      23.025   4.939  50.890  1.00  0.00     0.235 C 
HETATM   14  N3  UNL     1      22.330   4.043  51.578  1.00  0.00    -0.239 NA
HETATM   15  C10 UNL     1      23.153   2.983  52.114  1.00  0.00     0.091 C 
HETATM   16  C11 UNL     1      24.122   3.455  52.872  1.00  0.00     0.021 C 
HETATM   17  C19 UNL     1      23.306   1.514  52.057  1.00  0.00     0.126 C 
HETATM   18  C12 UNL     1      25.123   2.367  53.061  1.00  0.00     0.094 C 
HETATM   19  C13 UNL     1      26.338   2.632  52.229  1.00  0.00     0.183 C 
HETATM   20  C15 UNL     1      24.358   1.151  52.769  1.00  0.00     0.091 C 
HETATM   21  O1  UNL     1      26.314   2.471  50.914  1.00  0.00    -0.383 OA
HETATM   22  C14 UNL     1      25.486   3.036  50.050  1.00  0.00     0.246 C 
BRANCH  20  23
HETATM   23  O2  UNL     1      24.415  -0.234  53.018  1.00  0.00    -0.350 OA
BRANCH  23  24
HETATM   24  C16 UNL     1      25.389  -0.817  53.862  1.00  0.00     0.201 C 
BRANCH  24  25
HETATM   25  C17 UNL     1      26.613  -1.114  53.056  1.00  0.00     0.193 C 
BRANCH  25  26
HETATM   26  O3  UNL     1      27.742  -0.942  53.827  1.00  0.00    -0.394 OA
HETATM   27  C18 UNL     1      27.703   0.115  54.701  1.00  0.00     0.201 C 
ENDBRANCH  25  26
ENDBRANCH  24  25
ENDBRANCH  23  24
ENDBRANCH  20  23
BRANCH  17  28
HETATM   28  O4  UNL     1      22.332   0.862  51.285  1.00  0.00    -0.351 OA
HETATM   29  C20 UNL     1      21.037   0.582  51.712  1.00  0.00     0.210 C 
ENDBRANCH  17  28
ENDBRANCH   9  11
ENDBRANCH   7   9
TORSDOF 7
ENDMDL
MODEL 7
REMARK VINA RESULT:      -6.9      3.133      5.408
REMARK  7 active torsions:
REMARK  status: ('A' for Active; 'I' for Inactive)
REMARK    1  A    between atoms: C7_7  and  N1_8 
REMARK    2  A    between atoms: N1_8  and  C8_9 
REMARK    3  A    between atoms: C15_19  and  O2_20 
REMARK    4  A    between atoms: O2_20  and  C16_21 
REMARK    5  A    between atoms: C16_21  and  C17_22 
REMARK    6  A    between atoms: C17_22  and  O3_23 
REMARK    7  A    between atoms: C19_25  and  O4_26 
ROOT
HETATM    1  C1  UNL     1      28.676  -2.844  52.938  1.00  0.00     0.018 C 
HETATM    2  C2  UNL     1      28.596  -1.663  53.171  1.00  0.00    -0.078 C 
HETATM    3  C3  UNL     1      28.517  -0.233  53.432  1.00  0.00     0.019 A 
HETATM    4  C4  UNL     1      29.585   0.510  53.894  1.00  0.00     0.021 A 
HETATM    5  C5  UNL     1      29.445   1.866  54.123  1.00  0.00     0.004 A 
HETATM    6  C6  UNL     1      28.200   2.403  53.864  1.00  0.00     0.029 A 
HETATM    7  C7  UNL     1      27.079   1.751  53.404  1.00  0.00     0.034 A 
HETATM    8  C21 UNL     1      27.298   0.403  53.200  1.00  0.00     0.050 A 
ENDROOT
BRANCH   7   9
HETATM    9  N1  UNL     1      25.832   2.307  53.143  1.00  0.00    -0.343 N 
HETATM   10  H5  UNL     1      25.163   2.439  53.965  1.00  0.00     0.167 HD
BRANCH   9  11
HETATM   11  C8  UNL     1      25.392   2.719  51.829  1.00  0.00     0.129 C 
HETATM   12  N2  UNL     1      26.355   3.156  51.101  1.00  0.00    -0.226 NA
HETATM   13  C9  UNL     1      26.406   3.645  49.812  1.00  0.00     0.235 C 
HETATM   14  N3  UNL     1      25.720   4.347  48.920  1.00  0.00    -0.239 NA
HETATM   15  C10 UNL     1      24.439   4.791  49.421  1.00  0.00     0.091 C 
HETATM   16  C11 UNL     1      24.566   5.498  50.526  1.00  0.00     0.021 C 
HETATM   17  C19 UNL     1      22.994   4.676  49.129  1.00  0.00     0.126 C 
HETATM   18  C12 UNL     1      23.223   5.582  51.168  1.00  0.00     0.094 C 
HETATM   19  C13 UNL     1      23.162   4.680  52.360  1.00  0.00     0.183 C 
HETATM   20  C15 UNL     1      22.302   5.303  50.063  1.00  0.00     0.091 C 
HETATM   21  O1  UNL     1      23.084   3.365  52.217  1.00  0.00    -0.383 OA
HETATM   22  C14 UNL     1      23.911   2.578  51.548  1.00  0.00     0.246 C 
BRANCH  20  23
HETATM   23  O2  UNL     1      20.951   5.501  49.721  1.00  0.00    -0.350 OA
BRANCH  23  24
HETATM   24  C16 UNL     1      19.886   4.946  50.469  1.00  0.00     0.201 C 
BRANCH  24  25
HETATM   25  C17 UNL     1      19.521   3.621  49.879  1.00  0.00     0.193 C 
BRANCH  25  26
HETATM   26  O3  UNL     1      20.149   2.607  50.569  1.00  0.00    -0.394 OA
HETATM   27  C18 UNL     1      19.568   2.257  51.762  1.00  0.00     0.201 C 
ENDBRANCH  25  26
ENDBRANCH  24  25
ENDBRANCH  23  24
ENDBRANCH  20  23
BRANCH  17  28
HETATM   28  O4  UNL     1      22.698   3.949  47.964  1.00  0.00    -0.351 OA
HETATM   29  C20 UNL     1      22.676   2.560  47.879  1.00  0.00     0.210 C 
ENDBRANCH  17  28
ENDBRANCH   9  11
ENDBRANCH   7   9
TORSDOF 7
ENDMDL
MODEL 8
REMARK VINA RESULT:      -6.8      3.037      5.949
REMARK  7 active torsions:
REMARK  status: ('A' for Active; 'I' for Inactive)
REMARK    1  A    between atoms: C7_7  and  N1_8 
REMARK    2  A    between atoms: N1_8  and  C8_9 
REMARK    3  A    between atoms: C15_19  and  O2_20 
REMARK    4  A    between atoms: O2_20  and  C16_21 
REMARK    5  A    between atoms: C16_21  and  C17_22 
REMARK    6  A    between atoms: C17_22  and  O3_23 
REMARK    7  A    between atoms: C19_25  and  O4_26 
ROOT
HETATM    1  C1  UNL     1      22.590  -1.054  54.821  1.00  0.00     0.018 C 
HETATM    2  C2  UNL     1      23.562  -0.704  54.197  1.00  0.00    -0.078 C 
HETATM    3  C3  UNL     1      24.733  -0.304  53.431  1.00  0.00     0.019 A 
HETATM    4  C4  UNL     1      25.951  -0.947  53.524  1.00  0.00     0.021 A 
HETATM    5  C5  UNL     1      27.026  -0.518  52.769  1.00  0.00     0.004 A 
HETATM    6  C6  UNL     1      26.799   0.564  51.944  1.00  0.00     0.029 A 
HETATM    7  C7  UNL     1      25.629   1.269  51.780  1.00  0.00     0.034 A 
HETATM    8  C21 UNL     1      24.604   0.781  52.567  1.00  0.00     0.050 A 
ENDROOT
BRANCH   7   9
HETATM    9  N1  UNL     1      25.413   2.356  50.940  1.00  0.00    -0.343 N 
HETATM   10  H5  UNL     1      26.192   2.623  50.260  1.00  0.00     0.167 HD
BRANCH   9  11
HETATM   11  C8  UNL     1      24.199   3.139  50.931  1.00  0.00     0.129 C 
HETATM   12  N2  UNL     1      24.133   3.959  51.917  1.00  0.00    -0.226 NA
HETATM   13  C9  UNL     1      23.183   4.882  52.305  1.00  0.00     0.235 C 
HETATM   14  N3  UNL     1      21.876   5.105  52.330  1.00  0.00    -0.239 NA
HETATM   15  C10 UNL     1      21.110   4.024  51.754  1.00  0.00     0.091 C 
HETATM   16  C11 UNL     1      21.366   2.875  52.347  1.00  0.00     0.021 C 
HETATM   17  C19 UNL     1      20.147   3.758  50.664  1.00  0.00     0.126 C 
HETATM   18  C12 UNL     1      20.850   1.786  51.470  1.00  0.00     0.094 C 
HETATM   19  C13 UNL     1      21.984   1.097  50.778  1.00  0.00     0.183 C 
HETATM   20  C15 UNL     1      19.863   2.469  50.628  1.00  0.00     0.091 C 
HETATM   21  O1  UNL     1      22.633   1.682  49.782  1.00  0.00    -0.383 OA
HETATM   22  C14 UNL     1      23.235   2.860  49.796  1.00  0.00     0.246 C 
BRANCH  20  23
HETATM   23  O2  UNL     1      18.745   2.163  49.828  1.00  0.00    -0.350 OA
BRANCH  23  24
HETATM   24  C16 UNL     1      17.536   1.664  50.366  1.00  0.00     0.201 C 
BRANCH  24  25
HETATM   25  C17 UNL     1      17.447   0.199  50.078  1.00  0.00     0.193 C 
BRANCH  25  26
HETATM   26  O3  UNL     1      17.120  -0.490  51.226  1.00  0.00    -0.394 OA
HETATM   27  C18 UNL     1      18.093  -0.517  52.194  1.00  0.00     0.201 C 
ENDBRANCH  25  26
ENDBRANCH  24  25
ENDBRANCH  23  24
ENDBRANCH  20  23
BRANCH  17  28
HETATM   28  O4  UNL     1      19.769   4.900  49.939  1.00  0.00    -0.351 OA
HETATM   29  C20 UNL     1      20.025   5.102  48.585  1.00  0.00     0.210 C 
ENDBRANCH  17  28
ENDBRANCH   9  11
ENDBRANCH   7   9
TORSDOF 7
ENDMDL
MODEL 9
REMARK VINA RESULT:      -6.7      3.082      7.925
REMARK  7 active torsions:
REMARK  status: ('A' for Active; 'I' for Inactive)
REMARK    1  A    between atoms: C7_7  and  N1_8 
REMARK    2  A    between atoms: N1_8  and  C8_9 
REMARK    3  A    between atoms: C15_19  and  O2_20 
REMARK    4  A    between atoms: O2_20  and  C16_21 
REMARK    5  A    between atoms: C16_21  and  C17_22 
REMARK    6  A    between atoms: C17_22  and  O3_23 
REMARK    7  A    between atoms: C19_25  and  O4_26 
ROOT
HETATM    1  C1  UNL     1      27.499   9.311  50.143  1.00  0.00     0.018 C 
HETATM    2  C2  UNL     1      26.642   8.485  49.949  1.00  0.00    -0.078 C 
HETATM    3  C3  UNL     1      25.626   7.469  49.710  1.00  0.00     0.019 A 
HETATM    4  C4  UNL     1      25.441   6.861  48.485  1.00  0.00     0.021 A 
HETATM    5  C5  UNL     1      24.458   5.904  48.323  1.00  0.00     0.004 A 
HETATM    6  C6  UNL     1      23.701   5.611  49.440  1.00  0.00     0.029 A 
HETATM    7  C7  UNL     1      23.808   6.157  50.698  1.00  0.00     0.034 A 
HETATM    8  C21 UNL     1      24.811   7.104  50.779  1.00  0.00     0.050 A 
ENDROOT
BRANCH   7   9
HETATM    9  N1  UNL     1      23.041   5.848  51.816  1.00  0.00    -0.343 N 
HETATM   10  H5  UNL     1      22.504   6.642  52.287  1.00  0.00     0.167 HD
BRANCH   9  11
HETATM   11  C8  UNL     1      22.926   4.519  52.372  1.00  0.00     0.129 C 
HETATM   12  N2  UNL     1      24.066   4.004  52.660  1.00  0.00    -0.226 NA
HETATM   13  C9  UNL     1      24.434   2.787  53.197  1.00  0.00     0.235 C 
HETATM   14  N3  UNL     1      24.105   1.503  53.228  1.00  0.00    -0.239 NA
HETATM   15  C10 UNL     1      22.939   1.203  52.428  1.00  0.00     0.091 C 
HETATM   16  C11 UNL     1      23.098   1.580  51.176  1.00  0.00     0.021 C 
HETATM   17  C19 UNL     1      21.577   0.644  52.557  1.00  0.00     0.126 C 
HETATM   18  C12 UNL     1      21.754   1.591  50.531  1.00  0.00     0.094 C 
HETATM   19  C13 UNL     1      21.275   2.998  50.358  1.00  0.00     0.183 C 
HETATM   20  C15 UNL     1      20.959   0.709  51.391  1.00  0.00     0.091 C 
HETATM   21  O1  UNL     1      20.856   3.709  51.394  1.00  0.00    -0.383 OA
HETATM   22  C14 UNL     1      21.519   3.974  52.508  1.00  0.00     0.246 C 
BRANCH  20  23
HETATM   23  O2  UNL     1      19.779  -0.057  51.338  1.00  0.00    -0.350 OA
BRANCH  23  24
HETATM   24  C16 UNL     1      18.588   0.332  51.995  1.00  0.00     0.201 C 
BRANCH  24  25
HETATM   25  C17 UNL     1      17.907  -0.890  52.523  1.00  0.00     0.193 C 
BRANCH  25  26
HETATM   26  O3  UNL     1      16.755  -0.538  53.192  1.00  0.00    -0.394 OA
HETATM   27  C18 UNL     1      15.604  -0.579  52.446  1.00  0.00     0.201 C 
ENDBRANCH  25  26
ENDBRANCH  24  25
ENDBRANCH  23  24
ENDBRANCH  20  23
BRANCH  17  28
HETATM   28  O4  UNL     1      21.261   0.188  53.847  1.00  0.00    -0.351 OA
HETATM   29  C20 UNL     1      21.751  -0.983  54.417  1.00  0.00     0.210 C 
ENDBRANCH  17  28
ENDBRANCH   9  11
ENDBRANCH   7   9
TORSDOF 7
ENDMDL
