MODEL 1
REMARK VINA RESULT:      -8.3      0.000      0.000
REMARK  3 active torsions:
REMARK  status: ('A' for Active; 'I' for Inactive)
REMARK    1  A    between atoms: C2_2  and  C3_3 
REMARK    2  A    between atoms: C4_4  and  C5_5 
REMARK    3  A    between atoms: C15_20  and  C16_21 
ROOT
HETATM    1  C5  UNL     1      26.902   1.820  53.485  1.00  0.00     0.161 C 
HETATM    2  N1  UNL     1      25.796   2.439  54.192  1.00  0.00    -0.383 N 
HETATM    3  C6  UNL     1      24.640   2.421  53.364  1.00  0.00     0.118 C 
HETATM    4  C7  UNL     1      23.584   1.926  52.749  1.00  0.00     0.106 C 
HETATM    5  N2  UNL     1      22.707   2.687  51.893  1.00  0.00    -0.238 NA
HETATM    6  C8  UNL     1      23.174   3.339  50.876  1.00  0.00     0.232 C 
HETATM    7  N3  UNL     1      24.562   3.139  50.832  1.00  0.00    -0.256 NA
HETATM    8  C9  UNL     1      25.251   3.304  49.769  1.00  0.00     0.117 C 
HETATM    9  C10 UNL     1      26.634   2.969  50.263  1.00  0.00     0.222 C 
HETATM   10  O1  UNL     1      26.605   1.630  50.769  1.00  0.00    -0.348 OA
HETATM   11  C11 UNL     1      26.500   1.411  52.146  1.00  0.00     0.071 C 
HETATM   12  C12 UNL     1      25.640   0.362  52.237  1.00  0.00     0.034 C 
HETATM   13  C13 UNL     1      25.139  -0.309  53.435  1.00  0.00     0.206 C 
HETATM   14  O2  UNL     1      23.752  -0.230  53.515  1.00  0.00    -0.345 OA
HETATM   15  C14 UNL     1      23.002   0.598  52.722  1.00  0.00     0.096 C 
HETATM   16  C15 UNL     1      22.007  -0.105  52.211  1.00  0.00     0.021 C 
HETATM   17  H7  UNL     1      25.816   2.833  55.156  1.00  0.00     0.160 HD
ENDROOT
BRANCH  16  18
HETATM   18  C16 UNL     1      21.183   0.749  51.359  1.00  0.00     0.150 C 
HETATM   19  C17 UNL     1      20.066   0.858  50.638  1.00  0.00     0.134 C 
HETATM   20  F1  UNL     1      18.953   1.033  49.891  1.00  0.00    -0.243 F 
HETATM   21  C18 UNL     1      19.950   2.194  49.978  1.00  0.00     0.300 C 
HETATM   22  F2  UNL     1      18.602   2.471  49.871  1.00  0.00    -0.231 F 
HETATM   23 CL1  UNL     1      20.706   2.102  48.376  1.00  0.00    -0.087 Cl
ENDBRANCH  16  18
BRANCH   1  24
HETATM   24  C4  UNL     1      28.176   2.573  53.584  1.00  0.00     0.005 C 
HETATM   25  C3  UNL     1      29.300   1.962  53.923  1.00  0.00    -0.002 C 
BRANCH  25  26
HETATM   26  C2  UNL     1      29.599   0.579  54.256  1.00  0.00    -0.010 C 
HETATM   27  C1  UNL     1      29.785  -0.503  53.527  1.00  0.00     0.011 C 
ENDBRANCH  25  26
ENDBRANCH   1  24
TORSDOF 3
ENDMDL
MODEL 2
REMARK VINA RESULT:      -7.7      3.105      4.909
REMARK  3 active torsions:
REMARK  status: ('A' for Active; 'I' for Inactive)
REMARK    1  A    between atoms: C2_2  and  C3_3 
REMARK    2  A    between atoms: C4_4  and  C5_5 
REMARK    3  A    between atoms: C15_20  and  C16_21 
ROOT
HETATM    1  C5  UNL     1      25.131   5.156  49.707  1.00  0.00     0.161 C 
HETATM    2  N1  UNL     1      24.884   5.427  51.111  1.00  0.00    -0.383 N 
HETATM    3  C6  UNL     1      24.191   4.327  51.686  1.00  0.00     0.118 C 
HETATM    4  C7  UNL     1      24.013   3.122  52.191  1.00  0.00     0.106 C 
HETATM    5  N2  UNL     1      22.748   2.612  52.662  1.00  0.00    -0.238 NA
HETATM    6  C8  UNL     1      21.710   2.599  51.889  1.00  0.00     0.232 C 
HETATM    7  N3  UNL     1      22.085   3.136  50.648  1.00  0.00    -0.256 NA
HETATM    8  C9  UNL     1      21.434   2.909  49.572  1.00  0.00     0.117 C 
HETATM    9  C10 UNL     1      22.239   3.699  48.573  1.00  0.00     0.222 C 
HETATM   10  O1  UNL     1      23.579   3.194  48.595  1.00  0.00    -0.348 OA
HETATM   11  C11 UNL     1      24.566   3.872  49.316  1.00  0.00     0.071 C 
HETATM   12  C12 UNL     1      25.280   2.872  49.896  1.00  0.00     0.034 C 
HETATM   13  C13 UNL     1      26.438   2.970  50.783  1.00  0.00     0.206 C 
HETATM   14  O2  UNL     1      26.179   2.384  52.018  1.00  0.00    -0.345 OA
HETATM   15  C14 UNL     1      24.923   2.016  52.424  1.00  0.00     0.096 C 
HETATM   16  C15 UNL     1      24.981   0.781  52.889  1.00  0.00     0.021 C 
HETATM   17  H7  UNL     1      25.167   6.278  51.640  1.00  0.00     0.160 HD
ENDROOT
BRANCH  16  18
HETATM   18  C16 UNL     1      23.656   0.356  53.333  1.00  0.00     0.150 C 
HETATM   19  C17 UNL     1      22.884  -0.660  53.721  1.00  0.00     0.134 C 
HETATM   20  F1  UNL     1      22.048  -1.645  54.121  1.00  0.00    -0.243 F 
HETATM   21  C18 UNL     1      21.484  -0.224  54.013  1.00  0.00     0.300 C 
HETATM   22  F2  UNL     1      20.997  -1.068  54.989  1.00  0.00    -0.231 F 
HETATM   23 CL1  UNL     1      20.527  -0.361  52.525  1.00  0.00    -0.087 Cl
ENDBRANCH  16  18
BRANCH   1  24
HETATM   24  C4  UNL     1      24.835   6.301  48.812  1.00  0.00     0.005 C 
HETATM   25  C3  UNL     1      25.812   6.998  48.254  1.00  0.00    -0.002 C 
BRANCH  25  26
HETATM   26  C2  UNL     1      27.259   6.884  48.330  1.00  0.00    -0.010 C 
HETATM   27  C1  UNL     1      28.088   5.862  48.254  1.00  0.00     0.011 C 
ENDBRANCH  25  26
ENDBRANCH   1  24
TORSDOF 3
ENDMDL
MODEL 3
REMARK VINA RESULT:      -7.7      3.804      6.800
REMARK  3 active torsions:
REMARK  status: ('A' for Active; 'I' for Inactive)
REMARK    1  A    between atoms: C2_2  and  C3_3 
REMARK    2  A    between atoms: C4_4  and  C5_5 
REMARK    3  A    between atoms: C15_20  and  C16_21 
ROOT
HETATM    1  C5  UNL     1      19.748   0.460  52.104  1.00  0.00     0.161 C 
HETATM    2  N1  UNL     1      20.471  -0.050  50.954  1.00  0.00    -0.383 N 
HETATM    3  C6  UNL     1      21.508   0.860  50.610  1.00  0.00     0.118 C 
HETATM    4  C7  UNL     1      22.668   1.481  50.694  1.00  0.00     0.106 C 
HETATM    5  N2  UNL     1      23.109   2.514  49.787  1.00  0.00    -0.238 NA
HETATM    6  C8  UNL     1      22.393   3.573  49.590  1.00  0.00     0.232 C 
HETATM    7  N3  UNL     1      21.237   3.469  50.379  1.00  0.00    -0.256 NA
HETATM    8  C9  UNL     1      20.537   4.483  50.717  1.00  0.00     0.117 C 
HETATM    9  C10 UNL     1      19.450   3.829  51.529  1.00  0.00     0.222 C 
HETATM   10  O1  UNL     1      20.074   3.131  52.612  1.00  0.00    -0.348 OA
HETATM   11  C11 UNL     1      20.278   1.751  52.523  1.00  0.00     0.071 C 
HETATM   12  C12 UNL     1      21.515   1.576  53.059  1.00  0.00     0.034 C 
HETATM   13  C13 UNL     1      22.272   0.337  53.227  1.00  0.00     0.206 C 
HETATM   14  O2  UNL     1      23.480   0.387  52.539  1.00  0.00    -0.345 OA
HETATM   15  C14 UNL     1      23.779   1.357  51.619  1.00  0.00     0.096 C 
HETATM   16  C15 UNL     1      24.978   1.838  51.895  1.00  0.00     0.021 C 
HETATM   17  H7  UNL     1      20.288  -0.941  50.447  1.00  0.00     0.160 HD
ENDROOT
BRANCH  16  18
HETATM   18  C16 UNL     1      25.330   2.876  50.929  1.00  0.00     0.150 C 
HETATM   19  C17 UNL     1      26.308   3.575  50.353  1.00  0.00     0.134 C 
HETATM   20  F1  UNL     1      27.252   4.318  49.732  1.00  0.00    -0.243 F 
HETATM   21  C18 UNL     1      25.784   4.576  49.374  1.00  0.00     0.300 C 
HETATM   22  F2  UNL     1      26.750   4.728  48.401  1.00  0.00    -0.231 F 
HETATM   23 CL1  UNL     1      25.500   6.106  50.227  1.00  0.00    -0.087 Cl
ENDBRANCH  16  18
BRANCH   1  24
HETATM   24  C4  UNL     1      18.273   0.368  51.976  1.00  0.00     0.005 C 
HETATM   25  C3  UNL     1      17.599  -0.600  52.576  1.00  0.00    -0.002 C 
BRANCH  25  26
HETATM   26  C2  UNL     1      18.021  -1.709  53.417  1.00  0.00    -0.010 C 
HETATM   27  C1  UNL     1      17.628  -2.963  53.519  1.00  0.00     0.011 C 
ENDBRANCH  25  26
ENDBRANCH   1  24
TORSDOF 3
ENDMDL
MODEL 4
REMARK VINA RESULT:      -7.4      4.297      6.361
REMARK  3 active torsions:
REMARK  status: ('A' for Active; 'I' for Inactive)
REMARK    1  A    between atoms: C2_2  and  C3_3 
REMARK    2  A    between atoms: C4_4  and  C5_5 
REMARK    3  A    between atoms: C15_20  and  C16_21 
ROOT
HETATM    1  C5  UNL     1      22.827   1.799  51.809  1.00  0.00     0.161 C 
HETATM    2  N1  UNL     1      22.914   1.636  50.370  1.00  0.00    -0.383 N 
HETATM    3  C6  UNL     1      23.502   2.799  49.801  1.00  0.00     0.118 C 
HETATM    4  C7  UNL     1      24.450   3.652  49.466  1.00  0.00     0.106 C 
HETATM    5  N2  UNL     1      24.227   4.875  48.733  1.00  0.00    -0.238 NA
HETATM    6  C8  UNL     1      23.383   5.758  49.159  1.00  0.00     0.232 C 
HETATM    7  N3  UNL     1      22.820   5.282  50.353  1.00  0.00    -0.256 NA
HETATM    8  C9  UNL     1      22.271   6.051  51.213  1.00  0.00     0.117 C 
HETATM    9  C10 UNL     1      21.849   5.057  52.264  1.00  0.00     0.222 C 
HETATM   10  O1  UNL     1      23.024   4.376  52.717  1.00  0.00    -0.348 OA
HETATM   11  C11 UNL     1      23.326   3.105  52.217  1.00  0.00     0.071 C 
HETATM   12  C12 UNL     1      24.674   3.146  52.040  1.00  0.00     0.034 C 
HETATM   13  C13 UNL     1      25.560   2.103  51.528  1.00  0.00     0.206 C 
HETATM   14  O2  UNL     1      26.226   2.525  50.381  1.00  0.00    -0.345 OA
HETATM   15  C14 UNL     1      25.883   3.657  49.690  1.00  0.00     0.096 C 
HETATM   16  C15 UNL     1      26.981   4.357  49.466  1.00  0.00     0.021 C 
HETATM   17  H7  UNL     1      22.613   0.807  49.818  1.00  0.00     0.160 HD
ENDROOT
BRANCH  16  18
HETATM   18  C16 UNL     1      26.651   5.573  48.727  1.00  0.00     0.150 C 
HETATM   19  C17 UNL     1      27.114   6.654  48.097  1.00  0.00     0.134 C 
HETATM   20  F1  UNL     1      27.518   7.768  47.446  1.00  0.00    -0.243 F 
HETATM   21  C18 UNL     1      26.011   7.517  47.574  1.00  0.00     0.300 C 
HETATM   22  F2  UNL     1      26.494   8.143  46.444  1.00  0.00    -0.231 F 
HETATM   23 CL1  UNL     1      25.583   8.705  48.820  1.00  0.00    -0.087 Cl
ENDBRANCH  16  18
BRANCH   1  24
HETATM   24  C4  UNL     1      21.522   1.390  52.383  1.00  0.00     0.005 C 
HETATM   25  C3  UNL     1      21.451   0.438  53.299  1.00  0.00    -0.002 C 
BRANCH  25  26
HETATM   26  C2  UNL     1      22.469  -0.383  53.935  1.00  0.00    -0.010 C 
HETATM   27  C1  UNL     1      22.454  -1.190  54.977  1.00  0.00     0.011 C 
ENDBRANCH  25  26
ENDBRANCH   1  24
TORSDOF 3
ENDMDL
MODEL 5
REMARK VINA RESULT:      -7.4      3.887      7.163
REMARK  3 active torsions:
REMARK  status: ('A' for Active; 'I' for Inactive)
REMARK    1  A    between atoms: C2_2  and  C3_3 
REMARK    2  A    between atoms: C4_4  and  C5_5 
REMARK    3  A    between atoms: C15_20  and  C16_21 
ROOT
HETATM    1  C5  UNL     1      19.827   3.072  50.691  1.00  0.00     0.161 C 
HETATM    2  N1  UNL     1      20.549   2.141  49.845  1.00  0.00    -0.383 N 
HETATM    3  C6  UNL     1      21.763   1.769  50.485  1.00  0.00     0.118 C 
HETATM    4  C7  UNL     1      22.558   1.153  51.338  1.00  0.00     0.106 C 
HETATM    5  N2  UNL     1      23.990   1.321  51.388  1.00  0.00    -0.238 NA
HETATM    6  C8  UNL     1      24.515   2.496  51.525  1.00  0.00     0.232 C 
HETATM    7  N3  UNL     1      23.473   3.432  51.602  1.00  0.00    -0.256 NA
HETATM    8  C9  UNL     1      23.620   4.591  52.120  1.00  0.00     0.117 C 
HETATM    9  C10 UNL     1      22.239   5.165  51.947  1.00  0.00     0.222 C 
HETATM   10  O1  UNL     1      21.319   4.304  52.628  1.00  0.00    -0.348 OA
HETATM   11  C11 UNL     1      20.579   3.366  51.903  1.00  0.00     0.071 C 
HETATM   12  C12 UNL     1      20.596   2.264  52.699  1.00  0.00     0.034 C 
HETATM   13  C13 UNL     1      19.992   0.954  52.460  1.00  0.00     0.206 C 
HETATM   14  O2  UNL     1      20.953  -0.051  52.450  1.00  0.00    -0.345 OA
HETATM   15  C14 UNL     1      22.299   0.200  52.400  1.00  0.00     0.096 C 
HETATM   16  C15 UNL     1      22.892  -0.517  53.338  1.00  0.00     0.021 C 
HETATM   17  H7  UNL     1      20.246   1.777  48.917  1.00  0.00     0.160 HD
ENDROOT
BRANCH  16  18
HETATM   18  C16 UNL     1      24.332  -0.275  53.311  1.00  0.00     0.150 C 
HETATM   19  C17 UNL     1      25.548  -0.800  53.149  1.00  0.00     0.134 C 
HETATM   20  F1  UNL     1      26.806  -1.270  52.997  1.00  0.00    -0.243 F 
HETATM   21  C18 UNL     1      26.629   0.219  53.318  1.00  0.00     0.300 C 
HETATM   22  F2  UNL     1      27.678  -0.175  52.514  1.00  0.00    -0.231 F 
HETATM   23 CL1  UNL     1      27.116   0.248  55.024  1.00  0.00    -0.087 Cl
ENDBRANCH  16  18
BRANCH   1  24
HETATM   24  C4  UNL     1      19.276   4.242  49.964  1.00  0.00     0.005 C 
HETATM   25  C3  UNL     1      17.996   4.564  50.067  1.00  0.00    -0.002 C 
BRANCH  25  26
HETATM   26  C2  UNL     1      16.896   3.968  50.807  1.00  0.00    -0.010 C 
HETATM   27  C1  UNL     1      16.229   4.336  51.883  1.00  0.00     0.011 C 
ENDBRANCH  25  26
ENDBRANCH   1  24
TORSDOF 3
ENDMDL
MODEL 6
REMARK VINA RESULT:      -7.3      4.031      7.240
REMARK  3 active torsions:
REMARK  status: ('A' for Active; 'I' for Inactive)
REMARK    1  A    between atoms: C2_2  and  C3_3 
REMARK    2  A    between atoms: C4_4  and  C5_5 
REMARK    3  A    between atoms: C15_20  and  C16_21 
ROOT
HETATM    1  C5  UNL     1      21.430   3.321  51.250  1.00  0.00     0.161 C 
HETATM    2  N1  UNL     1      22.188   3.986  52.292  1.00  0.00    -0.383 N 
HETATM    3  C6  UNL     1      23.301   3.178  52.652  1.00  0.00     0.118 C 
HETATM    4  C7  UNL     1      24.492   2.621  52.550  1.00  0.00     0.106 C 
HETATM    5  N2  UNL     1      25.055   1.713  53.520  1.00  0.00    -0.238 NA
HETATM    6  C8  UNL     1      24.422   0.639  53.869  1.00  0.00     0.232 C 
HETATM    7  N3  UNL     1      23.215   0.595  53.155  1.00  0.00    -0.256 NA
HETATM    8  C9  UNL     1      22.563  -0.488  52.967  1.00  0.00     0.117 C 
HETATM    9  C10 UNL     1      21.388   0.016  52.170  1.00  0.00     0.222 C 
HETATM   10  O1  UNL     1      21.896   0.636  50.984  1.00  0.00    -0.348 OA
HETATM   11  C11 UNL     1      22.015   2.027  50.924  1.00  0.00     0.071 C 
HETATM   12  C12 UNL     1      23.202   2.218  50.290  1.00  0.00     0.034 C 
HETATM   13  C13 UNL     1      23.865   3.476  49.950  1.00  0.00     0.206 C 
HETATM   14  O2  UNL     1      25.115   3.567  50.555  1.00  0.00    -0.345 OA
HETATM   15  C14 UNL     1      25.532   2.715  51.543  1.00  0.00     0.096 C 
HETATM   16  C15 UNL     1      26.740   2.279  51.234  1.00  0.00     0.021 C 
HETATM   17  H7  UNL     1      21.979   4.912  52.720  1.00  0.00     0.160 HD
ENDROOT
BRANCH  16  18
HETATM   18  C16 UNL     1      27.219   1.367  52.270  1.00  0.00     0.150 C 
HETATM   19  C17 UNL     1      28.217   1.041  53.092  1.00  0.00     0.134 C 
HETATM   20  F1  UNL     1      29.190   0.657  53.949  1.00  0.00    -0.243 F 
HETATM   21  C18 UNL     1      27.900  -0.171  53.909  1.00  0.00     0.300 C 
HETATM   22  F2  UNL     1      28.575  -0.035  55.105  1.00  0.00    -0.231 F 
HETATM   23 CL1  UNL     1      28.456  -1.607  53.030  1.00  0.00    -0.087 Cl
ENDBRANCH  16  18
BRANCH   1  24
HETATM   24  C4  UNL     1      19.963   3.339  51.468  1.00  0.00     0.005 C 
HETATM   25  C3  UNL     1      19.174   4.096  50.722  1.00  0.00    -0.002 C 
BRANCH  25  26
HETATM   26  C2  UNL     1      19.450   5.009  49.625  1.00  0.00    -0.010 C 
HETATM   27  C1  UNL     1      19.899   6.247  49.575  1.00  0.00     0.011 C 
ENDBRANCH  25  26
ENDBRANCH   1  24
TORSDOF 3
ENDMDL
MODEL 7
REMARK VINA RESULT:      -7.2      4.008      7.219
REMARK  3 active torsions:
REMARK  status: ('A' for Active; 'I' for Inactive)
REMARK    1  A    between atoms: C2_2  and  C3_3 
REMARK    2  A    between atoms: C4_4  and  C5_5 
REMARK    3  A    between atoms: C15_20  and  C16_21 
ROOT
HETATM    1  C5  UNL     1      21.545   4.277  50.156  1.00  0.00     0.161 C 
HETATM    2  N1  UNL     1      22.161   4.796  51.363  1.00  0.00    -0.383 N 
HETATM    3  C6  UNL     1      23.093   3.844  51.860  1.00  0.00     0.118 C 
HETATM    4  C7  UNL     1      24.214   3.155  51.937  1.00  0.00     0.106 C 
HETATM    5  N2  UNL     1      24.483   2.141  52.927  1.00  0.00    -0.238 NA
HETATM    6  C8  UNL     1      23.685   1.134  53.079  1.00  0.00     0.232 C 
HETATM    7  N3  UNL     1      22.636   1.268  52.156  1.00  0.00    -0.256 NA
HETATM    8  C9  UNL     1      21.918   0.281  51.778  1.00  0.00     0.117 C 
HETATM    9  C10 UNL     1      20.974   0.960  50.819  1.00  0.00     0.222 C 
HETATM   10  O1  UNL     1      21.761   1.572  49.791  1.00  0.00    -0.348 OA
HETATM   11  C11 UNL     1      22.038   2.941  49.851  1.00  0.00     0.071 C 
HETATM   12  C12 UNL     1      23.337   3.020  49.458  1.00  0.00     0.034 C 
HETATM   13  C13 UNL     1      24.183   4.205  49.333  1.00  0.00     0.206 C 
HETATM   14  O2  UNL     1      25.299   4.117  50.159  1.00  0.00    -0.345 OA
HETATM   15  C14 UNL     1      25.430   3.174  51.144  1.00  0.00     0.096 C 
HETATM   16  C15 UNL     1      26.620   2.613  51.029  1.00  0.00     0.021 C 
HETATM   17  H7  UNL     1      21.976   5.718  51.810  1.00  0.00     0.160 HD
ENDROOT
BRANCH  16  18
HETATM   18  C16 UNL     1      26.794   1.601  52.068  1.00  0.00     0.150 C 
HETATM   19  C17 UNL     1      27.653   0.927  52.834  1.00  0.00     0.134 C 
HETATM   20  F1  UNL     1      28.470   0.210  53.638  1.00  0.00    -0.243 F 
HETATM   21  C18 UNL     1      26.963  -0.058  53.721  1.00  0.00     0.300 C 
HETATM   22  F2  UNL     1      27.731  -0.177  54.861  1.00  0.00    -0.231 F 
HETATM   23 CL1  UNL     1      26.856  -1.610  52.868  1.00  0.00    -0.087 Cl
ENDBRANCH  16  18
BRANCH   1  24
HETATM   24  C4  UNL     1      20.073   4.459  50.105  1.00  0.00     0.005 C 
HETATM   25  C3  UNL     1      19.544   5.610  49.724  1.00  0.00    -0.002 C 
BRANCH  25  26
HETATM   26  C2  UNL     1      20.140   6.867  49.300  1.00  0.00    -0.010 C 
HETATM   27  C1  UNL     1      20.001   8.112  49.708  1.00  0.00     0.011 C 
ENDBRANCH  25  26
ENDBRANCH   1  24
TORSDOF 3
ENDMDL
MODEL 8
REMARK VINA RESULT:      -7.2      3.284      4.419
REMARK  3 active torsions:
REMARK  status: ('A' for Active; 'I' for Inactive)
REMARK    1  A    between atoms: C2_2  and  C3_3 
REMARK    2  A    between atoms: C4_4  and  C5_5 
REMARK    3  A    between atoms: C15_20  and  C16_21 
ROOT
HETATM    1  C5  UNL     1      23.877   4.128  50.861  1.00  0.00     0.161 C 
HETATM    2  N1  UNL     1      23.147   4.428  52.079  1.00  0.00    -0.383 N 
HETATM    3  C6  UNL     1      22.116   3.467  52.258  1.00  0.00     0.118 C 
HETATM    4  C7  UNL     1      21.561   2.309  52.561  1.00  0.00     0.106 C 
HETATM    5  N2  UNL     1      20.148   2.032  52.469  1.00  0.00    -0.238 NA
HETATM    6  C8  UNL     1      19.508   2.212  51.358  1.00  0.00     0.232 C 
HETATM    7  N3  UNL     1      20.421   2.681  50.402  1.00  0.00    -0.256 NA
HETATM    8  C9  UNL     1      20.216   2.583  49.144  1.00  0.00     0.117 C 
HETATM    9  C10 UNL     1      21.464   3.223  48.595  1.00  0.00     0.222 C 
HETATM   10  O1  UNL     1      22.587   2.485  49.090  1.00  0.00    -0.348 OA
HETATM   11  C11 UNL     1      23.308   2.970  50.185  1.00  0.00     0.071 C 
HETATM   12  C12 UNL     1      23.566   1.852  50.916  1.00  0.00     0.034 C 
HETATM   13  C13 UNL     1      24.283   1.735  52.184  1.00  0.00     0.206 C 
HETATM   14  O2  UNL     1      23.470   1.196  53.176  1.00  0.00    -0.345 OA
HETATM   15  C14 UNL     1      22.113   1.056  53.039  1.00  0.00     0.096 C 
HETATM   16  C15 UNL     1      21.783  -0.173  53.393  1.00  0.00     0.021 C 
HETATM   17  H7  UNL     1      23.334   5.211  52.741  1.00  0.00     0.160 HD
ENDROOT
BRANCH  16  18
HETATM   18  C16 UNL     1      20.340  -0.356  53.261  1.00  0.00     0.150 C 
HETATM   19  C17 UNL     1      19.316  -1.209  53.312  1.00  0.00     0.134 C 
HETATM   20  F1  UNL     1      18.235  -2.020  53.348  1.00  0.00    -0.243 F 
HETATM   21  C18 UNL     1      18.014  -0.545  52.997  1.00  0.00     0.300 C 
HETATM   22  F2  UNL     1      17.039  -1.223  53.700  1.00  0.00    -0.231 F 
HETATM   23 CL1  UNL     1      17.729  -0.661  51.250  1.00  0.00    -0.087 Cl
ENDBRANCH  16  18
BRANCH   1  24
HETATM   24  C4  UNL     1      24.145   5.314  50.012  1.00  0.00     0.005 C 
HETATM   25  C3  UNL     1      25.284   5.430  49.348  1.00  0.00    -0.002 C 
BRANCH  25  26
HETATM   26  C2  UNL     1      26.451   4.570  49.253  1.00  0.00    -0.010 C 
HETATM   27  C1  UNL     1      27.646   4.727  48.719  1.00  0.00     0.011 C 
ENDBRANCH  25  26
ENDBRANCH   1  24
TORSDOF 3
ENDMDL
MODEL 9
REMARK VINA RESULT:      -7.2      3.743      6.770
REMARK  3 active torsions:
REMARK  status: ('A' for Active; 'I' for Inactive)
REMARK    1  A    between atoms: C2_2  and  C3_3 
REMARK    2  A    between atoms: C4_4  and  C5_5 
REMARK    3  A    between atoms: C15_20  and  C16_21 
ROOT
HETATM    1  C5  UNL     1      20.066   0.512  52.264  1.00  0.00     0.161 C 
HETATM    2  N1  UNL     1      19.846   1.942  52.372  1.00  0.00    -0.383 N 
HETATM    3  C6  UNL     1      20.999   2.631  51.906  1.00  0.00     0.118 C 
HETATM    4  C7  UNL     1      21.861   3.127  51.040  1.00  0.00     0.106 C 
HETATM    5  N2  UNL     1      23.047   3.866  51.401  1.00  0.00    -0.238 NA
HETATM    6  C8  UNL     1      23.925   3.360  52.205  1.00  0.00     0.232 C 
HETATM    7  N3  UNL     1      23.484   2.082  52.581  1.00  0.00    -0.256 NA
HETATM    8  C9  UNL     1      24.273   1.182  53.030  1.00  0.00     0.117 C 
HETATM    9  C10 UNL     1      23.313   0.047  53.270  1.00  0.00     0.222 C 
HETATM   10  O1  UNL     1      22.681  -0.263  52.024  1.00  0.00    -0.348 OA
HETATM   11  C11 UNL     1      21.400   0.227  51.754  1.00  0.00     0.071 C 
HETATM   12  C12 UNL     1      21.468   0.592  50.446  1.00  0.00     0.034 C 
HETATM   13  C13 UNL     1      20.427   1.184  49.607  1.00  0.00     0.206 C 
HETATM   14  O2  UNL     1      20.819   2.427  49.120  1.00  0.00    -0.345 OA
HETATM   15  C14 UNL     1      21.912   3.106  49.591  1.00  0.00     0.096 C 
HETATM   16  C15 UNL     1      22.631   3.506  48.557  1.00  0.00     0.021 C 
HETATM   17  H7  UNL     1      18.987   2.416  52.722  1.00  0.00     0.160 HD
ENDROOT
BRANCH  16  18
HETATM   18  C16 UNL     1      23.806   4.237  49.024  1.00  0.00     0.150 C 
HETATM   19  C17 UNL     1      24.560   5.330  48.899  1.00  0.00     0.134 C 
HETATM   20  F1  UNL     1      25.366   6.413  48.823  1.00  0.00    -0.243 F 
HETATM   21  C18 UNL     1      25.732   5.315  49.828  1.00  0.00     0.300 C 
HETATM   22  F2  UNL     1      26.016   6.630  50.135  1.00  0.00    -0.231 F 
HETATM   23 CL1  UNL     1      27.101   4.551  48.997  1.00  0.00    -0.087 Cl
ENDBRANCH  16  18
BRANCH   1  24
HETATM   24  C4  UNL     1      19.647  -0.253  53.464  1.00  0.00     0.005 C 
HETATM   25  C3  UNL     1      18.545  -0.986  53.451  1.00  0.00    -0.002 C 
BRANCH  25  26
HETATM   26  C2  UNL     1      17.549  -1.235  52.422  1.00  0.00    -0.010 C 
HETATM   27  C1  UNL     1      16.450  -0.605  52.061  1.00  0.00     0.011 C 
ENDBRANCH  25  26
ENDBRANCH   1  24
TORSDOF 3
ENDMDL
