MODEL 1
REMARK VINA RESULT:      -7.5      0.000      0.000
REMARK  8 active torsions:
REMARK  status: ('A' for Active; 'I' for Inactive)
REMARK    1  A    between atoms: C4_4  and  C5_5 
REMARK    2  A    between atoms: C5_5  and  C6_6 
REMARK    3  A    between atoms: C6_6  and  C7_7 
REMARK    4  A    between atoms: C7_7  and  O2_9 
REMARK    5  A    between atoms: C10_15  and  C11_16 
REMARK    6  A    between atoms: C11_16  and  C12_17 
REMARK    7  A    between atoms: C12_17  and  C13_18 
REMARK    8  A    between atoms: C13_18  and  O4_20 
ROOT
HETATM    1  C1  UNL     1      19.236   3.960  51.353  1.00  0.00     0.040 C 
HETATM    2  C2  UNL     1      20.704   3.658  51.023  1.00  0.00     0.047 C 
HETATM    3  C3  UNL     1      20.700   2.484  50.113  1.00  0.00     0.069 C 
HETATM    4  C4  UNL     1      21.812   2.855  49.153  1.00  0.00    -0.043 C 
HETATM    5  C8  UNL     1      22.352   3.982  49.636  1.00  0.00     0.080 C 
HETATM    6  N1  UNL     1      21.261   4.746  50.201  1.00  0.00    -0.373 N 
HETATM    7  S1  UNL     1      24.156   4.021  49.376  1.00  0.00    -0.033 SA
HETATM    8  S2  UNL     1      24.975   3.544  51.309  1.00  0.00    -0.032 SA
HETATM    9  C9  UNL     1      23.802   2.376  52.044  1.00  0.00     0.091 A 
HETATM   10  C10 UNL     1      24.245   1.115  52.357  1.00  0.00    -0.011 A 
HETATM   11  C14 UNL     1      23.148   0.470  52.881  1.00  0.00    -0.000 A 
HETATM   12  C15 UNL     1      23.141  -0.834  53.329  1.00  0.00     0.014 A 
HETATM   13  C16 UNL     1      21.923  -1.293  53.820  1.00  0.00     0.001 A 
HETATM   14  C17 UNL     1      20.822  -0.467  53.838  1.00  0.00     0.002 A 
HETATM   15  C18 UNL     1      20.926   0.837  53.366  1.00  0.00     0.030 A 
HETATM   16  C19 UNL     1      22.100   1.367  52.863  1.00  0.00     0.046 A 
HETATM   17  N2  UNL     1      22.493   2.549  52.346  1.00  0.00    -0.337 N 
HETATM   18  C20 UNL     1      21.424   3.525  52.311  1.00  0.00     0.161 C 
HETATM   19  H11 UNL     1      20.808   5.712  50.208  1.00  0.00     0.161 HD
ENDROOT
BRANCH   4  20
HETATM   20  C5  UNL     1      22.199   2.079  47.905  1.00  0.00     0.047 C 
BRANCH  20  21
HETATM   21  C6  UNL     1      21.763   3.026  46.774  1.00  0.00     0.114 C 
BRANCH  21  22
HETATM   22  C7  UNL     1      20.293   3.097  46.725  1.00  0.00     0.139 C 
HETATM   23  O1  UNL     1      19.854   4.252  46.398  1.00  0.00    -0.650 OA
BRANCH  22  24
HETATM   24  O2  UNL     1      18.945   2.780  46.790  1.00  0.00    -0.776 OA
HETATM   25  H10 UNL     1      18.625   1.909  46.332  1.00  0.00     0.167 HD
ENDBRANCH  22  24
ENDBRANCH  21  22
ENDBRANCH  20  21
ENDBRANCH   4  20
BRANCH  10  26
HETATM   26  C11 UNL     1      25.660   0.691  52.114  1.00  0.00     0.053 C 
BRANCH  26  27
HETATM   27  C12 UNL     1      26.336   0.720  53.466  1.00  0.00     0.115 C 
BRANCH  27  28
HETATM   28  C13 UNL     1      27.340   1.804  53.562  1.00  0.00     0.139 C 
HETATM   29  O3  UNL     1      28.205   1.917  52.631  1.00  0.00    -0.650 OA
BRANCH  28  30
HETATM   30  O4  UNL     1      27.895   2.890  54.215  1.00  0.00    -0.776 OA
HETATM   31  H16 UNL     1      28.916   3.008  54.234  1.00  0.00     0.167 HD
ENDBRANCH  28  30
ENDBRANCH  27  28
ENDBRANCH  26  27
ENDBRANCH  10  26
TORSDOF 8
ENDMDL
MODEL 2
REMARK VINA RESULT:      -7.4      2.436      3.661
REMARK  8 active torsions:
REMARK  status: ('A' for Active; 'I' for Inactive)
REMARK    1  A    between atoms: C4_4  and  C5_5 
REMARK    2  A    between atoms: C5_5  and  C6_6 
REMARK    3  A    between atoms: C6_6  and  C7_7 
REMARK    4  A    between atoms: C7_7  and  O2_9 
REMARK    5  A    between atoms: C10_15  and  C11_16 
REMARK    6  A    between atoms: C11_16  and  C12_17 
REMARK    7  A    between atoms: C12_17  and  C13_18 
REMARK    8  A    between atoms: C13_18  and  O4_20 
ROOT
HETATM    1  C1  UNL     1      20.353  -0.639  53.336  1.00  0.00     0.040 C 
HETATM    2  C2  UNL     1      20.757   0.638  52.586  1.00  0.00     0.047 C 
HETATM    3  C3  UNL     1      21.176   0.213  51.226  1.00  0.00     0.069 C 
HETATM    4  C4  UNL     1      20.609   1.335  50.381  1.00  0.00    -0.043 C 
HETATM    5  C8  UNL     1      20.114   2.230  51.246  1.00  0.00     0.080 C 
HETATM    6  N1  UNL     1      19.565   1.471  52.349  1.00  0.00    -0.373 N 
HETATM    7  S1  UNL     1      20.366   3.937  50.657  1.00  0.00    -0.033 SA
HETATM    8  S2  UNL     1      22.022   4.657  51.827  1.00  0.00    -0.032 SA
HETATM    9  C9  UNL     1      23.082   3.212  52.085  1.00  0.00     0.091 A 
HETATM   10  C10 UNL     1      24.362   3.244  51.594  1.00  0.00    -0.011 A 
HETATM   11  C14 UNL     1      24.907   2.027  51.933  1.00  0.00    -0.000 A 
HETATM   12  C15 UNL     1      26.191   1.626  51.628  1.00  0.00     0.014 A 
HETATM   13  C16 UNL     1      26.541   0.352  52.063  1.00  0.00     0.001 A 
HETATM   14  C17 UNL     1      25.635  -0.425  52.748  1.00  0.00     0.002 A 
HETATM   15  C18 UNL     1      24.360   0.066  53.011  1.00  0.00     0.030 A 
HETATM   16  C19 UNL     1      23.937   1.320  52.613  1.00  0.00     0.046 A 
HETATM   17  N2  UNL     1      22.803   2.044  52.713  1.00  0.00    -0.337 N 
HETATM   18  C20 UNL     1      21.755   1.342  53.424  1.00  0.00     0.161 C 
HETATM   19  H11 UNL     1      18.694   1.351  52.954  1.00  0.00     0.161 HD
ENDROOT
BRANCH   4  20
HETATM   20  C5  UNL     1      20.616   1.391  48.862  1.00  0.00     0.047 C 
BRANCH  20  21
HETATM   21  C6  UNL     1      22.099   1.650  48.545  1.00  0.00     0.114 C 
BRANCH  21  22
HETATM   22  C7  UNL     1      22.208   2.606  47.429  1.00  0.00     0.139 C 
HETATM   23  O1  UNL     1      22.520   3.787  47.804  1.00  0.00    -0.650 OA
BRANCH  22  24
HETATM   24  O2  UNL     1      22.210   3.179  46.167  1.00  0.00    -0.776 OA
HETATM   25  H10 UNL     1      21.870   2.612  45.371  1.00  0.00     0.167 HD
ENDBRANCH  22  24
ENDBRANCH  21  22
ENDBRANCH  20  21
ENDBRANCH   4  20
BRANCH  10  26
HETATM   26  C11 UNL     1      24.900   4.435  50.863  1.00  0.00     0.053 C 
BRANCH  26  27
HETATM   27  C12 UNL     1      25.525   3.895  49.598  1.00  0.00     0.115 C 
BRANCH  27  28
HETATM   28  C13 UNL     1      26.746   4.643  49.218  1.00  0.00     0.139 C 
HETATM   29  O3  UNL     1      26.621   5.678  48.481  1.00  0.00    -0.650 OA
BRANCH  28  30
HETATM   30  O4  UNL     1      28.117   4.827  49.251  1.00  0.00    -0.776 OA
HETATM   31  H16 UNL     1      28.510   5.765  49.103  1.00  0.00     0.167 HD
ENDBRANCH  28  30
ENDBRANCH  27  28
ENDBRANCH  26  27
ENDBRANCH  10  26
TORSDOF 8
ENDMDL
MODEL 3
REMARK VINA RESULT:      -7.3      3.506      5.159
REMARK  8 active torsions:
REMARK  status: ('A' for Active; 'I' for Inactive)
REMARK    1  A    between atoms: C4_4  and  C5_5 
REMARK    2  A    between atoms: C5_5  and  C6_6 
REMARK    3  A    between atoms: C6_6  and  C7_7 
REMARK    4  A    between atoms: C7_7  and  O2_9 
REMARK    5  A    between atoms: C10_15  and  C11_16 
REMARK    6  A    between atoms: C11_16  and  C12_17 
REMARK    7  A    between atoms: C12_17  and  C13_18 
REMARK    8  A    between atoms: C13_18  and  O4_20 
ROOT
HETATM    1  C1  UNL     1      26.491   4.812  48.932  1.00  0.00     0.040 C 
HETATM    2  C2  UNL     1      25.184   4.270  49.528  1.00  0.00     0.047 C 
HETATM    3  C3  UNL     1      24.936   5.042  50.772  1.00  0.00     0.069 C 
HETATM    4  C4  UNL     1      23.432   5.213  50.713  1.00  0.00    -0.043 C 
HETATM    5  C8  UNL     1      23.022   4.497  49.656  1.00  0.00     0.080 C 
HETATM    6  N1  UNL     1      24.055   4.628  48.651  1.00  0.00    -0.373 N 
HETATM    7  S1  UNL     1      21.410   3.706  49.972  1.00  0.00    -0.033 SA
HETATM    8  S2  UNL     1      21.905   1.651  50.379  1.00  0.00    -0.032 SA
HETATM    9  C9  UNL     1      23.502   1.710  51.231  1.00  0.00     0.091 A 
HETATM   10  C10 UNL     1      23.579   1.219  52.509  1.00  0.00    -0.011 A 
HETATM   11  C14 UNL     1      24.890   1.403  52.886  1.00  0.00    -0.000 A 
HETATM   12  C15 UNL     1      25.414   1.052  54.112  1.00  0.00     0.014 A 
HETATM   13  C16 UNL     1      26.766   1.329  54.288  1.00  0.00     0.001 A 
HETATM   14  C17 UNL     1      27.495   1.918  53.280  1.00  0.00     0.002 A 
HETATM   15  C18 UNL     1      26.879   2.236  52.074  1.00  0.00     0.030 A 
HETATM   16  C19 UNL     1      25.542   1.992  51.822  1.00  0.00     0.046 A 
HETATM   17  N2  UNL     1      24.692   2.187  50.793  1.00  0.00    -0.337 N 
HETATM   18  C20 UNL     1      25.335   2.800  49.649  1.00  0.00     0.161 C 
HETATM   19  H11 UNL     1      24.223   4.863  47.624  1.00  0.00     0.161 HD
ENDROOT
BRANCH   4  20
HETATM   20  C5  UNL     1      22.597   6.042  51.675  1.00  0.00     0.047 C 
BRANCH  20  21
HETATM   21  C6  UNL     1      22.305   7.311  50.856  1.00  0.00     0.114 C 
BRANCH  21  22
HETATM   22  C7  UNL     1      23.560   8.043  50.609  1.00  0.00     0.139 C 
HETATM   23  O1  UNL     1      23.600   8.603  49.461  1.00  0.00    -0.650 OA
BRANCH  22  24
HETATM   24  O2  UNL     1      24.824   8.595  50.746  1.00  0.00    -0.776 OA
HETATM   25  H10 UNL     1      25.399   8.306  51.556  1.00  0.00     0.167 HD
ENDBRANCH  22  24
ENDBRANCH  21  22
ENDBRANCH  20  21
ENDBRANCH   4  20
BRANCH  10  26
HETATM   26  C11 UNL     1      22.389   0.636  53.206  1.00  0.00     0.053 C 
BRANCH  26  27
HETATM   27  C12 UNL     1      22.635  -0.855  53.263  1.00  0.00     0.115 C 
BRANCH  27  28
HETATM   28  C13 UNL     1      22.555  -1.379  54.646  1.00  0.00     0.139 C 
HETATM   29  O3  UNL     1      21.461  -1.913  55.032  1.00  0.00    -0.650 OA
BRANCH  28  30
HETATM   30  O4  UNL     1      23.115  -1.621  55.887  1.00  0.00    -0.776 OA
HETATM   31  H16 UNL     1      24.125  -1.798  55.966  1.00  0.00     0.167 HD
ENDBRANCH  28  30
ENDBRANCH  27  28
ENDBRANCH  26  27
ENDBRANCH  10  26
TORSDOF 8
ENDMDL
MODEL 4
REMARK VINA RESULT:      -6.9      3.290      5.195
REMARK  8 active torsions:
REMARK  status: ('A' for Active; 'I' for Inactive)
REMARK    1  A    between atoms: C4_4  and  C5_5 
REMARK    2  A    between atoms: C5_5  and  C6_6 
REMARK    3  A    between atoms: C6_6  and  C7_7 
REMARK    4  A    between atoms: C7_7  and  O2_9 
REMARK    5  A    between atoms: C10_15  and  C11_16 
REMARK    6  A    between atoms: C11_16  and  C12_17 
REMARK    7  A    between atoms: C12_17  and  C13_18 
REMARK    8  A    between atoms: C13_18  and  O4_20 
ROOT
HETATM    1  C1  UNL     1      26.372   2.122  53.260  1.00  0.00     0.040 C 
HETATM    2  C2  UNL     1      25.169   2.359  52.336  1.00  0.00     0.047 C 
HETATM    3  C3  UNL     1      24.198   3.176  53.109  1.00  0.00     0.069 C 
HETATM    4  C4  UNL     1      23.680   4.108  52.033  1.00  0.00    -0.043 C 
HETATM    5  C8  UNL     1      24.234   3.689  50.887  1.00  0.00     0.080 C 
HETATM    6  N1  UNL     1      25.567   3.236  51.221  1.00  0.00    -0.373 N 
HETATM    7  S1  UNL     1      23.081   3.868  49.486  1.00  0.00    -0.033 SA
HETATM    8  S2  UNL     1      22.363   1.868  49.139  1.00  0.00    -0.032 SA
HETATM    9  C9  UNL     1      22.292   1.101  50.778  1.00  0.00     0.091 A 
HETATM   10  C10 UNL     1      21.077   0.672  51.247  1.00  0.00    -0.011 A 
HETATM   11  C14 UNL     1      21.337   0.150  52.494  1.00  0.00    -0.000 A 
HETATM   12  C15 UNL     1      20.389  -0.395  53.333  1.00  0.00     0.014 A 
HETATM   13  C16 UNL     1      20.866  -0.863  54.553  1.00  0.00     0.001 A 
HETATM   14  C17 UNL     1      22.203  -0.767  54.863  1.00  0.00     0.002 A 
HETATM   15  C18 UNL     1      23.087  -0.201  53.950  1.00  0.00     0.030 A 
HETATM   16  C19 UNL     1      22.692   0.286  52.718  1.00  0.00     0.046 A 
HETATM   17  N2  UNL     1      23.292   0.873  51.663  1.00  0.00    -0.337 N 
HETATM   18  C20 UNL     1      24.719   1.033  51.852  1.00  0.00     0.161 C 
HETATM   19  H11 UNL     1      26.593   3.324  50.944  1.00  0.00     0.161 HD
ENDROOT
BRANCH   4  20
HETATM   20  C5  UNL     1      22.730   5.274  52.254  1.00  0.00     0.047 C 
BRANCH  20  21
HETATM   21  C6  UNL     1      23.413   6.414  51.479  1.00  0.00     0.114 C 
BRANCH  21  22
HETATM   22  C7  UNL     1      22.393   7.241  50.811  1.00  0.00     0.139 C 
HETATM   23  O1  UNL     1      21.267   6.649  50.684  1.00  0.00    -0.650 OA
BRANCH  22  24
HETATM   24  O2  UNL     1      21.737   8.282  50.173  1.00  0.00    -0.776 OA
HETATM   25  H10 UNL     1      21.989   9.251  50.431  1.00  0.00     0.167 HD
ENDBRANCH  22  24
ENDBRANCH  21  22
ENDBRANCH  20  21
ENDBRANCH   4  20
BRANCH  10  26
HETATM   26  C11 UNL     1      19.823   0.815  50.441  1.00  0.00     0.053 C 
BRANCH  26  27
HETATM   27  C12 UNL     1      18.840   1.538  51.333  1.00  0.00     0.115 C 
BRANCH  27  28
HETATM   28  C13 UNL     1      19.050   3.004  51.320  1.00  0.00     0.139 C 
HETATM   29  O3  UNL     1      18.235   3.742  51.969  1.00  0.00    -0.650 OA
BRANCH  28  30
HETATM   30  O4  UNL     1      19.756   4.126  50.923  1.00  0.00    -0.776 OA
HETATM   31  H16 UNL     1      20.782   4.134  50.989  1.00  0.00     0.167 HD
ENDBRANCH  28  30
ENDBRANCH  27  28
ENDBRANCH  26  27
ENDBRANCH  10  26
TORSDOF 8
ENDMDL
MODEL 5
REMARK VINA RESULT:      -6.8      1.592      1.843
REMARK  8 active torsions:
REMARK  status: ('A' for Active; 'I' for Inactive)
REMARK    1  A    between atoms: C4_4  and  C5_5 
REMARK    2  A    between atoms: C5_5  and  C6_6 
REMARK    3  A    between atoms: C6_6  and  C7_7 
REMARK    4  A    between atoms: C7_7  and  O2_9 
REMARK    5  A    between atoms: C10_15  and  C11_16 
REMARK    6  A    between atoms: C11_16  and  C12_17 
REMARK    7  A    between atoms: C12_17  and  C13_18 
REMARK    8  A    between atoms: C13_18  and  O4_20 
ROOT
HETATM    1  C1  UNL     1      18.090   3.541  50.445  1.00  0.00     0.040 C 
HETATM    2  C2  UNL     1      19.607   3.750  50.556  1.00  0.00     0.047 C 
HETATM    3  C3  UNL     1      20.237   2.763  49.643  1.00  0.00     0.069 C 
HETATM    4  C4  UNL     1      21.378   3.580  49.072  1.00  0.00    -0.043 C 
HETATM    5  C8  UNL     1      21.362   4.744  49.735  1.00  0.00     0.080 C 
HETATM    6  N1  UNL     1      19.970   5.056  49.978  1.00  0.00    -0.373 N 
HETATM    7  S1  UNL     1      23.050   5.369  50.026  1.00  0.00    -0.033 SA
HETATM    8  S2  UNL     1      23.429   4.915  52.095  1.00  0.00    -0.032 SA
HETATM    9  C9  UNL     1      22.559   3.357  52.404  1.00  0.00     0.091 A 
HETATM   10  C10 UNL     1      23.293   2.263  52.787  1.00  0.00    -0.011 A 
HETATM   11  C14 UNL     1      22.374   1.249  52.937  1.00  0.00    -0.000 A 
HETATM   12  C15 UNL     1      22.681  -0.042  53.313  1.00  0.00     0.014 A 
HETATM   13  C16 UNL     1      21.600  -0.913  53.402  1.00  0.00     0.001 A 
HETATM   14  C17 UNL     1      20.325  -0.475  53.123  1.00  0.00     0.002 A 
HETATM   15  C18 UNL     1      20.114   0.849  52.752  1.00  0.00     0.030 A 
HETATM   16  C19 UNL     1      21.134   1.775  52.642  1.00  0.00     0.046 A 
HETATM   17  N2  UNL     1      21.236   3.078  52.310  1.00  0.00    -0.337 N 
HETATM   18  C20 UNL     1      19.955   3.675  51.995  1.00  0.00     0.161 C 
HETATM   19  H11 UNL     1      19.238   5.827  49.886  1.00  0.00     0.161 HD
ENDROOT
BRANCH   4  20
HETATM   20  C5  UNL     1      22.321   3.133  47.968  1.00  0.00     0.047 C 
BRANCH  20  21
HETATM   21  C6  UNL     1      21.403   3.108  46.733  1.00  0.00     0.114 C 
BRANCH  21  22
HETATM   22  C7  UNL     1      21.856   4.115  45.758  1.00  0.00     0.139 C 
HETATM   23  O1  UNL     1      22.208   5.218  46.297  1.00  0.00    -0.650 OA
BRANCH  22  24
HETATM   24  O2  UNL     1      22.195   4.766  44.582  1.00  0.00    -0.776 OA
HETATM   25  H10 UNL     1      22.473   4.193  43.767  1.00  0.00     0.167 HD
ENDBRANCH  22  24
ENDBRANCH  21  22
ENDBRANCH  20  21
ENDBRANCH   4  20
BRANCH  10  26
HETATM   26  C11 UNL     1      24.779   2.329  52.961  1.00  0.00     0.053 C 
BRANCH  26  27
HETATM   27  C12 UNL     1      25.368   1.916  51.632  1.00  0.00     0.115 C 
BRANCH  27  28
HETATM   28  C13 UNL     1      26.573   2.705  51.289  1.00  0.00     0.139 C 
HETATM   29  O3  UNL     1      27.645   2.498  51.952  1.00  0.00    -0.650 OA
BRANCH  28  30
HETATM   30  O4  UNL     1      27.222   3.664  50.533  1.00  0.00    -0.776 OA
HETATM   31  H16 UNL     1      26.770   4.045  49.692  1.00  0.00     0.167 HD
ENDBRANCH  28  30
ENDBRANCH  27  28
ENDBRANCH  26  27
ENDBRANCH  10  26
TORSDOF 8
ENDMDL
MODEL 6
REMARK VINA RESULT:      -6.7     10.212     11.857
REMARK  8 active torsions:
REMARK  status: ('A' for Active; 'I' for Inactive)
REMARK    1  A    between atoms: C4_4  and  C5_5 
REMARK    2  A    between atoms: C5_5  and  C6_6 
REMARK    3  A    between atoms: C6_6  and  C7_7 
REMARK    4  A    between atoms: C7_7  and  O2_9 
REMARK    5  A    between atoms: C10_15  and  C11_16 
REMARK    6  A    between atoms: C11_16  and  C12_17 
REMARK    7  A    between atoms: C12_17  and  C13_18 
REMARK    8  A    between atoms: C13_18  and  O4_20 
ROOT
HETATM    1  C1  UNL     1      30.221  11.759  47.033  1.00  0.00     0.040 C 
HETATM    2  C2  UNL     1      31.235  10.606  47.037  1.00  0.00     0.047 C 
HETATM    3  C3  UNL     1      30.960   9.799  45.820  1.00  0.00     0.069 C 
HETATM    4  C4  UNL     1      32.366   9.440  45.385  1.00  0.00    -0.043 C 
HETATM    5  C8  UNL     1      33.176   9.901  46.347  1.00  0.00     0.080 C 
HETATM    6  N1  UNL     1      32.590  11.139  46.815  1.00  0.00    -0.373 N 
HETATM    7  S1  UNL     1      34.590   8.783  46.620  1.00  0.00    -0.033 SA
HETATM    8  S2  UNL     1      34.082   7.726  48.425  1.00  0.00    -0.032 SA
HETATM    9  C9  UNL     1      32.282   7.540  48.373  1.00  0.00     0.091 A 
HETATM   10  C10 UNL     1      31.756   6.274  48.352  1.00  0.00    -0.011 A 
HETATM   11  C14 UNL     1      30.392   6.452  48.308  1.00  0.00    -0.000 A 
HETATM   12  C15 UNL     1      29.465   5.432  48.270  1.00  0.00     0.014 A 
HETATM   13  C16 UNL     1      28.134   5.833  48.225  1.00  0.00     0.001 A 
HETATM   14  C17 UNL     1      27.807   7.170  48.218  1.00  0.00     0.002 A 
HETATM   15  C18 UNL     1      28.814   8.129  48.260  1.00  0.00     0.030 A 
HETATM   16  C19 UNL     1      30.158   7.812  48.306  1.00  0.00     0.046 A 
HETATM   17  N2  UNL     1      31.321   8.495  48.346  1.00  0.00    -0.337 N 
HETATM   18  C20 UNL     1      31.124   9.930  48.350  1.00  0.00     0.161 C 
HETATM   19  H11 UNL     1      32.808  12.163  47.022  1.00  0.00     0.161 HD
ENDROOT
BRANCH   4  20
HETATM   20  C5  UNL     1      32.736   8.709  44.105  1.00  0.00     0.047 C 
BRANCH  20  21
HETATM   21  C6  UNL     1      31.916   7.411  44.212  1.00  0.00     0.114 C 
BRANCH  21  22
HETATM   22  C7  UNL     1      32.715   6.276  43.719  1.00  0.00     0.139 C 
HETATM   23  O1  UNL     1      33.965   6.533  43.646  1.00  0.00    -0.650 OA
BRANCH  22  24
HETATM   24  O2  UNL     1      33.105   5.036  43.239  1.00  0.00    -0.776 OA
HETATM   25  H10 UNL     1      32.814   4.767  42.283  1.00  0.00     0.167 HD
ENDBRANCH  22  24
ENDBRANCH  21  22
ENDBRANCH  20  21
ENDBRANCH   4  20
BRANCH  10  26
HETATM   26  C11 UNL     1      32.626   5.055  48.379  1.00  0.00     0.053 C 
BRANCH  26  27
HETATM   27  C12 UNL     1      32.716   4.582  46.946  1.00  0.00     0.115 C 
BRANCH  27  28
HETATM   28  C13 UNL     1      34.118   4.397  46.509  1.00  0.00     0.139 C 
HETATM   29  O3  UNL     1      34.869   3.616  47.184  1.00  0.00    -0.650 OA
BRANCH  28  30
HETATM   30  O4  UNL     1      35.165   4.661  45.644  1.00  0.00    -0.776 OA
HETATM   31  H16 UNL     1      35.522   5.621  45.550  1.00  0.00     0.167 HD
ENDBRANCH  28  30
ENDBRANCH  27  28
ENDBRANCH  26  27
ENDBRANCH  10  26
TORSDOF 8
ENDMDL
MODEL 7
REMARK VINA RESULT:      -6.6      3.013      4.908
REMARK  8 active torsions:
REMARK  status: ('A' for Active; 'I' for Inactive)
REMARK    1  A    between atoms: C4_4  and  C5_5 
REMARK    2  A    between atoms: C5_5  and  C6_6 
REMARK    3  A    between atoms: C6_6  and  C7_7 
REMARK    4  A    between atoms: C7_7  and  O2_9 
REMARK    5  A    between atoms: C10_15  and  C11_16 
REMARK    6  A    between atoms: C11_16  and  C12_17 
REMARK    7  A    between atoms: C12_17  and  C13_18 
REMARK    8  A    between atoms: C13_18  and  O4_20 
ROOT
HETATM    1  C1  UNL     1      19.717   3.311  46.843  1.00  0.00     0.040 C 
HETATM    2  C2  UNL     1      19.991   2.786  48.260  1.00  0.00     0.047 C 
HETATM    3  C3  UNL     1      19.734   3.918  49.186  1.00  0.00     0.069 C 
HETATM    4  C4  UNL     1      19.074   3.202  50.346  1.00  0.00    -0.043 C 
HETATM    5  C8  UNL     1      19.141   1.895  50.056  1.00  0.00     0.080 C 
HETATM    6  N1  UNL     1      18.971   1.787  48.623  1.00  0.00    -0.373 N 
HETATM    7  S1  UNL     1      19.420   0.893  51.554  1.00  0.00    -0.033 SA
HETATM    8  S2  UNL     1      21.508   0.381  51.461  1.00  0.00    -0.032 SA
HETATM    9  C9  UNL     1      22.313   1.813  50.698  1.00  0.00     0.091 A 
HETATM   10  C10 UNL     1      23.262   2.490  51.421  1.00  0.00    -0.011 A 
HETATM   11  C14 UNL     1      23.679   3.511  50.596  1.00  0.00    -0.000 A 
HETATM   12  C15 UNL     1      24.633   4.450  50.927  1.00  0.00     0.014 A 
HETATM   13  C16 UNL     1      24.904   5.399  49.947  1.00  0.00     0.001 A 
HETATM   14  C17 UNL     1      24.240   5.368  48.742  1.00  0.00     0.002 A 
HETATM   15  C18 UNL     1      23.292   4.380  48.498  1.00  0.00     0.030 A 
HETATM   16  C19 UNL     1      22.967   3.402  49.419  1.00  0.00     0.046 A 
HETATM   17  N2  UNL     1      22.118   2.354  49.472  1.00  0.00    -0.337 N 
HETATM   18  C20 UNL     1      21.351   2.198  48.254  1.00  0.00     0.161 C 
HETATM   19  H11 UNL     1      18.421   1.278  47.864  1.00  0.00     0.161 HD
ENDROOT
BRANCH   4  20
HETATM   20  C5  UNL     1      18.466   3.869  51.569  1.00  0.00     0.047 C 
BRANCH  20  21
HETATM   21  C6  UNL     1      16.994   4.047  51.156  1.00  0.00     0.114 C 
BRANCH  21  22
HETATM   22  C7  UNL     1      16.158   4.208  52.358  1.00  0.00     0.139 C 
HETATM   23  O1  UNL     1      15.279   3.290  52.489  1.00  0.00    -0.650 OA
BRANCH  22  24
HETATM   24  O2  UNL     1      15.603   4.685  53.535  1.00  0.00    -0.776 OA
HETATM   25  H10 UNL     1      16.185   5.287  54.143  1.00  0.00     0.167 HD
ENDBRANCH  22  24
ENDBRANCH  21  22
ENDBRANCH  20  21
ENDBRANCH   4  20
BRANCH  10  26
HETATM   26  C11 UNL     1      23.649   2.073  52.805  1.00  0.00     0.053 C 
BRANCH  26  27
HETATM   27  C12 UNL     1      24.888   1.222  52.649  1.00  0.00     0.115 C 
BRANCH  27  28
HETATM   28  C13 UNL     1      26.115   1.947  53.050  1.00  0.00     0.139 C 
HETATM   29  O3  UNL     1      27.030   2.124  52.177  1.00  0.00    -0.650 OA
BRANCH  28  30
HETATM   30  O4  UNL     1      26.879   2.613  53.991  1.00  0.00    -0.776 OA
HETATM   31  H16 UNL     1      26.893   2.284  54.965  1.00  0.00     0.167 HD
ENDBRANCH  28  30
ENDBRANCH  27  28
ENDBRANCH  26  27
ENDBRANCH  10  26
TORSDOF 8
ENDMDL
MODEL 8
REMARK VINA RESULT:      -6.4      3.795      6.201
REMARK  8 active torsions:
REMARK  status: ('A' for Active; 'I' for Inactive)
REMARK    1  A    between atoms: C4_4  and  C5_5 
REMARK    2  A    between atoms: C5_5  and  C6_6 
REMARK    3  A    between atoms: C6_6  and  C7_7 
REMARK    4  A    between atoms: C7_7  and  O2_9 
REMARK    5  A    between atoms: C10_15  and  C11_16 
REMARK    6  A    between atoms: C11_16  and  C12_17 
REMARK    7  A    between atoms: C12_17  and  C13_18 
REMARK    8  A    between atoms: C13_18  and  O4_20 
ROOT
HETATM    1  C1  UNL     1      23.087   1.370  51.439  1.00  0.00     0.040 C 
HETATM    2  C2  UNL     1      22.615   2.726  50.895  1.00  0.00     0.047 C 
HETATM    3  C3  UNL     1      22.632   2.615  49.414  1.00  0.00     0.069 C 
HETATM    4  C4  UNL     1      21.382   3.390  49.050  1.00  0.00    -0.043 C 
HETATM    5  C8  UNL     1      20.924   3.908  50.198  1.00  0.00     0.080 C 
HETATM    6  N1  UNL     1      21.193   2.924  51.224  1.00  0.00    -0.373 N 
HETATM    7  S1  UNL     1      20.209   5.566  49.943  1.00  0.00    -0.033 SA
HETATM    8  S2  UNL     1      21.726   6.908  50.671  1.00  0.00    -0.032 SA
HETATM    9  C9  UNL     1      23.299   6.106  50.270  1.00  0.00     0.091 A 
HETATM   10  C10 UNL     1      24.166   6.753  49.427  1.00  0.00    -0.011 A 
HETATM   11  C14 UNL     1      25.248   5.910  49.310  1.00  0.00    -0.000 A 
HETATM   12  C15 UNL     1      26.366   6.166  48.544  1.00  0.00     0.014 A 
HETATM   13  C16 UNL     1      27.345   5.178  48.563  1.00  0.00     0.001 A 
HETATM   14  C17 UNL     1      27.168   4.035  49.309  1.00  0.00     0.002 A 
HETATM   15  C18 UNL     1      26.004   3.866  50.053  1.00  0.00     0.030 A 
HETATM   16  C19 UNL     1      24.987   4.800  50.086  1.00  0.00     0.046 A 
HETATM   17  N2  UNL     1      23.783   4.911  50.685  1.00  0.00    -0.337 N 
HETATM   18  C20 UNL     1      23.467   3.768  51.516  1.00  0.00     0.161 C 
HETATM   19  H11 UNL     1      20.745   2.384  52.028  1.00  0.00     0.161 HD
ENDROOT
BRANCH   4  20
HETATM   20  C5  UNL     1      20.798   3.522  47.653  1.00  0.00     0.047 C 
BRANCH  20  21
HETATM   21  C6  UNL     1      22.034   3.333  46.755  1.00  0.00     0.114 C 
BRANCH  21  22
HETATM   22  C7  UNL     1      21.698   3.696  45.367  1.00  0.00     0.139 C 
HETATM   23  O1  UNL     1      21.994   4.905  45.075  1.00  0.00    -0.650 OA
BRANCH  22  24
HETATM   24  O2  UNL     1      21.254   3.656  44.054  1.00  0.00    -0.776 OA
HETATM   25  H10 UNL     1      20.573   4.372  43.746  1.00  0.00     0.167 HD
ENDBRANCH  22  24
ENDBRANCH  21  22
ENDBRANCH  20  21
ENDBRANCH   4  20
BRANCH  10  26
HETATM   26  C11 UNL     1      23.848   8.094  48.842  1.00  0.00     0.053 C 
BRANCH  26  27
HETATM   27  C12 UNL     1      23.628   7.858  47.365  1.00  0.00     0.115 C 
BRANCH  27  28
HETATM   28  C13 UNL     1      22.190   7.764  47.026  1.00  0.00     0.139 C 
HETATM   29  O3  UNL     1      21.558   8.839  46.748  1.00  0.00    -0.650 OA
BRANCH  28  30
HETATM   30  O4  UNL     1      21.034   7.030  46.828  1.00  0.00    -0.776 OA
HETATM   31  H16 UNL     1      20.117   7.460  47.006  1.00  0.00     0.167 HD
ENDBRANCH  28  30
ENDBRANCH  27  28
ENDBRANCH  26  27
ENDBRANCH  10  26
TORSDOF 8
ENDMDL
MODEL 9
REMARK VINA RESULT:      -6.2      5.377      6.953
REMARK  8 active torsions:
REMARK  status: ('A' for Active; 'I' for Inactive)
REMARK    1  A    between atoms: C4_4  and  C5_5 
REMARK    2  A    between atoms: C5_5  and  C6_6 
REMARK    3  A    between atoms: C6_6  and  C7_7 
REMARK    4  A    between atoms: C7_7  and  O2_9 
REMARK    5  A    between atoms: C10_15  and  C11_16 
REMARK    6  A    between atoms: C11_16  and  C12_17 
REMARK    7  A    between atoms: C12_17  and  C13_18 
REMARK    8  A    between atoms: C13_18  and  O4_20 
ROOT
HETATM    1  C1  UNL     1      21.304   4.927  49.740  1.00  0.00     0.040 C 
HETATM    2  C2  UNL     1      22.045   6.073  49.038  1.00  0.00     0.047 C 
HETATM    3  C3  UNL     1      22.417   5.572  47.690  1.00  0.00     0.069 C 
HETATM    4  C4  UNL     1      22.184   6.807  46.845  1.00  0.00    -0.043 C 
HETATM    5  C8  UNL     1      21.879   7.788  47.706  1.00  0.00     0.080 C 
HETATM    6  N1  UNL     1      21.106   7.175  48.764  1.00  0.00    -0.373 N 
HETATM    7  S1  UNL     1      22.570   9.387  47.166  1.00  0.00    -0.033 SA
HETATM    8  S2  UNL     1      24.290   9.668  48.429  1.00  0.00    -0.032 SA
HETATM    9  C9  UNL     1      24.951   8.004  48.704  1.00  0.00     0.091 A 
HETATM   10  C10 UNL     1      26.224   7.727  48.274  1.00  0.00    -0.011 A 
HETATM   11  C14 UNL     1      26.437   6.410  48.612  1.00  0.00    -0.000 A 
HETATM   12  C15 UNL     1      27.598   5.710  48.358  1.00  0.00     0.014 A 
HETATM   13  C16 UNL     1      27.604   4.385  48.781  1.00  0.00     0.001 A 
HETATM   14  C17 UNL     1      26.502   3.846  49.405  1.00  0.00     0.002 A 
HETATM   15  C18 UNL     1      25.374   4.632  49.618  1.00  0.00     0.030 A 
HETATM   16  C19 UNL     1      25.290   5.955  49.229  1.00  0.00     0.046 A 
HETATM   17  N2  UNL     1      24.364   6.934  49.292  1.00  0.00    -0.337 N 
HETATM   18  C20 UNL     1      23.141   6.503  49.938  1.00  0.00     0.161 C 
HETATM   19  H11 UNL     1      20.204   7.266  49.325  1.00  0.00     0.161 HD
ENDROOT
BRANCH   4  20
HETATM   20  C5  UNL     1      22.283   6.875  45.330  1.00  0.00     0.047 C 
BRANCH  20  21
HETATM   21  C6  UNL     1      23.756   7.258  45.107  1.00  0.00     0.114 C 
BRANCH  21  22
HETATM   22  C7  UNL     1      23.982   7.553  43.681  1.00  0.00     0.139 C 
HETATM   23  O1  UNL     1      25.180   7.915  43.424  1.00  0.00    -0.650 OA
BRANCH  22  24
HETATM   24  O2  UNL     1      23.805   7.732  42.318  1.00  0.00    -0.776 OA
HETATM   25  H10 UNL     1      24.398   7.184  41.671  1.00  0.00     0.167 HD
ENDBRANCH  22  24
ENDBRANCH  21  22
ENDBRANCH  20  21
ENDBRANCH   4  20
BRANCH  10  26
HETATM   26  C11 UNL     1      27.072   8.758  47.596  1.00  0.00     0.053 C 
BRANCH  26  27
HETATM   27  C12 UNL     1      28.254   8.985  48.510  1.00  0.00     0.115 C 
BRANCH  27  28
HETATM   28  C13 UNL     1      27.867   9.688  49.754  1.00  0.00     0.139 C 
HETATM   29  O3  UNL     1      27.583  10.931  49.688  1.00  0.00    -0.650 OA
BRANCH  28  30
HETATM   30  O4  UNL     1      27.623   9.701  51.116  1.00  0.00    -0.776 OA
HETATM   31  H16 UNL     1      28.195   9.121  51.744  1.00  0.00     0.167 HD
ENDBRANCH  28  30
ENDBRANCH  27  28
ENDBRANCH  26  27
ENDBRANCH  10  26
TORSDOF 8
ENDMDL
