MODEL 1
REMARK VINA RESULT:      -8.0      0.000      0.000
REMARK  5 active torsions:
REMARK  status: ('A' for Active; 'I' for Inactive)
REMARK    1  A    between atoms: N1_2  and  C2_3 
REMARK    2  A    between atoms: C3_5  and  N3_6 
REMARK    3  A    between atoms: N3_6  and  C4_7 
REMARK    4  A    between atoms: C12_17  and  C13_18 
REMARK    5  A    between atoms: C15_20  and  O1_21 
ROOT
HETATM    1  C2  UNL     1      23.237   5.434  50.698  1.00  0.00     0.720 A 
HETATM    2  N2  UNL     1      23.566   4.286  51.136  1.00  0.00    -0.074 NA
HETATM    3  C3  UNL     1      24.810   3.615  50.789  1.00  0.00     0.263 A 
HETATM    4  C10 UNL     1      25.617   4.435  49.878  1.00  0.00     0.029 A 
HETATM    5  C11 UNL     1      26.797   4.097  49.385  1.00  0.00     0.097 A 
HETATM    6  N4  UNL     1      27.260   5.148  48.543  1.00  0.00    -0.384 N 
HETATM    7  C12 UNL     1      26.288   6.225  48.512  1.00  0.00     0.164 A 
HETATM    8  C19 UNL     1      25.207   5.752  49.392  1.00  0.00     0.092 A 
HETATM    9  N5  UNL     1      24.065   6.180  49.813  1.00  0.00    -0.065 NA
HETATM   10  H12 UNL     1      28.120   5.262  47.987  1.00  0.00     0.160 HD
ENDROOT
BRANCH   3  11
HETATM   11  N3  UNL     1      25.501   3.227  51.980  1.00  0.00    -0.363 N 
HETATM   12  H6  UNL     1      25.942   3.932  52.609  1.00  0.00     0.162 HD
BRANCH  11  13
HETATM   13  C4  UNL     1      25.596   1.852  52.327  1.00  0.00     0.031 A 
HETATM   14  C5  UNL     1      26.724   1.108  52.066  1.00  0.00     0.029 A 
HETATM   15  C6  UNL     1      26.745  -0.240  52.437  1.00  0.00     0.004 A 
HETATM   16  C7  UNL     1      25.693  -0.875  53.056  1.00  0.00     0.019 A 
HETATM   17  C8  UNL     1      24.542  -0.139  53.330  1.00  0.00     0.013 A 
HETATM   18 BR1  UNL     1      22.991  -0.881  54.189  1.00  0.00    -0.051 Br
HETATM   19  C9  UNL     1      24.547   1.198  52.951  1.00  0.00     0.048 A 
ENDBRANCH  11  13
ENDBRANCH   3  11
BRANCH   1  20
HETATM   20  N1  UNL     1      21.972   5.966  51.133  1.00  0.00    -0.227 N 
HETATM   21  C1  UNL     1      21.591   7.351  50.820  1.00  0.00     0.165 C 
HETATM   22  H4  UNL     1      21.362   5.314  51.672  1.00  0.00     0.177 HD
ENDBRANCH   1  20
BRANCH   7  23
HETATM   23  C13 UNL     1      26.975   7.429  49.044  1.00  0.00    -0.045 A 
HETATM   24  C14 UNL     1      28.141   7.876  48.645  1.00  0.00     0.042 A 
HETATM   25  C15 UNL     1      28.468   9.077  49.407  1.00  0.00     0.065 A 
HETATM   26  C17 UNL     1      27.471   9.331  50.263  1.00  0.00     0.014 A 
HETATM   27  C18 UNL     1      26.396   8.296  50.123  1.00  0.00     0.066 A 
BRANCH  25  28
HETATM   28  O1  UNL     1      29.652   9.770  49.200  1.00  0.00    -0.356 OA
HETATM   29  C16 UNL     1      30.858   9.056  49.328  1.00  0.00     0.210 C 
ENDBRANCH  25  28
ENDBRANCH   7  23
TORSDOF 5
ENDMDL
MODEL 2
REMARK VINA RESULT:      -7.7      1.993      2.540
REMARK  5 active torsions:
REMARK  status: ('A' for Active; 'I' for Inactive)
REMARK    1  A    between atoms: N1_2  and  C2_3 
REMARK    2  A    between atoms: C3_5  and  N3_6 
REMARK    3  A    between atoms: N3_6  and  C4_7 
REMARK    4  A    between atoms: C12_17  and  C13_18 
REMARK    5  A    between atoms: C15_20  and  O1_21 
ROOT
HETATM    1  C2  UNL     1      22.856   3.589  51.766  1.00  0.00     0.720 A 
HETATM    2  N2  UNL     1      23.712   2.794  52.271  1.00  0.00    -0.074 NA
HETATM    3  C3  UNL     1      25.083   2.676  51.797  1.00  0.00     0.263 A 
HETATM    4  C10 UNL     1      25.335   3.587  50.674  1.00  0.00     0.029 A 
HETATM    5  C11 UNL     1      26.484   3.710  50.031  1.00  0.00     0.097 A 
HETATM    6  N4  UNL     1      26.334   4.689  49.007  1.00  0.00    -0.384 N 
HETATM    7  C12 UNL     1      24.982   5.215  49.019  1.00  0.00     0.164 A 
HETATM    8  C19 UNL     1      24.326   4.488  50.117  1.00  0.00     0.092 A 
HETATM    9  N5  UNL     1      23.163   4.447  50.675  1.00  0.00    -0.065 NA
HETATM   10  H12 UNL     1      26.988   5.062  48.305  1.00  0.00     0.160 HD
ENDROOT
BRANCH   3  11
HETATM   11  N3  UNL     1      25.990   2.844  52.890  1.00  0.00    -0.363 N 
HETATM   12  H6  UNL     1      25.928   3.665  53.530  1.00  0.00     0.162 HD
BRANCH  11  13
HETATM   13  C4  UNL     1      27.005   1.876  53.123  1.00  0.00     0.031 A 
HETATM   14  C5  UNL     1      28.231   2.214  53.648  1.00  0.00     0.029 A 
HETATM   15  C6  UNL     1      29.180   1.208  53.850  1.00  0.00     0.004 A 
HETATM   16  C7  UNL     1      28.960  -0.118  53.552  1.00  0.00     0.019 A 
HETATM   17  C8  UNL     1      27.724  -0.480  53.020  1.00  0.00     0.013 A 
HETATM   18 BR1  UNL     1      27.263  -2.287  52.554  1.00  0.00    -0.051 Br
HETATM   19  C9  UNL     1      26.799   0.539  52.830  1.00  0.00     0.048 A 
ENDBRANCH  11  13
ENDBRANCH   3  11
BRANCH   1  20
HETATM   20  N1  UNL     1      21.538   3.590  52.345  1.00  0.00    -0.227 N 
HETATM   21  C1  UNL     1      20.342   3.566  51.492  1.00  0.00     0.165 C 
HETATM   22  H4  UNL     1      21.496   3.609  53.387  1.00  0.00     0.177 HD
ENDBRANCH   1  20
BRANCH   7  23
HETATM   23  C13 UNL     1      25.098   6.672  49.284  1.00  0.00    -0.045 A 
HETATM   24  C14 UNL     1      26.167   7.278  49.737  1.00  0.00     0.042 A 
HETATM   25  C15 UNL     1      25.881   8.704  49.862  1.00  0.00     0.065 A 
HETATM   26  C17 UNL     1      24.620   8.927  49.472  1.00  0.00     0.014 A 
HETATM   27  C18 UNL     1      23.975   7.640  49.056  1.00  0.00     0.066 A 
BRANCH  25  28
HETATM   28  O1  UNL     1      26.835   9.599  50.323  1.00  0.00    -0.356 OA
HETATM   29  C16 UNL     1      28.149   9.462  49.837  1.00  0.00     0.210 C 
ENDBRANCH  25  28
ENDBRANCH   7  23
TORSDOF 5
ENDMDL
MODEL 3
REMARK VINA RESULT:      -7.5      4.974      7.777
REMARK  5 active torsions:
REMARK  status: ('A' for Active; 'I' for Inactive)
REMARK    1  A    between atoms: N1_2  and  C2_3 
REMARK    2  A    between atoms: C3_5  and  N3_6 
REMARK    3  A    between atoms: N3_6  and  C4_7 
REMARK    4  A    between atoms: C12_17  and  C13_18 
REMARK    5  A    between atoms: C15_20  and  O1_21 
ROOT
HETATM    1  C2  UNL     1      21.203   1.192  49.870  1.00  0.00     0.720 A 
HETATM    2  N2  UNL     1      20.304   1.961  50.339  1.00  0.00    -0.074 NA
HETATM    3  C3  UNL     1      19.968   2.042  51.753  1.00  0.00     0.263 A 
HETATM    4  C10 UNL     1      20.797   1.128  52.547  1.00  0.00     0.029 A 
HETATM    5  C11 UNL     1      20.726   0.975  53.860  1.00  0.00     0.097 A 
HETATM    6  N4  UNL     1      21.686   0.002  54.259  1.00  0.00    -0.384 N 
HETATM    7  C12 UNL     1      22.410  -0.488  53.101  1.00  0.00     0.164 A 
HETATM    8  C19 UNL     1      21.822   0.255  51.975  1.00  0.00     0.092 A 
HETATM    9  N5  UNL     1      21.973   0.326  50.695  1.00  0.00    -0.065 NA
HETATM   10  H12 UNL     1      21.936  -0.387  55.180  1.00  0.00     0.160 HD
ENDROOT
BRANCH   3  11
HETATM   11  N3  UNL     1      20.030   3.403  52.189  1.00  0.00    -0.363 N 
HETATM   12  H6  UNL     1      19.245   3.843  52.716  1.00  0.00     0.162 HD
BRANCH  11  13
HETATM   13  C4  UNL     1      21.182   4.186  51.905  1.00  0.00     0.031 A 
HETATM   14  C5  UNL     1      22.415   3.895  52.441  1.00  0.00     0.029 A 
HETATM   15  C6  UNL     1      23.502   4.710  52.116  1.00  0.00     0.004 A 
HETATM   16  C7  UNL     1      23.413   5.801  51.282  1.00  0.00     0.019 A 
HETATM   17  C8  UNL     1      22.173   6.113  50.729  1.00  0.00     0.013 A 
HETATM   18 BR1  UNL     1      21.886   7.601  49.546  1.00  0.00    -0.051 Br
HETATM   19  C9  UNL     1      21.109   5.286  51.068  1.00  0.00     0.048 A 
ENDBRANCH  11  13
ENDBRANCH   3  11
BRANCH   1  20
HETATM   20  N1  UNL     1      21.419   1.224  48.447  1.00  0.00    -0.227 N 
HETATM   21  C1  UNL     1      22.341   2.201  47.849  1.00  0.00     0.165 C 
HETATM   22  H4  UNL     1      20.889   0.523  47.887  1.00  0.00     0.177 HD
ENDBRANCH   1  20
BRANCH   7  23
HETATM   23  C13 UNL     1      23.840  -0.154  53.324  1.00  0.00    -0.045 A 
HETATM   24  C14 UNL     1      24.613  -0.699  54.230  1.00  0.00     0.042 A 
HETATM   25  C15 UNL     1      25.943  -0.105  54.129  1.00  0.00     0.065 A 
HETATM   26  C17 UNL     1      25.939   0.799  53.143  1.00  0.00     0.014 A 
HETATM   27  C18 UNL     1      24.581   0.869  52.514  1.00  0.00     0.066 A 
BRANCH  25  28
HETATM   28  O1  UNL     1      26.977  -0.490  54.971  1.00  0.00    -0.356 OA
HETATM   29  C16 UNL     1      28.213   0.168  54.832  1.00  0.00     0.210 C 
ENDBRANCH  25  28
ENDBRANCH   7  23
TORSDOF 5
ENDMDL
MODEL 4
REMARK VINA RESULT:      -7.5      3.595      5.390
REMARK  5 active torsions:
REMARK  status: ('A' for Active; 'I' for Inactive)
REMARK    1  A    between atoms: N1_2  and  C2_3 
REMARK    2  A    between atoms: C3_5  and  N3_6 
REMARK    3  A    between atoms: N3_6  and  C4_7 
REMARK    4  A    between atoms: C12_17  and  C13_18 
REMARK    5  A    between atoms: C15_20  and  O1_21 
ROOT
HETATM    1  C2  UNL     1      26.111   4.662  49.613  1.00  0.00     0.720 A 
HETATM    2  N2  UNL     1      25.791   3.777  50.470  1.00  0.00    -0.074 NA
HETATM    3  C3  UNL     1      24.418   3.473  50.844  1.00  0.00     0.263 A 
HETATM    4  C10 UNL     1      23.470   4.317  50.107  1.00  0.00     0.029 A 
HETATM    5  C11 UNL     1      22.154   4.276  50.230  1.00  0.00     0.097 A 
HETATM    6  N4  UNL     1      21.582   5.244  49.354  1.00  0.00    -0.384 N 
HETATM    7  C12 UNL     1      22.630   5.939  48.630  1.00  0.00     0.164 A 
HETATM    8  C19 UNL     1      23.873   5.327  49.129  1.00  0.00     0.092 A 
HETATM    9  N5  UNL     1      25.142   5.449  48.932  1.00  0.00    -0.065 NA
HETATM   10  H12 UNL     1      20.607   5.513  49.162  1.00  0.00     0.160 HD
ENDROOT
BRANCH   3  11
HETATM   11  N3  UNL     1      24.175   2.071  50.701  1.00  0.00    -0.363 N 
HETATM   12  H6  UNL     1      23.902   1.656  49.784  1.00  0.00     0.162 HD
BRANCH  11  13
HETATM   13  C4  UNL     1      24.305   1.210  51.824  1.00  0.00     0.031 A 
HETATM   14  C5  UNL     1      25.527   0.745  52.252  1.00  0.00     0.029 A 
HETATM   15  C6  UNL     1      25.577  -0.098  53.366  1.00  0.00     0.004 A 
HETATM   16  C7  UNL     1      24.463  -0.496  54.070  1.00  0.00     0.019 A 
HETATM   17  C8  UNL     1      23.215  -0.035  53.652  1.00  0.00     0.013 A 
HETATM   18 BR1  UNL     1      21.569  -0.500  54.529  1.00  0.00    -0.051 Br
HETATM   19  C9  UNL     1      23.194   0.801  52.543  1.00  0.00     0.048 A 
ENDBRANCH  11  13
ENDBRANCH   3  11
BRANCH   1  20
HETATM   20  N1  UNL     1      27.514   4.846  49.350  1.00  0.00    -0.227 N 
HETATM   21  C1  UNL     1      27.971   5.831  48.359  1.00  0.00     0.165 C 
HETATM   22  H4  UNL     1      28.166   4.245  49.900  1.00  0.00     0.177 HD
ENDBRANCH   1  20
BRANCH   7  23
HETATM   23  C13 UNL     1      22.397   5.671  47.188  1.00  0.00    -0.045 A 
HETATM   24  C14 UNL     1      21.996   4.531  46.683  1.00  0.00     0.042 A 
HETATM   25  C15 UNL     1      21.887   4.672  45.235  1.00  0.00     0.065 A 
HETATM   26  C17 UNL     1      22.230   5.920  44.895  1.00  0.00     0.014 A 
HETATM   27  C18 UNL     1      22.598   6.704  46.118  1.00  0.00     0.066 A 
BRANCH  25  28
HETATM   28  O1  UNL     1      21.482   3.617  44.430  1.00  0.00    -0.356 OA
HETATM   29  C16 UNL     1      20.475   3.868  43.480  1.00  0.00     0.210 C 
ENDBRANCH  25  28
ENDBRANCH   7  23
TORSDOF 5
ENDMDL
MODEL 5
REMARK VINA RESULT:      -7.4      2.810      3.631
REMARK  5 active torsions:
REMARK  status: ('A' for Active; 'I' for Inactive)
REMARK    1  A    between atoms: N1_2  and  C2_3 
REMARK    2  A    between atoms: C3_5  and  N3_6 
REMARK    3  A    between atoms: N3_6  and  C4_7 
REMARK    4  A    between atoms: C12_17  and  C13_18 
REMARK    5  A    between atoms: C15_20  and  O1_21 
ROOT
HETATM    1  C2  UNL     1      22.008   2.880  48.888  1.00  0.00     0.720 A 
HETATM    2  N2  UNL     1      21.942   2.043  49.844  1.00  0.00    -0.074 NA
HETATM    3  C3  UNL     1      22.962   1.910  50.874  1.00  0.00     0.263 A 
HETATM    4  C10 UNL     1      24.058   2.862  50.658  1.00  0.00     0.029 A 
HETATM    5  C11 UNL     1      25.129   2.982  51.426  1.00  0.00     0.097 A 
HETATM    6  N4  UNL     1      25.961   4.008  50.893  1.00  0.00    -0.384 N 
HETATM    7  C12 UNL     1      25.356   4.568  49.700  1.00  0.00     0.164 A 
HETATM    8  C19 UNL     1      24.103   3.811  49.547  1.00  0.00     0.092 A 
HETATM    9  N5  UNL     1      23.102   3.777  48.734  1.00  0.00    -0.065 NA
HETATM   10  H12 UNL     1      26.866   4.393  51.199  1.00  0.00     0.160 HD
ENDROOT
BRANCH   3  11
HETATM   11  N3  UNL     1      22.360   2.006  52.167  1.00  0.00    -0.363 N 
HETATM   12  H6  UNL     1      22.215   2.928  52.634  1.00  0.00     0.162 HD
BRANCH  11  13
HETATM   13  C4  UNL     1      21.943   0.828  52.845  1.00  0.00     0.031 A 
HETATM   14  C5  UNL     1      22.814   0.065  53.588  1.00  0.00     0.029 A 
HETATM   15  C6  UNL     1      22.332  -1.080  54.228  1.00  0.00     0.004 A 
HETATM   16  C7  UNL     1      21.022  -1.498  54.157  1.00  0.00     0.019 A 
HETATM   17  C8  UNL     1      20.125  -0.738  53.409  1.00  0.00     0.013 A 
HETATM   18 BR1  UNL     1      18.266  -1.187  53.215  1.00  0.00    -0.051 Br
HETATM   19  C9  UNL     1      20.629   0.395  52.785  1.00  0.00     0.048 A 
ENDBRANCH  11  13
ENDBRANCH   3  11
BRANCH   1  20
HETATM   20  N1  UNL     1      20.920   2.891  47.946  1.00  0.00    -0.227 N 
HETATM   21  C1  UNL     1      21.050   3.580  46.654  1.00  0.00     0.165 C 
HETATM   22  H4  UNL     1      20.055   2.387  48.240  1.00  0.00     0.177 HD
ENDBRANCH   1  20
BRANCH   7  23
HETATM   23  C13 UNL     1      25.125   6.008  49.979  1.00  0.00    -0.045 A 
HETATM   24  C14 UNL     1      25.999   6.967  49.793  1.00  0.00     0.042 A 
HETATM   25  C15 UNL     1      25.393   8.236  50.184  1.00  0.00     0.065 A 
HETATM   26  C17 UNL     1      24.144   8.007  50.604  1.00  0.00     0.014 A 
HETATM   27  C18 UNL     1      23.832   6.544  50.518  1.00  0.00     0.066 A 
BRANCH  25  28
HETATM   28  O1  UNL     1      26.091   9.432  50.095  1.00  0.00    -0.356 OA
HETATM   29  C16 UNL     1      27.496   9.375  50.154  1.00  0.00     0.210 C 
ENDBRANCH  25  28
ENDBRANCH   7  23
TORSDOF 5
ENDMDL
MODEL 6
REMARK VINA RESULT:      -7.4      3.284      4.595
REMARK  5 active torsions:
REMARK  status: ('A' for Active; 'I' for Inactive)
REMARK    1  A    between atoms: N1_2  and  C2_3 
REMARK    2  A    between atoms: C3_5  and  N3_6 
REMARK    3  A    between atoms: N3_6  and  C4_7 
REMARK    4  A    between atoms: C12_17  and  C13_18 
REMARK    5  A    between atoms: C15_20  and  O1_21 
ROOT
HETATM    1  C2  UNL     1      22.995   1.545  51.451  1.00  0.00     0.720 A 
HETATM    2  N2  UNL     1      24.071   1.093  51.958  1.00  0.00    -0.074 NA
HETATM    3  C3  UNL     1      25.389   1.648  51.686  1.00  0.00     0.263 A 
HETATM    4  C10 UNL     1      25.303   2.783  50.759  1.00  0.00     0.029 A 
HETATM    5  C11 UNL     1      26.330   3.494  50.323  1.00  0.00     0.097 A 
HETATM    6  N4  UNL     1      25.846   4.504  49.442  1.00  0.00    -0.384 N 
HETATM    7  C12 UNL     1      24.403   4.411  49.325  1.00  0.00     0.164 A 
HETATM    8  C19 UNL     1      24.048   3.276  50.193  1.00  0.00     0.092 A 
HETATM    9  N5  UNL     1      22.980   2.650  50.556  1.00  0.00    -0.065 NA
HETATM   10  H12 UNL     1      26.324   5.244  48.909  1.00  0.00     0.160 HD
ENDROOT
BRANCH   3  11
HETATM   11  N3  UNL     1      26.049   1.957  52.916  1.00  0.00    -0.363 N 
HETATM   12  H6  UNL     1      25.643   2.634  53.599  1.00  0.00     0.162 HD
BRANCH  11  13
HETATM   13  C4  UNL     1      27.288   1.335  53.232  1.00  0.00     0.031 A 
HETATM   14  C5  UNL     1      28.365   2.049  53.704  1.00  0.00     0.029 A 
HETATM   15  C6  UNL     1      29.551   1.369  53.993  1.00  0.00     0.004 A 
HETATM   16  C7  UNL     1      29.710   0.011  53.831  1.00  0.00     0.019 A 
HETATM   17  C8  UNL     1      28.630  -0.729  53.353  1.00  0.00     0.013 A 
HETATM   18 BR1  UNL     1      28.693  -2.630  53.074  1.00  0.00    -0.051 Br
HETATM   19  C9  UNL     1      27.463  -0.029  53.074  1.00  0.00     0.048 A 
ENDBRANCH  11  13
ENDBRANCH   3  11
BRANCH   1  20
HETATM   20  N1  UNL     1      21.768   0.888  51.817  1.00  0.00    -0.227 N 
HETATM   21  C1  UNL     1      21.774  -0.254  52.743  1.00  0.00     0.165 C 
HETATM   22  H4  UNL     1      20.898   1.272  51.390  1.00  0.00     0.177 HD
ENDBRANCH   1  20
BRANCH   7  23
HETATM   23  C13 UNL     1      23.855   5.701  49.814  1.00  0.00    -0.045 A 
HETATM   24  C14 UNL     1      22.603   6.077  49.725  1.00  0.00     0.042 A 
HETATM   25  C15 UNL     1      22.468   7.403  50.320  1.00  0.00     0.065 A 
HETATM   26  C17 UNL     1      23.665   7.802  50.763  1.00  0.00     0.014 A 
HETATM   27  C18 UNL     1      24.694   6.748  50.486  1.00  0.00     0.066 A 
BRANCH  25  28
HETATM   28  O1  UNL     1      21.245   8.058  50.365  1.00  0.00    -0.356 OA
HETATM   29  C16 UNL     1      20.937   8.941  49.314  1.00  0.00     0.210 C 
ENDBRANCH  25  28
ENDBRANCH   7  23
TORSDOF 5
ENDMDL
MODEL 7
REMARK VINA RESULT:      -7.4      5.516      8.702
REMARK  5 active torsions:
REMARK  status: ('A' for Active; 'I' for Inactive)
REMARK    1  A    between atoms: N1_2  and  C2_3 
REMARK    2  A    between atoms: C3_5  and  N3_6 
REMARK    3  A    between atoms: N3_6  and  C4_7 
REMARK    4  A    between atoms: C12_17  and  C13_18 
REMARK    5  A    between atoms: C15_20  and  O1_21 
ROOT
HETATM    1  C2  UNL     1      30.971   8.197  45.338  1.00  0.00     0.720 A 
HETATM    2  N2  UNL     1      32.059   8.485  45.930  1.00  0.00    -0.074 NA
HETATM    3  C3  UNL     1      32.152   8.783  47.352  1.00  0.00     0.263 A 
HETATM    4  C10 UNL     1      30.835   8.704  47.995  1.00  0.00     0.029 A 
HETATM    5  C11 UNL     1      30.596   8.922  49.278  1.00  0.00     0.097 A 
HETATM    6  N4  UNL     1      29.203   8.753  49.519  1.00  0.00    -0.384 N 
HETATM    7  C12 UNL     1      28.524   8.402  48.285  1.00  0.00     0.164 A 
HETATM    8  C19 UNL     1      29.602   8.371  47.284  1.00  0.00     0.092 A 
HETATM    9  N5  UNL     1      29.724   8.139  46.020  1.00  0.00    -0.065 NA
HETATM   10  H12 UNL     1      28.633   8.834  50.373  1.00  0.00     0.160 HD
ENDROOT
BRANCH   3  11
HETATM   11  N3  UNL     1      33.141   7.947  47.959  1.00  0.00    -0.363 N 
HETATM   12  H6  UNL     1      33.900   8.344  48.554  1.00  0.00     0.162 HD
BRANCH  11  13
HETATM   13  C4  UNL     1      33.102   6.540  47.755  1.00  0.00     0.031 A 
HETATM   14  C5  UNL     1      32.273   5.719  48.483  1.00  0.00     0.029 A 
HETATM   15  C6  UNL     1      32.289   4.345  48.227  1.00  0.00     0.004 A 
HETATM   16  C7  UNL     1      33.095   3.756  47.279  1.00  0.00     0.019 A 
HETATM   17  C8  UNL     1      33.942   4.572  46.532  1.00  0.00     0.013 A 
HETATM   18 BR1  UNL     1      35.125   3.902  45.173  1.00  0.00    -0.051 Br
HETATM   19  C9  UNL     1      33.906   5.933  46.806  1.00  0.00     0.048 A 
ENDBRANCH  11  13
ENDBRANCH   3  11
BRANCH   1  20
HETATM   20  N1  UNL     1      31.041   7.927  43.926  1.00  0.00    -0.227 N 
HETATM   21  C1  UNL     1      32.275   7.405  43.320  1.00  0.00     0.165 C 
HETATM   22  H4  UNL     1      30.175   8.124  43.378  1.00  0.00     0.177 HD
ENDBRANCH   1  20
BRANCH   7  23
HETATM   23  C13 UNL     1      27.909   7.069  48.507  1.00  0.00    -0.045 A 
HETATM   24  C14 UNL     1      26.678   6.858  48.906  1.00  0.00     0.042 A 
HETATM   25  C15 UNL     1      26.457   5.418  49.001  1.00  0.00     0.065 A 
HETATM   26  C17 UNL     1      27.581   4.783  48.649  1.00  0.00     0.014 A 
HETATM   27  C18 UNL     1      28.643   5.778  48.291  1.00  0.00     0.066 A 
BRANCH  25  28
HETATM   28  O1  UNL     1      25.236   4.896  49.404  1.00  0.00    -0.356 OA
HETATM   29  C16 UNL     1      24.087   5.305  48.703  1.00  0.00     0.210 C 
ENDBRANCH  25  28
ENDBRANCH   7  23
TORSDOF 5
ENDMDL
MODEL 8
REMARK VINA RESULT:      -7.3      4.125      8.293
REMARK  5 active torsions:
REMARK  status: ('A' for Active; 'I' for Inactive)
REMARK    1  A    between atoms: N1_2  and  C2_3 
REMARK    2  A    between atoms: C3_5  and  N3_6 
REMARK    3  A    between atoms: N3_6  and  C4_7 
REMARK    4  A    between atoms: C12_17  and  C13_18 
REMARK    5  A    between atoms: C15_20  and  O1_21 
ROOT
HETATM    1  C2  UNL     1      28.735   5.467  48.308  1.00  0.00     0.720 A 
HETATM    2  N2  UNL     1      28.359   6.681  48.261  1.00  0.00    -0.074 NA
HETATM    3  C3  UNL     1      27.017   7.125  48.609  1.00  0.00     0.263 A 
HETATM    4  C10 UNL     1      26.174   5.993  49.014  1.00  0.00     0.029 A 
HETATM    5  C11 UNL     1      24.908   6.077  49.387  1.00  0.00     0.097 A 
HETATM    6  N4  UNL     1      24.436   4.771  49.701  1.00  0.00    -0.384 N 
HETATM    7  C12 UNL     1      25.496   3.800  49.508  1.00  0.00     0.164 A 
HETATM    8  C19 UNL     1      26.640   4.608  49.055  1.00  0.00     0.092 A 
HETATM    9  N5  UNL     1      27.868   4.414  48.708  1.00  0.00    -0.065 NA
HETATM   10  H12 UNL     1      23.521   4.424  50.025  1.00  0.00     0.160 HD
ENDROOT
BRANCH   3  11
HETATM   11  N3  UNL     1      27.088   8.169  49.584  1.00  0.00    -0.363 N 
HETATM   12  H6  UNL     1      27.110   7.960  50.606  1.00  0.00     0.162 HD
BRANCH  11  13
HETATM   13  C4  UNL     1      27.133   9.527  49.166  1.00  0.00     0.031 A 
HETATM   14  C5  UNL     1      26.015  10.191  48.718  1.00  0.00     0.029 A 
HETATM   15  C6  UNL     1      26.135  11.527  48.324  1.00  0.00     0.004 A 
HETATM   16  C7  UNL     1      27.320  12.227  48.358  1.00  0.00     0.019 A 
HETATM   17  C8  UNL     1      28.464  11.572  48.810  1.00  0.00     0.013 A 
HETATM   18 BR1  UNL     1      30.190  12.411  48.918  1.00  0.00    -0.051 Br
HETATM   19  C9  UNL     1      28.316  10.245  49.195  1.00  0.00     0.048 A 
ENDBRANCH  11  13
ENDBRANCH   3  11
BRANCH   1  20
HETATM   20  N1  UNL     1      30.097   5.186  47.932  1.00  0.00    -0.227 N 
HETATM   21  C1  UNL     1      31.065   6.275  47.744  1.00  0.00     0.165 C 
HETATM   22  H4  UNL     1      30.338   4.179  47.807  1.00  0.00     0.177 HD
ENDBRANCH   1  20
BRANCH   7  23
HETATM   23  C13 UNL     1      25.732   3.162  50.829  1.00  0.00    -0.045 A 
HETATM   24  C14 UNL     1      26.842   2.574  51.200  1.00  0.00     0.042 A 
HETATM   25  C15 UNL     1      26.676   2.077  52.563  1.00  0.00     0.065 A 
HETATM   26  C17 UNL     1      25.446   2.386  52.989  1.00  0.00     0.014 A 
HETATM   27  C18 UNL     1      24.700   3.121  51.917  1.00  0.00     0.066 A 
BRANCH  25  28
HETATM   28  O1  UNL     1      27.696   1.404  53.220  1.00  0.00    -0.356 OA
HETATM   29  C16 UNL     1      28.718   2.175  53.804  1.00  0.00     0.210 C 
ENDBRANCH  25  28
ENDBRANCH   7  23
TORSDOF 5
ENDMDL
MODEL 9
REMARK VINA RESULT:      -7.3      4.982      7.582
REMARK  5 active torsions:
REMARK  status: ('A' for Active; 'I' for Inactive)
REMARK    1  A    between atoms: N1_2  and  C2_3 
REMARK    2  A    between atoms: C3_5  and  N3_6 
REMARK    3  A    between atoms: N3_6  and  C4_7 
REMARK    4  A    between atoms: C12_17  and  C13_18 
REMARK    5  A    between atoms: C15_20  and  O1_21 
ROOT
HETATM    1  C2  UNL     1      21.441   0.897  52.347  1.00  0.00     0.720 A 
HETATM    2  N2  UNL     1      21.211   1.589  51.304  1.00  0.00    -0.074 NA
HETATM    3  C3  UNL     1      22.131   2.586  50.776  1.00  0.00     0.263 A 
HETATM    4  C10 UNL     1      23.340   2.679  51.602  1.00  0.00     0.029 A 
HETATM    5  C11 UNL     1      24.359   3.494  51.379  1.00  0.00     0.097 A 
HETATM    6  N4  UNL     1      25.337   3.293  52.394  1.00  0.00    -0.384 N 
HETATM    7  C12 UNL     1      24.888   2.270  53.321  1.00  0.00     0.164 A 
HETATM    8  C19 UNL     1      23.573   1.869  52.797  1.00  0.00     0.092 A 
HETATM    9  N5  UNL     1      22.636   1.037  53.106  1.00  0.00    -0.065 NA
HETATM   10  H12 UNL     1      26.255   3.727  52.567  1.00  0.00     0.160 HD
ENDROOT
BRANCH   3  11
HETATM   11  N3  UNL     1      22.394   2.321  49.396  1.00  0.00    -0.363 N 
HETATM   12  H6  UNL     1      22.829   1.425  49.086  1.00  0.00     0.162 HD
BRANCH  11  13
HETATM   13  C4  UNL     1      22.058   3.290  48.411  1.00  0.00     0.031 A 
HETATM   14  C5  UNL     1      22.037   2.991  47.068  1.00  0.00     0.029 A 
HETATM   15  C6  UNL     1      21.697   3.996  46.158  1.00  0.00     0.004 A 
HETATM   16  C7  UNL     1      21.379   5.283  46.529  1.00  0.00     0.019 A 
HETATM   17  C8  UNL     1      21.395   5.605  47.884  1.00  0.00     0.013 A 
HETATM   18 BR1  UNL     1      20.974   7.355  48.560  1.00  0.00    -0.051 Br
HETATM   19  C9  UNL     1      21.736   4.588  48.767  1.00  0.00     0.048 A 
ENDBRANCH  11  13
ENDBRANCH   3  11
BRANCH   1  20
HETATM   20  N1  UNL     1      20.433  -0.050  52.744  1.00  0.00    -0.227 N 
HETATM   21  C1  UNL     1      20.624  -0.900  53.928  1.00  0.00     0.165 C 
HETATM   22  H4  UNL     1      19.579  -0.087  52.146  1.00  0.00     0.177 HD
ENDBRANCH   1  20
BRANCH   7  23
HETATM   23  C13 UNL     1      25.889   1.175  53.259  1.00  0.00    -0.045 A 
HETATM   24  C14 UNL     1      26.851   0.976  54.126  1.00  0.00     0.042 A 
HETATM   25  C15 UNL     1      27.616  -0.197  53.716  1.00  0.00     0.065 A 
HETATM   26  C17 UNL     1      27.086  -0.688  52.590  1.00  0.00     0.014 A 
HETATM   27  C18 UNL     1      25.912   0.143  52.170  1.00  0.00     0.066 A 
BRANCH  25  28
HETATM   28  O1  UNL     1      28.705  -0.647  54.450  1.00  0.00    -0.356 OA
HETATM   29  C16 UNL     1      29.799  -1.174  53.739  1.00  0.00     0.210 C 
ENDBRANCH  25  28
ENDBRANCH   7  23
TORSDOF 5
ENDMDL
