MODEL 1
REMARK VINA RESULT:      -7.7      0.000      0.000
REMARK  8 active torsions:
REMARK  status: ('A' for Active; 'I' for Inactive)
REMARK    1  A    between atoms: C2_2  and  C3_3 
REMARK    2  A    between atoms: C2_2  and  C6_7 
REMARK    3  A    between atoms: C3_3  and  N1_4 
REMARK    4  A    between atoms: C6_7  and  N2_9 
REMARK    5  A    between atoms: N2_9  and  C8_10 
REMARK    6  A    between atoms: N3_12  and  C10_13 
REMARK    7  A    between atoms: C22_28  and  O1_29 
REMARK    8  A    between atoms: O1_29  and  C23_30 
ROOT
HETATM    1  C8  UNL     1      25.077   3.556  49.685  1.00  0.00     0.156 C 
HETATM    2  C9  UNL     1      25.868   3.580  50.968  1.00  0.00     0.155 C 
HETATM    3  N3  UNL     1      25.361   2.741  52.067  1.00  0.00    -0.373 N 
HETATM    4  C16 UNL     1      24.183   2.847  52.938  1.00  0.00     0.174 C 
HETATM    5  C17 UNL     1      22.851   2.634  52.422  1.00  0.00     0.057 C 
HETATM    6  C18 UNL     1      22.404   1.291  52.092  1.00  0.00     0.098 C 
HETATM    7  N4  UNL     1      22.059   0.190  51.826  1.00  0.00    -0.192 NA
HETATM    8  C19 UNL     1      21.764   3.508  52.194  1.00  0.00     0.136 C 
HETATM    9  N5  UNL     1      22.352   4.765  52.629  1.00  0.00    -0.272 NA
HETATM   10  C20 UNL     1      23.404   5.137  51.880  1.00  0.00     0.118 C 
HETATM   11  C21 UNL     1      23.620   4.166  50.822  1.00  0.00     0.053 C 
HETATM   12  C22 UNL     1      23.674   3.242  49.878  1.00  0.00     0.071 C 
ENDROOT
BRANCH   3  13
HETATM   13  C10 UNL     1      26.239   1.630  52.384  1.00  0.00     0.030 A 
HETATM   14  C11 UNL     1      26.002   0.301  52.134  1.00  0.00     0.032 A 
HETATM   15  C12 UNL     1      26.831  -0.742  52.465  1.00  0.00     0.044 A 
HETATM   16  C13 UNL     1      28.013  -0.453  53.109  1.00  0.00     0.116 A 
HETATM   17  F1  UNL     1      28.837  -1.475  53.440  1.00  0.00    -0.206 F 
HETATM   18  C14 UNL     1      28.333   0.854  53.402  1.00  0.00     0.044 A 
HETATM   19  C15 UNL     1      27.440   1.830  53.031  1.00  0.00     0.032 A 
ENDBRANCH   3  13
BRANCH   1  20
HETATM   20  N2  UNL     1      25.358   4.641  48.854  1.00  0.00    -0.381 N 
HETATM   21  H13 UNL     1      25.044   4.505  47.846  1.00  0.00     0.160 HD
BRANCH  20  22
HETATM   22  C6  UNL     1      25.882   5.918  48.658  1.00  0.00     0.010 C 
HETATM   23  C7  UNL     1      24.936   6.865  48.684  1.00  0.00     0.063 C 
BRANCH  22  24
HETATM   24  C2  UNL     1      27.284   6.248  48.445  1.00  0.00    -0.029 C 
HETATM   25  C1  UNL     1      28.308   5.415  48.456  1.00  0.00     0.042 C 
BRANCH  24  26
HETATM   26  C3  UNL     1      27.636   7.660  48.184  1.00  0.00     0.307 C 
BRANCH  26  27
HETATM   27  N1  UNL     1      28.331   8.314  49.241  1.00  0.00     0.083 N 
HETATM   28  C4  UNL     1      27.492   9.214  49.993  1.00  0.00     0.309 C 
HETATM   29  C5  UNL     1      29.556   8.956  48.893  1.00  0.00     0.309 C 
ENDBRANCH  26  27
ENDBRANCH  24  26
ENDBRANCH  22  24
ENDBRANCH  20  22
ENDBRANCH   1  20
BRANCH  12  30
HETATM   30  O1  UNL     1      23.114   2.251  49.084  1.00  0.00    -0.354 OA
BRANCH  30  31
HETATM   31  C23 UNL     1      22.072   2.443  48.177  1.00  0.00     0.171 C 
HETATM   32  C24 UNL     1      20.870   1.667  48.688  1.00  0.00     0.034 C 
ENDBRANCH  30  31
ENDBRANCH  12  30
TORSDOF 8
ENDMDL
MODEL 2
REMARK VINA RESULT:      -7.5      1.203      2.146
REMARK  8 active torsions:
REMARK  status: ('A' for Active; 'I' for Inactive)
REMARK    1  A    between atoms: C2_2  and  C3_3 
REMARK    2  A    between atoms: C2_2  and  C6_7 
REMARK    3  A    between atoms: C3_3  and  N1_4 
REMARK    4  A    between atoms: C6_7  and  N2_9 
REMARK    5  A    between atoms: N2_9  and  C8_10 
REMARK    6  A    between atoms: N3_12  and  C10_13 
REMARK    7  A    between atoms: C22_28  and  O1_29 
REMARK    8  A    between atoms: O1_29  and  C23_30 
ROOT
HETATM    1  C8  UNL     1      25.393   3.445  49.746  1.00  0.00     0.156 C 
HETATM    2  C9  UNL     1      26.130   3.361  51.057  1.00  0.00     0.155 C 
HETATM    3  N3  UNL     1      25.523   2.515  52.099  1.00  0.00    -0.373 N 
HETATM    4  C16 UNL     1      24.321   2.668  52.928  1.00  0.00     0.174 C 
HETATM    5  C17 UNL     1      22.999   2.571  52.353  1.00  0.00     0.057 C 
HETATM    6  C18 UNL     1      22.475   1.277  51.948  1.00  0.00     0.098 C 
HETATM    7  N4  UNL     1      22.065   0.215  51.621  1.00  0.00    -0.192 NA
HETATM    8  C19 UNL     1      21.985   3.528  52.124  1.00  0.00     0.136 C 
HETATM    9  N5  UNL     1      22.640   4.721  52.635  1.00  0.00    -0.272 NA
HETATM   10  C20 UNL     1      23.745   5.048  51.944  1.00  0.00     0.118 C 
HETATM   11  C21 UNL     1      23.936   4.110  50.852  1.00  0.00     0.053 C 
HETATM   12  C22 UNL     1      23.965   3.224  49.871  1.00  0.00     0.071 C 
ENDROOT
BRANCH   3  13
HETATM   13  C10 UNL     1      26.309   1.333  52.399  1.00  0.00     0.030 A 
HETATM   14  C11 UNL     1      25.934   0.027  52.199  1.00  0.00     0.032 A 
HETATM   15  C12 UNL     1      26.678  -1.082  52.515  1.00  0.00     0.044 A 
HETATM   16  C13 UNL     1      27.916  -0.893  53.086  1.00  0.00     0.116 A 
HETATM   17  F1  UNL     1      28.658  -1.982  53.400  1.00  0.00    -0.206 F 
HETATM   18  C14 UNL     1      28.375   0.384  53.323  1.00  0.00     0.044 A 
HETATM   19  C15 UNL     1      27.558   1.432  52.973  1.00  0.00     0.032 A 
ENDBRANCH   3  13
BRANCH   1  20
HETATM   20  N2  UNL     1      25.781   4.542  48.974  1.00  0.00    -0.381 N 
HETATM   21  H13 UNL     1      25.415   4.518  47.975  1.00  0.00     0.160 HD
BRANCH  20  22
HETATM   22  C6  UNL     1      26.459   5.752  48.837  1.00  0.00     0.010 C 
HETATM   23  C7  UNL     1      27.722   5.584  48.424  1.00  0.00     0.063 C 
BRANCH  22  24
HETATM   24  C2  UNL     1      25.913   7.077  49.097  1.00  0.00    -0.029 C 
HETATM   25  C1  UNL     1      26.357   7.963  49.970  1.00  0.00     0.042 C 
BRANCH  24  26
HETATM   26  C3  UNL     1      24.735   7.510  48.318  1.00  0.00     0.307 C 
BRANCH  26  27
HETATM   27  N1  UNL     1      23.478   7.295  48.953  1.00  0.00     0.083 N 
HETATM   28  C4  UNL     1      22.631   6.383  48.226  1.00  0.00     0.309 C 
HETATM   29  C5  UNL     1      22.746   8.461  49.323  1.00  0.00     0.309 C 
ENDBRANCH  26  27
ENDBRANCH  24  26
ENDBRANCH  22  24
ENDBRANCH  20  22
ENDBRANCH   1  20
BRANCH  12  30
HETATM   30  O1  UNL     1      23.371   2.309  49.013  1.00  0.00    -0.354 OA
BRANCH  30  31
HETATM   31  C23 UNL     1      22.367   2.607  48.092  1.00  0.00     0.171 C 
HETATM   32  C24 UNL     1      21.136   1.806  48.480  1.00  0.00     0.034 C 
ENDBRANCH  30  31
ENDBRANCH  12  30
TORSDOF 8
ENDMDL
MODEL 3
REMARK VINA RESULT:      -7.4      1.072      1.412
REMARK  8 active torsions:
REMARK  status: ('A' for Active; 'I' for Inactive)
REMARK    1  A    between atoms: C2_2  and  C3_3 
REMARK    2  A    between atoms: C2_2  and  C6_7 
REMARK    3  A    between atoms: C3_3  and  N1_4 
REMARK    4  A    between atoms: C6_7  and  N2_9 
REMARK    5  A    between atoms: N2_9  and  C8_10 
REMARK    6  A    between atoms: N3_12  and  C10_13 
REMARK    7  A    between atoms: C22_28  and  O1_29 
REMARK    8  A    between atoms: O1_29  and  C23_30 
ROOT
HETATM    1  C8  UNL     1      24.596   3.637  49.691  1.00  0.00     0.156 C 
HETATM    2  C9  UNL     1      25.143   3.424  51.079  1.00  0.00     0.155 C 
HETATM    3  N3  UNL     1      24.397   2.496  51.945  1.00  0.00    -0.373 N 
HETATM    4  C16 UNL     1      23.091   2.589  52.610  1.00  0.00     0.174 C 
HETATM    5  C17 UNL     1      21.862   2.561  51.851  1.00  0.00     0.057 C 
HETATM    6  C18 UNL     1      21.398   1.317  51.261  1.00  0.00     0.098 C 
HETATM    7  N4  UNL     1      21.038   0.294  50.784  1.00  0.00    -0.192 NA
HETATM    8  C19 UNL     1      20.890   3.549  51.571  1.00  0.00     0.136 C 
HETATM    9  N5  UNL     1      21.468   4.682  52.275  1.00  0.00    -0.272 NA
HETATM   10  C20 UNL     1      22.659   5.056  51.776  1.00  0.00     0.118 C 
HETATM   11  C21 UNL     1      22.999   4.217  50.641  1.00  0.00     0.053 C 
HETATM   12  C22 UNL     1      23.164   3.423  49.597  1.00  0.00     0.071 C 
ENDROOT
BRANCH   3  13
HETATM   13  C10 UNL     1      25.132   1.281  52.242  1.00  0.00     0.030 A 
HETATM   14  C11 UNL     1      26.389   0.953  51.796  1.00  0.00     0.032 A 
HETATM   15  C12 UNL     1      27.060  -0.214  52.064  1.00  0.00     0.044 A 
HETATM   16  C13 UNL     1      26.436  -1.157  52.848  1.00  0.00     0.116 A 
HETATM   17  F1  UNL     1      27.090  -2.311  53.118  1.00  0.00    -0.206 F 
HETATM   18  C14 UNL     1      25.173  -0.914  53.340  1.00  0.00     0.044 A 
HETATM   19  C15 UNL     1      24.580   0.284  53.018  1.00  0.00     0.032 A 
ENDBRANCH   3  13
BRANCH   1  20
HETATM   20  N2  UNL     1      25.088   4.793  49.084  1.00  0.00    -0.381 N 
HETATM   21  H13 UNL     1      24.662   4.995  48.130  1.00  0.00     0.160 HD
BRANCH  20  22
HETATM   22  C6  UNL     1      25.922   5.910  49.095  1.00  0.00     0.010 C 
HETATM   23  C7  UNL     1      25.359   6.959  49.706  1.00  0.00     0.063 C 
BRANCH  22  24
HETATM   24  C2  UNL     1      27.260   5.989  48.525  1.00  0.00    -0.029 C 
HETATM   25  C1  UNL     1      28.163   5.027  48.478  1.00  0.00     0.042 C 
BRANCH  24  26
HETATM   26  C3  UNL     1      27.687   7.271  47.925  1.00  0.00     0.307 C 
BRANCH  26  27
HETATM   27  N1  UNL     1      28.819   7.879  48.540  1.00  0.00     0.083 N 
HETATM   28  C4  UNL     1      28.472   9.020  49.349  1.00  0.00     0.309 C 
HETATM   29  C5  UNL     1      29.913   8.196  47.683  1.00  0.00     0.309 C 
ENDBRANCH  26  27
ENDBRANCH  24  26
ENDBRANCH  22  24
ENDBRANCH  20  22
ENDBRANCH   1  20
BRANCH  12  30
HETATM   30  O1  UNL     1      22.695   2.597  48.585  1.00  0.00    -0.354 OA
BRANCH  30  31
HETATM   31  C23 UNL     1      21.542   2.824  47.834  1.00  0.00     0.171 C 
HETATM   32  C24 UNL     1      21.945   3.611  46.599  1.00  0.00     0.034 C 
ENDBRANCH  30  31
ENDBRANCH  12  30
TORSDOF 8
ENDMDL
MODEL 4
REMARK VINA RESULT:      -7.1      4.388      6.529
REMARK  8 active torsions:
REMARK  status: ('A' for Active; 'I' for Inactive)
REMARK    1  A    between atoms: C2_2  and  C3_3 
REMARK    2  A    between atoms: C2_2  and  C6_7 
REMARK    3  A    between atoms: C3_3  and  N1_4 
REMARK    4  A    between atoms: C6_7  and  N2_9 
REMARK    5  A    between atoms: N2_9  and  C8_10 
REMARK    6  A    between atoms: N3_12  and  C10_13 
REMARK    7  A    between atoms: C22_28  and  O1_29 
REMARK    8  A    between atoms: O1_29  and  C23_30 
ROOT
HETATM    1  C8  UNL     1      22.614   1.268  51.217  1.00  0.00     0.156 C 
HETATM    2  C9  UNL     1      21.734   1.267  52.441  1.00  0.00     0.155 C 
HETATM    3  N3  UNL     1      20.318   1.609  52.231  1.00  0.00    -0.373 N 
HETATM    4  C16 UNL     1      19.637   2.867  51.898  1.00  0.00     0.174 C 
HETATM    5  C17 UNL     1      19.774   3.466  50.591  1.00  0.00     0.057 C 
HETATM    6  C18 UNL     1      19.101   2.876  49.445  1.00  0.00     0.098 C 
HETATM    7  N4  UNL     1      18.548   2.379  48.523  1.00  0.00    -0.192 NA
HETATM    8  C19 UNL     1      20.428   4.634  50.140  1.00  0.00     0.136 C 
HETATM    9  N5  UNL     1      20.978   5.121  51.395  1.00  0.00    -0.272 NA
HETATM   10  C20 UNL     1      21.870   4.275  51.938  1.00  0.00     0.118 C 
HETATM   11  C21 UNL     1      22.043   3.123  51.071  1.00  0.00     0.053 C 
HETATM   12  C22 UNL     1      22.147   2.159  50.172  1.00  0.00     0.071 C 
ENDROOT
BRANCH   3  13
HETATM   13  C10 UNL     1      19.423   0.491  52.464  1.00  0.00     0.030 A 
HETATM   14  C11 UNL     1      18.205   0.278  51.867  1.00  0.00     0.032 A 
HETATM   15  C12 UNL     1      17.357  -0.772  52.119  1.00  0.00     0.044 A 
HETATM   16  C13 UNL     1      17.741  -1.709  53.052  1.00  0.00     0.116 A 
HETATM   17  F1  UNL     1      16.911  -2.748  53.306  1.00  0.00    -0.206 F 
HETATM   18  C14 UNL     1      18.948  -1.575  53.701  1.00  0.00     0.044 A 
HETATM   19  C15 UNL     1      19.729  -0.491  53.382  1.00  0.00     0.032 A 
ENDBRANCH   3  13
BRANCH   1  20
HETATM   20  N2  UNL     1      23.973   1.338  51.526  1.00  0.00    -0.381 N 
HETATM   21  H13 UNL     1      24.609   1.364  50.673  1.00  0.00     0.160 HD
BRANCH  20  22
HETATM   22  C6  UNL     1      25.006   1.398  52.461  1.00  0.00     0.010 C 
HETATM   23  C7  UNL     1      25.063   2.584  53.079  1.00  0.00     0.063 C 
BRANCH  22  24
HETATM   24  C2  UNL     1      25.945   0.329  52.774  1.00  0.00    -0.029 C 
HETATM   25  C1  UNL     1      25.652  -0.901  53.155  1.00  0.00     0.042 C 
BRANCH  24  26
HETATM   26  C3  UNL     1      27.390   0.618  52.664  1.00  0.00     0.307 C 
BRANCH  26  27
HETATM   27  N1  UNL     1      28.008   1.074  53.863  1.00  0.00     0.083 N 
HETATM   28  C4  UNL     1      28.723   2.313  53.689  1.00  0.00     0.309 C 
HETATM   29  C5  UNL     1      28.818   0.129  54.559  1.00  0.00     0.309 C 
ENDBRANCH  26  27
ENDBRANCH  24  26
ENDBRANCH  22  24
ENDBRANCH  20  22
ENDBRANCH   1  20
BRANCH  12  30
HETATM   30  O1  UNL     1      22.045   1.653  48.884  1.00  0.00    -0.354 OA
BRANCH  30  31
HETATM   31  C23 UNL     1      22.769   2.110  47.783  1.00  0.00     0.171 C 
HETATM   32  C24 UNL     1      21.970   3.231  47.141  1.00  0.00     0.034 C 
ENDBRANCH  30  31
ENDBRANCH  12  30
TORSDOF 8
ENDMDL
MODEL 5
REMARK VINA RESULT:      -6.8      4.442      9.205
REMARK  8 active torsions:
REMARK  status: ('A' for Active; 'I' for Inactive)
REMARK    1  A    between atoms: C2_2  and  C3_3 
REMARK    2  A    between atoms: C2_2  and  C6_7 
REMARK    3  A    between atoms: C3_3  and  N1_4 
REMARK    4  A    between atoms: C6_7  and  N2_9 
REMARK    5  A    between atoms: N2_9  and  C8_10 
REMARK    6  A    between atoms: N3_12  and  C10_13 
REMARK    7  A    between atoms: C22_28  and  O1_29 
REMARK    8  A    between atoms: O1_29  and  C23_30 
ROOT
HETATM    1  C8  UNL     1      29.635   6.853  48.436  1.00  0.00     0.156 C 
HETATM    2  C9  UNL     1      30.755   6.419  47.525  1.00  0.00     0.155 C 
HETATM    3  N3  UNL     1      31.678   7.473  47.072  1.00  0.00    -0.373 N 
HETATM    4  C16 UNL     1      31.524   8.598  46.140  1.00  0.00     0.174 C 
HETATM    5  C17 UNL     1      30.698   9.735  46.473  1.00  0.00     0.057 C 
HETATM    6  C18 UNL     1      31.152  10.701  47.459  1.00  0.00     0.098 C 
HETATM    7  N4  UNL     1      31.538  11.476  48.268  1.00  0.00    -0.192 NA
HETATM    8  C19 UNL     1      29.460  10.195  45.972  1.00  0.00     0.136 C 
HETATM    9  N5  UNL     1      29.192   9.171  44.974  1.00  0.00    -0.272 NA
HETATM   10  C20 UNL     1      29.045   7.946  45.509  1.00  0.00     0.118 C 
HETATM   11  C21 UNL     1      29.169   8.024  46.953  1.00  0.00     0.053 C 
HETATM   12  C22 UNL     1      29.248   8.239  48.255  1.00  0.00     0.071 C 
ENDROOT
BRANCH   3  13
HETATM   13  C10 UNL     1      33.017   7.324  47.611  1.00  0.00     0.030 A 
HETATM   14  C11 UNL     1      33.985   8.296  47.683  1.00  0.00     0.032 A 
HETATM   15  C12 UNL     1      35.257   8.132  48.170  1.00  0.00     0.044 A 
HETATM   16  C13 UNL     1      35.620   6.888  48.634  1.00  0.00     0.116 A 
HETATM   17  F1  UNL     1      36.873   6.717  49.118  1.00  0.00    -0.206 F 
HETATM   18  C14 UNL     1      34.713   5.852  48.601  1.00  0.00     0.044 A 
HETATM   19  C15 UNL     1      33.462   6.113  48.095  1.00  0.00     0.032 A 
ENDBRANCH   3  13
BRANCH   1  20
HETATM   20  N2  UNL     1      28.594   5.925  48.497  1.00  0.00    -0.381 N 
HETATM   21  H13 UNL     1      28.863   4.952  48.160  1.00  0.00     0.160 HD
BRANCH  20  22
HETATM   22  C6  UNL     1      27.274   5.598  48.803  1.00  0.00     0.010 C 
HETATM   23  C7  UNL     1      27.118   4.293  49.052  1.00  0.00     0.063 C 
BRANCH  22  24
HETATM   24  C2  UNL     1      26.151   6.524  48.860  1.00  0.00    -0.029 C 
HETATM   25  C1  UNL     1      25.629   7.205  47.856  1.00  0.00     0.042 C 
BRANCH  24  26
HETATM   26  C3  UNL     1      25.500   6.750  50.168  1.00  0.00     0.307 C 
BRANCH  26  27
HETATM   27  N1  UNL     1      24.138   6.339  50.243  1.00  0.00     0.083 N 
HETATM   28  C4  UNL     1      23.260   7.390  50.694  1.00  0.00     0.309 C 
HETATM   29  C5  UNL     1      23.877   5.135  50.960  1.00  0.00     0.309 C 
ENDBRANCH  26  27
ENDBRANCH  24  26
ENDBRANCH  22  24
ENDBRANCH  20  22
ENDBRANCH   1  20
BRANCH  12  30
HETATM   30  O1  UNL     1      29.150   9.040  49.385  1.00  0.00    -0.354 OA
BRANCH  30  31
HETATM   31  C23 UNL     1      27.956   9.476  49.958  1.00  0.00     0.171 C 
HETATM   32  C24 UNL     1      27.314  10.457  48.991  1.00  0.00     0.034 C 
ENDBRANCH  30  31
ENDBRANCH  12  30
TORSDOF 8
ENDMDL
MODEL 6
REMARK VINA RESULT:      -6.7      3.877      7.915
REMARK  8 active torsions:
REMARK  status: ('A' for Active; 'I' for Inactive)
REMARK    1  A    between atoms: C2_2  and  C3_3 
REMARK    2  A    between atoms: C2_2  and  C6_7 
REMARK    3  A    between atoms: C3_3  and  N1_4 
REMARK    4  A    between atoms: C6_7  and  N2_9 
REMARK    5  A    between atoms: N2_9  and  C8_10 
REMARK    6  A    between atoms: N3_12  and  C10_13 
REMARK    7  A    between atoms: C22_28  and  O1_29 
REMARK    8  A    between atoms: O1_29  and  C23_30 
ROOT
HETATM    1  C8  UNL     1      19.956   3.464  51.687  1.00  0.00     0.156 C 
HETATM    2  C9  UNL     1      19.991   1.962  51.566  1.00  0.00     0.155 C 
HETATM    3  N3  UNL     1      21.312   1.352  51.341  1.00  0.00    -0.373 N 
HETATM    4  C16 UNL     1      22.217   1.340  50.184  1.00  0.00     0.174 C 
HETATM    5  C17 UNL     1      22.915   2.534  49.769  1.00  0.00     0.057 C 
HETATM    6  C18 UNL     1      24.031   3.036  50.553  1.00  0.00     0.098 C 
HETATM    7  N4  UNL     1      24.936   3.431  51.208  1.00  0.00    -0.192 NA
HETATM    8  C19 UNL     1      22.782   3.374  48.640  1.00  0.00     0.136 C 
HETATM    9  N5  UNL     1      21.692   2.703  47.950  1.00  0.00    -0.272 NA
HETATM   10  C20 UNL     1      20.549   2.700  48.657  1.00  0.00     0.118 C 
HETATM   11  C21 UNL     1      20.744   3.411  49.908  1.00  0.00     0.053 C 
HETATM   12  C22 UNL     1      21.038   4.124  50.981  1.00  0.00     0.071 C 
ENDROOT
BRANCH   3  13
HETATM   13  C10 UNL     1      21.770   0.558  52.465  1.00  0.00     0.030 A 
HETATM   14  C11 UNL     1      23.072   0.259  52.781  1.00  0.00     0.032 A 
HETATM   15  C12 UNL     1      23.488  -0.518  53.834  1.00  0.00     0.044 A 
HETATM   16  C13 UNL     1      22.530  -1.057  54.662  1.00  0.00     0.116 A 
HETATM   17  F1  UNL     1      22.931  -1.824  55.703  1.00  0.00    -0.206 F 
HETATM   18  C14 UNL     1      21.197  -0.810  54.421  1.00  0.00     0.044 A 
HETATM   19  C15 UNL     1      20.878  -0.021  53.342  1.00  0.00     0.032 A 
ENDBRANCH   3  13
BRANCH   1  20
HETATM   20  N2  UNL     1      18.680   3.995  51.494  1.00  0.00    -0.381 N 
HETATM   21  H13 UNL     1      18.554   4.973  51.895  1.00  0.00     0.160 HD
BRANCH  20  22
HETATM   22  C6  UNL     1      17.380   3.887  51.001  1.00  0.00     0.010 C 
HETATM   23  C7  UNL     1      17.280   4.310  49.735  1.00  0.00     0.063 C 
BRANCH  22  24
HETATM   24  C2  UNL     1      16.225   3.380  51.729  1.00  0.00    -0.029 C 
HETATM   25  C1  UNL     1      15.575   3.983  52.708  1.00  0.00     0.042 C 
BRANCH  24  26
HETATM   26  C3  UNL     1      15.695   2.051  51.357  1.00  0.00     0.307 C 
BRANCH  26  27
HETATM   27  N1  UNL     1      15.887   1.030  52.332  1.00  0.00     0.083 N 
HETATM   28  C4  UNL     1      16.845   0.036  51.919  1.00  0.00     0.309 C 
HETATM   29  C5  UNL     1      14.710   0.404  52.835  1.00  0.00     0.309 C 
ENDBRANCH  26  27
ENDBRANCH  24  26
ENDBRANCH  22  24
ENDBRANCH  20  22
ENDBRANCH   1  20
BRANCH  12  30
HETATM   30  O1  UNL     1      21.778   5.076  51.669  1.00  0.00    -0.354 OA
BRANCH  30  31
HETATM   31  C23 UNL     1      22.311   6.237  51.109  1.00  0.00     0.171 C 
HETATM   32  C24 UNL     1      21.173   6.991  50.445  1.00  0.00     0.034 C 
ENDBRANCH  30  31
ENDBRANCH  12  30
TORSDOF 8
ENDMDL
MODEL 7
REMARK VINA RESULT:      -6.7      4.177      9.123
REMARK  8 active torsions:
REMARK  status: ('A' for Active; 'I' for Inactive)
REMARK    1  A    between atoms: C2_2  and  C3_3 
REMARK    2  A    between atoms: C2_2  and  C6_7 
REMARK    3  A    between atoms: C3_3  and  N1_4 
REMARK    4  A    between atoms: C6_7  and  N2_9 
REMARK    5  A    between atoms: N2_9  and  C8_10 
REMARK    6  A    between atoms: N3_12  and  C10_13 
REMARK    7  A    between atoms: C22_28  and  O1_29 
REMARK    8  A    between atoms: O1_29  and  C23_30 
ROOT
HETATM    1  C8  UNL     1      29.411   7.373  48.495  1.00  0.00     0.156 C 
HETATM    2  C9  UNL     1      29.837   6.269  47.561  1.00  0.00     0.155 C 
HETATM    3  N3  UNL     1      31.067   6.504  46.786  1.00  0.00    -0.373 N 
HETATM    4  C16 UNL     1      31.382   7.402  45.667  1.00  0.00     0.174 C 
HETATM    5  C17 UNL     1      31.461   8.831  45.856  1.00  0.00     0.057 C 
HETATM    6  C18 UNL     1      32.596   9.412  46.554  1.00  0.00     0.098 C 
HETATM    7  N4  UNL     1      33.527   9.866  47.129  1.00  0.00    -0.192 NA
HETATM    8  C19 UNL     1      30.638   9.898  45.430  1.00  0.00     0.136 C 
HETATM    9  N5  UNL     1      29.614   9.158  44.710  1.00  0.00    -0.272 NA
HETATM   10  C20 UNL     1      28.915   8.326  45.502  1.00  0.00     0.118 C 
HETATM   11  C21 UNL     1      29.383   8.445  46.871  1.00  0.00     0.053 C 
HETATM   12  C22 UNL     1      29.862   8.687  48.079  1.00  0.00     0.071 C 
ENDROOT
BRANCH   3  13
HETATM   13  C10 UNL     1      32.156   5.626  47.171  1.00  0.00     0.030 A 
HETATM   14  C11 UNL     1      33.368   6.004  47.694  1.00  0.00     0.032 A 
HETATM   15  C12 UNL     1      34.400   5.162  48.027  1.00  0.00     0.044 A 
HETATM   16  C13 UNL     1      34.227   3.811  47.826  1.00  0.00     0.116 A 
HETATM   17  F1  UNL     1      35.239   2.973  48.153  1.00  0.00    -0.206 F 
HETATM   18  C14 UNL     1      33.043   3.341  47.305  1.00  0.00     0.044 A 
HETATM   19  C15 UNL     1      32.067   4.261  47.002  1.00  0.00     0.032 A 
ENDBRANCH   3  13
BRANCH   1  20
HETATM   20  N2  UNL     1      28.073   7.273  48.878  1.00  0.00    -0.381 N 
HETATM   21  H13 UNL     1      27.830   7.835  49.749  1.00  0.00     0.160 HD
BRANCH  20  22
HETATM   22  C6  UNL     1      26.786   6.772  48.682  1.00  0.00     0.010 C 
HETATM   23  C7  UNL     1      25.969   7.673  48.124  1.00  0.00     0.063 C 
BRANCH  22  24
HETATM   24  C2  UNL     1      26.325   5.433  49.023  1.00  0.00    -0.029 C 
HETATM   25  C1  UNL     1      27.057   4.337  49.109  1.00  0.00     0.042 C 
BRANCH  24  26
HETATM   26  C3  UNL     1      24.888   5.244  49.312  1.00  0.00     0.307 C 
BRANCH  26  27
HETATM   27  N1  UNL     1      24.539   5.282  50.692  1.00  0.00     0.083 N 
HETATM   28  C4  UNL     1      23.609   4.245  51.064  1.00  0.00     0.309 C 
HETATM   29  C5  UNL     1      24.106   6.541  51.203  1.00  0.00     0.309 C 
ENDBRANCH  26  27
ENDBRANCH  24  26
ENDBRANCH  22  24
ENDBRANCH  20  22
ENDBRANCH   1  20
BRANCH  12  30
HETATM   30  O1  UNL     1      30.500   9.483  49.020  1.00  0.00    -0.354 OA
BRANCH  30  31
HETATM   31  C23 UNL     1      30.058  10.737  49.443  1.00  0.00     0.171 C 
HETATM   32  C24 UNL     1      30.890  11.784  48.724  1.00  0.00     0.034 C 
ENDBRANCH  30  31
ENDBRANCH  12  30
TORSDOF 8
ENDMDL
MODEL 8
REMARK VINA RESULT:      -6.7      2.105      2.874
REMARK  8 active torsions:
REMARK  status: ('A' for Active; 'I' for Inactive)
REMARK    1  A    between atoms: C2_2  and  C3_3 
REMARK    2  A    between atoms: C2_2  and  C6_7 
REMARK    3  A    between atoms: C3_3  and  N1_4 
REMARK    4  A    between atoms: C6_7  and  N2_9 
REMARK    5  A    between atoms: N2_9  and  C8_10 
REMARK    6  A    between atoms: N3_12  and  C10_13 
REMARK    7  A    between atoms: C22_28  and  O1_29 
REMARK    8  A    between atoms: O1_29  and  C23_30 
ROOT
HETATM    1  C8  UNL     1      24.797   5.081  49.175  1.00  0.00     0.156 C 
HETATM    2  C9  UNL     1      24.964   4.849  50.655  1.00  0.00     0.155 C 
HETATM    3  N3  UNL     1      23.816   4.253  51.359  1.00  0.00    -0.373 N 
HETATM    4  C16 UNL     1      22.490   4.772  51.718  1.00  0.00     0.174 C 
HETATM    5  C17 UNL     1      21.489   5.024  50.707  1.00  0.00     0.057 C 
HETATM    6  C18 UNL     1      20.807   3.914  50.063  1.00  0.00     0.098 C 
HETATM    7  N4  UNL     1      20.265   2.996  49.547  1.00  0.00    -0.192 NA
HETATM    8  C19 UNL     1      20.931   6.217  50.194  1.00  0.00     0.136 C 
HETATM    9  N5  UNL     1      21.663   7.200  50.976  1.00  0.00    -0.272 NA
HETATM   10  C20 UNL     1      22.986   7.174  50.743  1.00  0.00     0.118 C 
HETATM   11  C21 UNL     1      23.286   6.174  49.734  1.00  0.00     0.053 C 
HETATM   12  C22 UNL     1      23.417   5.274  48.773  1.00  0.00     0.071 C 
ENDROOT
BRANCH   3  13
HETATM   13  C10 UNL     1      24.082   2.911  51.845  1.00  0.00     0.030 A 
HETATM   14  C11 UNL     1      23.232   2.121  52.578  1.00  0.00     0.032 A 
HETATM   15  C12 UNL     1      23.510   0.863  53.053  1.00  0.00     0.044 A 
HETATM   16  C13 UNL     1      24.748   0.326  52.783  1.00  0.00     0.116 A 
HETATM   17  F1  UNL     1      25.031  -0.914  53.248  1.00  0.00    -0.206 F 
HETATM   18  C14 UNL     1      25.666   1.048  52.054  1.00  0.00     0.044 A 
HETATM   19  C15 UNL     1      25.297   2.299  51.621  1.00  0.00     0.032 A 
ENDBRANCH   3  13
BRANCH   1  20
HETATM   20  N2  UNL     1      25.722   5.990  48.660  1.00  0.00    -0.381 N 
HETATM   21  H13 UNL     1      25.426   6.432  47.739  1.00  0.00     0.160 HD
BRANCH  20  22
HETATM   22  C6  UNL     1      26.936   6.671  48.750  1.00  0.00     0.010 C 
HETATM   23  C7  UNL     1      27.960   5.948  48.280  1.00  0.00     0.063 C 
BRANCH  22  24
HETATM   24  C2  UNL     1      27.131   8.013  49.281  1.00  0.00    -0.029 C 
HETATM   25  C1  UNL     1      26.252   8.742  49.944  1.00  0.00     0.042 C 
BRANCH  24  26
HETATM   26  C3  UNL     1      28.445   8.659  49.075  1.00  0.00     0.307 C 
BRANCH  26  27
HETATM   27  N1  UNL     1      28.411   9.871  48.327  1.00  0.00     0.083 N 
HETATM   28  C4  UNL     1      28.503   9.655  46.905  1.00  0.00     0.309 C 
HETATM   29  C5  UNL     1      29.320  10.892  48.732  1.00  0.00     0.309 C 
ENDBRANCH  26  27
ENDBRANCH  24  26
ENDBRANCH  22  24
ENDBRANCH  20  22
ENDBRANCH   1  20
BRANCH  12  30
HETATM   30  O1  UNL     1      22.939   4.527  47.706  1.00  0.00    -0.354 OA
BRANCH  30  31
HETATM   31  C23 UNL     1      21.989   4.962  46.782  1.00  0.00     0.171 C 
HETATM   32  C24 UNL     1      21.904   3.917  45.683  1.00  0.00     0.034 C 
ENDBRANCH  30  31
ENDBRANCH  12  30
TORSDOF 8
ENDMDL
MODEL 9
REMARK VINA RESULT:      -6.4      5.302      8.560
REMARK  8 active torsions:
REMARK  status: ('A' for Active; 'I' for Inactive)
REMARK    1  A    between atoms: C2_2  and  C3_3 
REMARK    2  A    between atoms: C2_2  and  C6_7 
REMARK    3  A    between atoms: C3_3  and  N1_4 
REMARK    4  A    between atoms: C6_7  and  N2_9 
REMARK    5  A    between atoms: N2_9  and  C8_10 
REMARK    6  A    between atoms: N3_12  and  C10_13 
REMARK    7  A    between atoms: C22_28  and  O1_29 
REMARK    8  A    between atoms: O1_29  and  C23_30 
ROOT
HETATM    1  C8  UNL     1      30.083   8.184  45.945  1.00  0.00     0.156 C 
HETATM    2  C9  UNL     1      30.071   7.417  47.242  1.00  0.00     0.155 C 
HETATM    3  N3  UNL     1      29.095   7.853  48.254  1.00  0.00    -0.373 N 
HETATM    4  C16 UNL     1      29.011   9.047  49.106  1.00  0.00     0.174 C 
HETATM    5  C17 UNL     1      28.717  10.345  48.545  1.00  0.00     0.057 C 
HETATM    6  C18 UNL     1      27.371  10.655  48.092  1.00  0.00     0.098 C 
HETATM    7  N4  UNL     1      26.268  10.887  47.725  1.00  0.00    -0.192 NA
HETATM    8  C19 UNL     1      29.499  11.509  48.369  1.00  0.00     0.136 C 
HETATM    9  N5  UNL     1      30.764  11.052  48.922  1.00  0.00    -0.272 NA
HETATM   10  C20 UNL     1      31.298  10.031  48.231  1.00  0.00     0.118 C 
HETATM   11  C21 UNL     1      30.449   9.709  47.098  1.00  0.00     0.053 C 
HETATM   12  C22 UNL     1      29.620   9.552  46.080  1.00  0.00     0.071 C 
ENDROOT
BRANCH   3  13
HETATM   13  C10 UNL     1      28.050   6.875  48.494  1.00  0.00     0.030 A 
HETATM   14  C11 UNL     1      26.730   7.137  48.766  1.00  0.00     0.032 A 
HETATM   15  C12 UNL     1      25.758   6.200  49.019  1.00  0.00     0.044 A 
HETATM   16  C13 UNL     1      26.117   4.871  49.003  1.00  0.00     0.116 A 
HETATM   17  F1  UNL     1      25.165   3.940  49.250  1.00  0.00    -0.206 F 
HETATM   18  C14 UNL     1      27.421   4.516  48.739  1.00  0.00     0.044 A 
HETATM   19  C15 UNL     1      28.323   5.524  48.498  1.00  0.00     0.032 A 
ENDBRANCH   3  13
BRANCH   1  20
HETATM   20  N2  UNL     1      31.258   8.000  45.215  1.00  0.00    -0.381 N 
HETATM   21  H13 UNL     1      31.844   8.882  45.110  1.00  0.00     0.160 HD
BRANCH  20  22
HETATM   22  C6  UNL     1      32.127   7.178  44.498  1.00  0.00     0.010 C 
HETATM   23  C7  UNL     1      32.259   7.567  43.224  1.00  0.00     0.063 C 
BRANCH  22  24
HETATM   24  C2  UNL     1      32.838   6.018  45.018  1.00  0.00    -0.029 C 
HETATM   25  C1  UNL     1      33.057   4.875  44.395  1.00  0.00     0.042 C 
BRANCH  24  26
HETATM   26  C3  UNL     1      33.388   6.095  46.388  1.00  0.00     0.307 C 
BRANCH  26  27
HETATM   27  N1  UNL     1      33.468   4.850  47.077  1.00  0.00     0.083 N 
HETATM   28  C4  UNL     1      32.348   4.623  47.955  1.00  0.00     0.309 C 
HETATM   29  C5  UNL     1      34.692   4.579  47.756  1.00  0.00     0.309 C 
ENDBRANCH  26  27
ENDBRANCH  24  26
ENDBRANCH  22  24
ENDBRANCH  20  22
ENDBRANCH   1  20
BRANCH  12  30
HETATM   30  O1  UNL     1      28.653  10.003  45.192  1.00  0.00    -0.354 OA
BRANCH  30  31
HETATM   31  C23 UNL     1      27.957   9.200  44.288  1.00  0.00     0.171 C 
HETATM   32  C24 UNL     1      26.719   8.679  44.996  1.00  0.00     0.034 C 
ENDBRANCH  30  31
ENDBRANCH  12  30
TORSDOF 8
ENDMDL
