MODEL 1
REMARK VINA RESULT:      -6.7      0.000      0.000
REMARK  9 active torsions:
REMARK  status: ('A' for Active; 'I' for Inactive)
REMARK    1  A    between atoms: N1_1  and  C1_2 
REMARK    2  A    between atoms: C1_2  and  C2_3 
REMARK    3  A    between atoms: C3_4  and  C4_5 
REMARK    4  A    between atoms: C3_4  and  N2_14 
REMARK    5  A    between atoms: C5_6  and  O1_7 
REMARK    6  A    between atoms: O1_7  and  C6_8 
REMARK    7  A    between atoms: N2_14  and  C12_15 
REMARK    8  A    between atoms: C12_15  and  C13_16 
REMARK    9  A    between atoms: C13_16  and  C14_17 
ROOT
HETATM    1  C2  UNL     1      27.579  -1.042  52.618  1.00  0.00     0.057 C 
HETATM    2  C3  UNL     1      26.509  -0.280  52.536  1.00  0.00     0.086 C 
ENDROOT
BRANCH   2   3
HETATM    3  C4  UNL     1      26.674   0.960  51.836  1.00  0.00    -0.018 C 
HETATM    4  C5  UNL     1      26.797   2.022  51.248  1.00  0.00     0.067 C 
BRANCH   4   5
HETATM    5  O1  UNL     1      26.934   3.216  50.595  1.00  0.00    -0.261 OA
BRANCH   5   6
HETATM    6  C6  UNL     1      25.847   3.820  49.998  1.00  0.00     0.087 A 
HETATM    7  C7  UNL     1      25.612   5.152  49.791  1.00  0.00     0.038 A 
HETATM    8  C8  UNL     1      24.517   5.694  49.193  1.00  0.00     0.003 A 
HETATM    9  C9  UNL     1      23.544   4.791  48.752  1.00  0.00     0.000 A 
HETATM   10  C10 UNL     1      23.742   3.443  48.942  1.00  0.00     0.003 A 
HETATM   11  C11 UNL     1      24.883   2.932  49.560  1.00  0.00     0.038 A 
ENDBRANCH   5   6
ENDBRANCH   4   5
ENDBRANCH   2   3
BRANCH   2  12
HETATM   12  N2  UNL     1      25.230  -0.572  53.070  1.00  0.00    -0.383 N 
HETATM   13  H9  UNL     1      25.150  -1.625  53.024  1.00  0.00     0.160 HD
BRANCH  12  14
HETATM   14  C12 UNL     1      24.289   0.409  53.554  1.00  0.00     0.125 C 
BRANCH  14  15
HETATM   15  C13 UNL     1      23.172   0.682  52.603  1.00  0.00     0.058 C 
BRANCH  15  16
HETATM   16  C14 UNL     1      22.917   2.144  52.510  1.00  0.00    -0.057 A 
HETATM   17  C15 UNL     1      21.720   2.608  51.953  1.00  0.00     0.007 A 
HETATM   18  C16 UNL     1      21.438   3.950  51.846  1.00  0.00     0.001 A 
HETATM   19  C17 UNL     1      22.330   4.895  52.287  1.00  0.00     0.000 A 
HETATM   20  C18 UNL     1      23.513   4.446  52.837  1.00  0.00     0.001 A 
HETATM   21  C19 UNL     1      23.808   3.099  52.951  1.00  0.00     0.007 A 
ENDBRANCH  15  16
ENDBRANCH  14  15
ENDBRANCH  12  14
ENDBRANCH   2  12
BRANCH   1  22
HETATM   22  C1  UNL     1      28.322  -2.209  53.008  1.00  0.00     0.110 C 
BRANCH  22  23
HETATM   23  N1  UNL     1      28.581  -3.407  53.353  1.00  0.00    -0.312 NA
HETATM   24  H1  UNL     1      29.355  -3.975  52.896  1.00  0.00     0.186 HD
ENDBRANCH  22  23
ENDBRANCH   1  22
TORSDOF 9
ENDMDL
MODEL 2
REMARK VINA RESULT:      -6.7      2.753      6.674
REMARK  9 active torsions:
REMARK  status: ('A' for Active; 'I' for Inactive)
REMARK    1  A    between atoms: N1_1  and  C1_2 
REMARK    2  A    between atoms: C1_2  and  C2_3 
REMARK    3  A    between atoms: C3_4  and  C4_5 
REMARK    4  A    between atoms: C3_4  and  N2_14 
REMARK    5  A    between atoms: C5_6  and  O1_7 
REMARK    6  A    between atoms: O1_7  and  C6_8 
REMARK    7  A    between atoms: N2_14  and  C12_15 
REMARK    8  A    between atoms: C12_15  and  C13_16 
REMARK    9  A    between atoms: C13_16  and  C14_17 
ROOT
HETATM    1  C2  UNL     1      26.543   3.769  49.855  1.00  0.00     0.057 C 
HETATM    2  C3  UNL     1      26.363   3.044  50.938  1.00  0.00     0.086 C 
ENDROOT
BRANCH   2   3
HETATM    3  C4  UNL     1      25.077   2.425  51.074  1.00  0.00    -0.018 C 
HETATM    4  C5  UNL     1      23.990   1.886  51.200  1.00  0.00     0.067 C 
BRANCH   4   5
HETATM    5  O1  UNL     1      22.773   1.280  51.349  1.00  0.00    -0.261 OA
BRANCH   5   6
HETATM    6  C6  UNL     1      22.459   0.603  52.510  1.00  0.00     0.087 A 
HETATM    7  C7  UNL     1      23.208  -0.311  53.199  1.00  0.00     0.038 A 
HETATM    8  C8  UNL     1      22.847  -0.949  54.345  1.00  0.00     0.003 A 
HETATM    9  C9  UNL     1      21.585  -0.631  54.857  1.00  0.00     0.000 A 
HETATM   10  C10 UNL     1      20.800   0.283  54.193  1.00  0.00     0.003 A 
HETATM   11  C11 UNL     1      21.214   0.914  53.019  1.00  0.00     0.038 A 
ENDBRANCH   5   6
ENDBRANCH   4   5
ENDBRANCH   2   3
BRANCH   2  12
HETATM   12  N2  UNL     1      27.313   2.824  51.965  1.00  0.00    -0.383 N 
HETATM   13  H9  UNL     1      28.192   3.304  51.631  1.00  0.00     0.160 HD
BRANCH  12  14
HETATM   14  C12 UNL     1      27.063   2.090  53.183  1.00  0.00     0.125 C 
BRANCH  14  15
HETATM   15  C13 UNL     1      28.274   1.407  53.724  1.00  0.00     0.058 C 
BRANCH  15  16
HETATM   16  C14 UNL     1      28.236  -0.045  53.405  1.00  0.00    -0.057 A 
HETATM   17  C15 UNL     1      29.371  -0.836  53.621  1.00  0.00     0.007 A 
HETATM   18  C16 UNL     1      29.384  -2.182  53.343  1.00  0.00     0.001 A 
HETATM   19  C17 UNL     1      28.273  -2.809  52.837  1.00  0.00     0.000 A 
HETATM   20  C18 UNL     1      27.150  -2.036  52.622  1.00  0.00     0.001 A 
HETATM   21  C19 UNL     1      27.123  -0.681  52.898  1.00  0.00     0.007 A 
ENDBRANCH  15  16
ENDBRANCH  14  15
ENDBRANCH  12  14
ENDBRANCH   2  12
BRANCH   1  22
HETATM   22  C1  UNL     1      27.284   4.615  48.960  1.00  0.00     0.110 C 
BRANCH  22  23
HETATM   23  N1  UNL     1      28.252   5.267  48.451  1.00  0.00    -0.312 NA
HETATM   24  H1  UNL     1      29.080   4.786  47.987  1.00  0.00     0.186 HD
ENDBRANCH  22  23
ENDBRANCH   1  22
TORSDOF 9
ENDMDL
MODEL 3
REMARK VINA RESULT:      -6.4      2.864      6.141
REMARK  9 active torsions:
REMARK  status: ('A' for Active; 'I' for Inactive)
REMARK    1  A    between atoms: N1_1  and  C1_2 
REMARK    2  A    between atoms: C1_2  and  C2_3 
REMARK    3  A    between atoms: C3_4  and  C4_5 
REMARK    4  A    between atoms: C3_4  and  N2_14 
REMARK    5  A    between atoms: C5_6  and  O1_7 
REMARK    6  A    between atoms: O1_7  and  C6_8 
REMARK    7  A    between atoms: N2_14  and  C12_15 
REMARK    8  A    between atoms: C12_15  and  C13_16 
REMARK    9  A    between atoms: C13_16  and  C14_17 
ROOT
HETATM    1  C2  UNL     1      23.665   4.482  51.856  1.00  0.00     0.057 C 
HETATM    2  C3  UNL     1      23.891   3.191  51.735  1.00  0.00     0.086 C 
ENDROOT
BRANCH   2   3
HETATM    3  C4  UNL     1      24.790   2.618  52.693  1.00  0.00    -0.018 C 
HETATM    4  C5  UNL     1      25.546   2.139  53.522  1.00  0.00     0.067 C 
BRANCH   4   5
HETATM    5  O1  UNL     1      26.388   1.600  54.456  1.00  0.00    -0.261 OA
BRANCH   5   6
HETATM    6  C6  UNL     1      27.304   0.630  54.103  1.00  0.00     0.087 A 
HETATM    7  C7  UNL     1      28.640   0.566  54.389  1.00  0.00     0.038 A 
HETATM    8  C8  UNL     1      29.498  -0.420  54.014  1.00  0.00     0.003 A 
HETATM    9  C9  UNL     1      28.948  -1.464  53.263  1.00  0.00     0.000 A 
HETATM   10  C10 UNL     1      27.608  -1.437  52.953  1.00  0.00     0.003 A 
HETATM   11  C11 UNL     1      26.765  -0.403  53.361  1.00  0.00     0.038 A 
ENDBRANCH   5   6
ENDBRANCH   4   5
ENDBRANCH   2   3
BRANCH   2  12
HETATM   12  N2  UNL     1      23.332   2.332  50.758  1.00  0.00    -0.383 N 
HETATM   13  H9  UNL     1      24.155   2.000  50.184  1.00  0.00     0.160 HD
BRANCH  12  14
HETATM   14  C12 UNL     1      21.928   2.021  50.631  1.00  0.00     0.125 C 
BRANCH  14  15
HETATM   15  C13 UNL     1      21.623   0.570  50.796  1.00  0.00     0.058 C 
BRANCH  15  16
HETATM   16  C14 UNL     1      21.710   0.182  52.228  1.00  0.00    -0.057 A 
HETATM   17  C15 UNL     1      20.698   0.567  53.117  1.00  0.00     0.007 A 
HETATM   18  C16 UNL     1      20.733   0.232  54.450  1.00  0.00     0.001 A 
HETATM   19  C17 UNL     1      21.772  -0.501  54.965  1.00  0.00     0.000 A 
HETATM   20  C18 UNL     1      22.774  -0.884  54.096  1.00  0.00     0.001 A 
HETATM   21  C19 UNL     1      22.750  -0.554  52.753  1.00  0.00     0.007 A 
ENDBRANCH  15  16
ENDBRANCH  14  15
ENDBRANCH  12  14
ENDBRANCH   2  12
BRANCH   1  22
HETATM   22  C1  UNL     1      23.070   5.741  51.501  1.00  0.00     0.110 C 
BRANCH  22  23
HETATM   23  N1  UNL     1      22.272   6.733  51.500  1.00  0.00    -0.312 NA
HETATM   24  H1  UNL     1      22.583   7.713  51.229  1.00  0.00     0.186 HD
ENDBRANCH  22  23
ENDBRANCH   1  22
TORSDOF 9
ENDMDL
MODEL 4
REMARK VINA RESULT:      -6.4      2.135      4.916
REMARK  9 active torsions:
REMARK  status: ('A' for Active; 'I' for Inactive)
REMARK    1  A    between atoms: N1_1  and  C1_2 
REMARK    2  A    between atoms: C1_2  and  C2_3 
REMARK    3  A    between atoms: C3_4  and  C4_5 
REMARK    4  A    between atoms: C3_4  and  N2_14 
REMARK    5  A    between atoms: C5_6  and  O1_7 
REMARK    6  A    between atoms: O1_7  and  C6_8 
REMARK    7  A    between atoms: N2_14  and  C12_15 
REMARK    8  A    between atoms: C12_15  and  C13_16 
REMARK    9  A    between atoms: C13_16  and  C14_17 
ROOT
HETATM    1  C2  UNL     1      22.277  -0.019  53.534  1.00  0.00     0.057 C 
HETATM    2  C3  UNL     1      23.487   0.467  53.353  1.00  0.00     0.086 C 
ENDROOT
BRANCH   2   3
HETATM    3  C4  UNL     1      23.565   1.710  52.643  1.00  0.00    -0.018 C 
HETATM    4  C5  UNL     1      23.649   2.770  52.046  1.00  0.00     0.067 C 
BRANCH   4   5
HETATM    5  O1  UNL     1      23.751   3.957  51.374  1.00  0.00    -0.261 OA
BRANCH   5   6
HETATM    6  C6  UNL     1      24.832   4.214  50.556  1.00  0.00     0.087 A 
HETATM    7  C7  UNL     1      25.789   3.349  50.102  1.00  0.00     0.038 A 
HETATM    8  C8  UNL     1      26.838   3.660  49.293  1.00  0.00     0.003 A 
HETATM    9  C9  UNL     1      26.935   4.997  48.896  1.00  0.00     0.000 A 
HETATM   10  C10 UNL     1      25.993   5.899  49.332  1.00  0.00     0.003 A 
HETATM   11  C11 UNL     1      24.933   5.534  50.161  1.00  0.00     0.038 A 
ENDBRANCH   5   6
ENDBRANCH   4   5
ENDBRANCH   2   3
BRANCH   2  12
HETATM   12  N2  UNL     1      24.699  -0.120  53.792  1.00  0.00    -0.383 N 
HETATM   13  H9  UNL     1      24.822   0.218  54.785  1.00  0.00     0.160 HD
BRANCH  12  14
HETATM   14  C12 UNL     1      25.537  -0.987  52.997  1.00  0.00     0.125 C 
BRANCH  14  15
HETATM   15  C13 UNL     1      26.439  -0.250  52.065  1.00  0.00     0.058 C 
BRANCH  15  16
HETATM   16  C14 UNL     1      27.472   0.499  52.828  1.00  0.00    -0.057 A 
HETATM   17  C15 UNL     1      28.436  -0.199  53.565  1.00  0.00     0.007 A 
HETATM   18  C16 UNL     1      29.412   0.448  54.286  1.00  0.00     0.001 A 
HETATM   19  C17 UNL     1      29.479   1.818  54.310  1.00  0.00     0.000 A 
HETATM   20  C18 UNL     1      28.532   2.514  53.587  1.00  0.00     0.001 A 
HETATM   21  C19 UNL     1      27.545   1.875  52.857  1.00  0.00     0.007 A 
ENDBRANCH  15  16
ENDBRANCH  14  15
ENDBRANCH  12  14
ENDBRANCH   2  12
BRANCH   1  22
HETATM   22  C1  UNL     1      21.312  -0.974  54.006  1.00  0.00     0.110 C 
BRANCH  22  23
HETATM   23  N1  UNL     1      20.191  -1.522  54.256  1.00  0.00    -0.312 NA
HETATM   24  H1  UNL     1      20.027  -2.107  55.130  1.00  0.00     0.186 HD
ENDBRANCH  22  23
ENDBRANCH   1  22
TORSDOF 9
ENDMDL
MODEL 5
REMARK VINA RESULT:      -6.3      3.099      6.213
REMARK  9 active torsions:
REMARK  status: ('A' for Active; 'I' for Inactive)
REMARK    1  A    between atoms: N1_1  and  C1_2 
REMARK    2  A    between atoms: C1_2  and  C2_3 
REMARK    3  A    between atoms: C3_4  and  C4_5 
REMARK    4  A    between atoms: C3_4  and  N2_14 
REMARK    5  A    between atoms: C5_6  and  O1_7 
REMARK    6  A    between atoms: O1_7  and  C6_8 
REMARK    7  A    between atoms: N2_14  and  C12_15 
REMARK    8  A    between atoms: C12_15  and  C13_16 
REMARK    9  A    between atoms: C13_16  and  C14_17 
ROOT
HETATM    1  C2  UNL     1      19.875  -0.710  53.326  1.00  0.00     0.057 C 
HETATM    2  C3  UNL     1      20.932  -0.043  52.914  1.00  0.00     0.086 C 
ENDROOT
BRANCH   2   3
HETATM    3  C4  UNL     1      22.164  -0.344  53.581  1.00  0.00    -0.018 C 
HETATM    4  C5  UNL     1      23.204  -0.602  54.164  1.00  0.00     0.067 C 
BRANCH   4   5
HETATM    5  O1  UNL     1      24.367  -0.897  54.822  1.00  0.00    -0.261 OA
BRANCH   5   6
HETATM    6  C6  UNL     1      25.591  -0.662  54.230  1.00  0.00     0.087 A 
HETATM    7  C7  UNL     1      26.070  -1.127  53.036  1.00  0.00     0.038 A 
HETATM    8  C8  UNL     1      27.291  -0.859  52.499  1.00  0.00     0.003 A 
HETATM    9  C9  UNL     1      28.127  -0.029  53.252  1.00  0.00     0.000 A 
HETATM   10  C10 UNL     1      27.683   0.459  54.459  1.00  0.00     0.003 A 
HETATM   11  C11 UNL     1      26.420   0.158  54.970  1.00  0.00     0.038 A 
ENDBRANCH   5   6
ENDBRANCH   4   5
ENDBRANCH   2   3
BRANCH   2  12
HETATM   12  N2  UNL     1      20.958   0.932  51.887  1.00  0.00    -0.383 N 
HETATM   13  H9  UNL     1      20.169   1.595  52.119  1.00  0.00     0.160 HD
BRANCH  12  14
HETATM   14  C12 UNL     1      21.893   0.953  50.787  1.00  0.00     0.125 C 
BRANCH  14  15
HETATM   15  C13 UNL     1      22.261   2.330  50.346  1.00  0.00     0.058 C 
BRANCH  15  16
HETATM   16  C14 UNL     1      23.722   2.551  50.507  1.00  0.00    -0.057 A 
HETATM   17  C15 UNL     1      24.448   3.181  49.489  1.00  0.00     0.007 A 
HETATM   18  C16 UNL     1      25.800   3.409  49.591  1.00  0.00     0.001 A 
HETATM   19  C17 UNL     1      26.497   3.023  50.709  1.00  0.00     0.000 A 
HETATM   20  C18 UNL     1      25.790   2.402  51.717  1.00  0.00     0.001 A 
HETATM   21  C19 UNL     1      24.429   2.167  51.627  1.00  0.00     0.007 A 
ENDBRANCH  15  16
ENDBRANCH  14  15
ENDBRANCH  12  14
ENDBRANCH   2  12
BRANCH   1  22
HETATM   22  C1  UNL     1      18.486  -1.082  53.329  1.00  0.00     0.110 C 
BRANCH  22  23
HETATM   23  N1  UNL     1      17.293  -1.257  53.735  1.00  0.00    -0.312 NA
HETATM   24  H1  UNL     1      16.484  -0.653  53.400  1.00  0.00     0.186 HD
ENDBRANCH  22  23
ENDBRANCH   1  22
TORSDOF 9
ENDMDL
MODEL 6
REMARK VINA RESULT:      -6.3      2.296      3.510
REMARK  9 active torsions:
REMARK  status: ('A' for Active; 'I' for Inactive)
REMARK    1  A    between atoms: N1_1  and  C1_2 
REMARK    2  A    between atoms: C1_2  and  C2_3 
REMARK    3  A    between atoms: C3_4  and  C4_5 
REMARK    4  A    between atoms: C3_4  and  N2_14 
REMARK    5  A    between atoms: C5_6  and  O1_7 
REMARK    6  A    between atoms: O1_7  and  C6_8 
REMARK    7  A    between atoms: N2_14  and  C12_15 
REMARK    8  A    between atoms: C12_15  and  C13_16 
REMARK    9  A    between atoms: C13_16  and  C14_17 
ROOT
HETATM    1  C2  UNL     1      27.991   1.936  52.973  1.00  0.00     0.057 C 
HETATM    2  C3  UNL     1      27.155   1.421  52.097  1.00  0.00     0.086 C 
ENDROOT
BRANCH   2   3
HETATM    3  C4  UNL     1      26.603   2.336  51.141  1.00  0.00    -0.018 C 
HETATM    4  C5  UNL     1      26.150   3.123  50.327  1.00  0.00     0.067 C 
BRANCH   4   5
HETATM    5  O1  UNL     1      25.648   4.007  49.411  1.00  0.00    -0.261 OA
BRANCH   5   6
HETATM    6  C6  UNL     1      26.435   5.020  48.905  1.00  0.00     0.087 A 
HETATM    7  C7  UNL     1      27.771   5.004  48.611  1.00  0.00     0.038 A 
HETATM    8  C8  UNL     1      28.499   6.038  48.110  1.00  0.00     0.003 A 
HETATM    9  C9  UNL     1      27.802   7.228  47.880  1.00  0.00     0.000 A 
HETATM   10  C10 UNL     1      26.457   7.287  48.163  1.00  0.00     0.003 A 
HETATM   11  C11 UNL     1      25.751   6.198  48.675  1.00  0.00     0.038 A 
ENDBRANCH   5   6
ENDBRANCH   4   5
ENDBRANCH   2   3
BRANCH   2  12
HETATM   12  N2  UNL     1      26.759   0.063  52.016  1.00  0.00    -0.383 N 
HETATM   13  H9  UNL     1      27.121  -0.272  51.082  1.00  0.00     0.160 HD
BRANCH  12  14
HETATM   14  C12 UNL     1      26.020  -0.647  53.033  1.00  0.00     0.125 C 
BRANCH  14  15
HETATM   15  C13 UNL     1      25.155   0.237  53.867  1.00  0.00     0.058 C 
BRANCH  15  16
HETATM   16  C14 UNL     1      23.736   0.127  53.438  1.00  0.00    -0.057 A 
HETATM   17  C15 UNL     1      23.284   0.854  52.330  1.00  0.00     0.007 A 
HETATM   18  C16 UNL     1      21.981   0.785  51.894  1.00  0.00     0.001 A 
HETATM   19  C17 UNL     1      21.065  -0.010  52.537  1.00  0.00     0.000 A 
HETATM   20  C18 UNL     1      21.502  -0.730  53.630  1.00  0.00     0.001 A 
HETATM   21  C19 UNL     1      22.809  -0.669  54.078  1.00  0.00     0.007 A 
ENDBRANCH  15  16
ENDBRANCH  14  15
ENDBRANCH  12  14
ENDBRANCH   2  12
BRANCH   1  22
HETATM   22  C1  UNL     1      28.891   1.903  54.093  1.00  0.00     0.110 C 
BRANCH  22  23
HETATM   23  N1  UNL     1      29.764   2.276  54.941  1.00  0.00    -0.312 NA
HETATM   24  H1  UNL     1      30.517   1.620  55.307  1.00  0.00     0.186 HD
ENDBRANCH  22  23
ENDBRANCH   1  22
TORSDOF 9
ENDMDL
MODEL 7
REMARK VINA RESULT:      -6.3      3.001      6.297
REMARK  9 active torsions:
REMARK  status: ('A' for Active; 'I' for Inactive)
REMARK    1  A    between atoms: N1_1  and  C1_2 
REMARK    2  A    between atoms: C1_2  and  C2_3 
REMARK    3  A    between atoms: C3_4  and  C4_5 
REMARK    4  A    between atoms: C3_4  and  N2_14 
REMARK    5  A    between atoms: C5_6  and  O1_7 
REMARK    6  A    between atoms: O1_7  and  C6_8 
REMARK    7  A    between atoms: N2_14  and  C12_15 
REMARK    8  A    between atoms: C12_15  and  C13_16 
REMARK    9  A    between atoms: C13_16  and  C14_17 
ROOT
HETATM    1  C2  UNL     1      27.485   2.112  52.868  1.00  0.00     0.057 C 
HETATM    2  C3  UNL     1      26.728   2.491  51.860  1.00  0.00     0.086 C 
ENDROOT
BRANCH   2   3
HETATM    3  C4  UNL     1      25.414   1.921  51.812  1.00  0.00    -0.018 C 
HETATM    4  C5  UNL     1      24.291   1.449  51.757  1.00  0.00     0.067 C 
BRANCH   4   5
HETATM    5  O1  UNL     1      23.031   0.920  51.689  1.00  0.00    -0.261 OA
BRANCH   5   6
HETATM    6  C6  UNL     1      22.535   0.146  52.719  1.00  0.00     0.087 A 
HETATM    7  C7  UNL     1      23.207  -0.425  53.764  1.00  0.00     0.038 A 
HETATM    8  C8  UNL     1      22.663  -1.181  54.755  1.00  0.00     0.003 A 
HETATM    9  C9  UNL     1      21.282  -1.387  54.686  1.00  0.00     0.000 A 
HETATM   10  C10 UNL     1      20.568  -0.831  53.650  1.00  0.00     0.003 A 
HETATM   11  C11 UNL     1      21.170  -0.060  52.655  1.00  0.00     0.038 A 
ENDBRANCH   5   6
ENDBRANCH   4   5
ENDBRANCH   2   3
BRANCH   2  12
HETATM   12  N2  UNL     1      27.093   3.399  50.836  1.00  0.00    -0.383 N 
HETATM   13  H9  UNL     1      27.916   3.934  51.226  1.00  0.00     0.160 HD
BRANCH  12  14
HETATM   14  C12 UNL     1      26.434   3.514  49.557  1.00  0.00     0.125 C 
BRANCH  14  15
HETATM   15  C13 UNL     1      25.808   4.849  49.328  1.00  0.00     0.058 C 
BRANCH  15  16
HETATM   16  C14 UNL     1      26.758   5.752  48.626  1.00  0.00    -0.057 A 
HETATM   17  C15 UNL     1      28.098   5.376  48.478  1.00  0.00     0.007 A 
HETATM   18  C16 UNL     1      29.014   6.176  47.837  1.00  0.00     0.001 A 
HETATM   19  C17 UNL     1      28.643   7.389  47.311  1.00  0.00     0.000 A 
HETATM   20  C18 UNL     1      27.324   7.768  47.453  1.00  0.00     0.001 A 
HETATM   21  C19 UNL     1      26.393   6.971  48.096  1.00  0.00     0.007 A 
ENDBRANCH  15  16
ENDBRANCH  14  15
ENDBRANCH  12  14
ENDBRANCH   2  12
BRANCH   1  22
HETATM   22  C1  UNL     1      28.681   2.088  53.665  1.00  0.00     0.110 C 
BRANCH  22  23
HETATM   23  N1  UNL     1      29.475   2.277  54.642  1.00  0.00    -0.312 NA
HETATM   24  H1  UNL     1      29.860   1.475  55.225  1.00  0.00     0.186 HD
ENDBRANCH  22  23
ENDBRANCH   1  22
TORSDOF 9
ENDMDL
MODEL 8
REMARK VINA RESULT:      -6.3      2.346      4.075
REMARK  9 active torsions:
REMARK  status: ('A' for Active; 'I' for Inactive)
REMARK    1  A    between atoms: N1_1  and  C1_2 
REMARK    2  A    between atoms: C1_2  and  C2_3 
REMARK    3  A    between atoms: C3_4  and  C4_5 
REMARK    4  A    between atoms: C3_4  and  N2_14 
REMARK    5  A    between atoms: C5_6  and  O1_7 
REMARK    6  A    between atoms: O1_7  and  C6_8 
REMARK    7  A    between atoms: N2_14  and  C12_15 
REMARK    8  A    between atoms: C12_15  and  C13_16 
REMARK    9  A    between atoms: C13_16  and  C14_17 
ROOT
HETATM    1  C2  UNL     1      27.621   2.133  52.869  1.00  0.00     0.057 C 
HETATM    2  C3  UNL     1      26.813   1.335  52.205  1.00  0.00     0.086 C 
ENDROOT
BRANCH   2   3
HETATM    3  C4  UNL     1      25.791   1.977  51.430  1.00  0.00    -0.018 C 
HETATM    4  C5  UNL     1      24.912   2.524  50.787  1.00  0.00     0.067 C 
BRANCH   4   5
HETATM    5  O1  UNL     1      23.924   3.143  50.071  1.00  0.00    -0.261 OA
BRANCH   5   6
HETATM    6  C6  UNL     1      22.645   2.625  50.042  1.00  0.00     0.087 A 
HETATM    7  C7  UNL     1      22.135   1.645  49.236  1.00  0.00     0.038 A 
HETATM    8  C8  UNL     1      20.859   1.172  49.252  1.00  0.00     0.003 A 
HETATM    9  C9  UNL     1      19.997   1.753  50.187  1.00  0.00     0.000 A 
HETATM   10  C10 UNL     1      20.471   2.744  51.015  1.00  0.00     0.003 A 
HETATM   11  C11 UNL     1      21.790   3.197  50.963  1.00  0.00     0.038 A 
ENDBRANCH   5   6
ENDBRANCH   4   5
ENDBRANCH   2   3
BRANCH   2  12
HETATM   12  N2  UNL     1      26.863  -0.081  52.188  1.00  0.00    -0.383 N 
HETATM   13  H9  UNL     1      27.660  -0.318  51.537  1.00  0.00     0.160 HD
BRANCH  12  14
HETATM   14  C12 UNL     1      25.981  -0.951  52.928  1.00  0.00     0.125 C 
BRANCH  14  15
HETATM   15  C13 UNL     1      25.261  -0.263  54.039  1.00  0.00     0.058 C 
BRANCH  15  16
HETATM   16  C14 UNL     1      23.793  -0.447  53.898  1.00  0.00    -0.057 A 
HETATM   17  C15 UNL     1      23.074  -1.114  54.897  1.00  0.00     0.007 A 
HETATM   18  C16 UNL     1      21.716  -1.308  54.812  1.00  0.00     0.001 A 
HETATM   19  C17 UNL     1      21.005  -0.850  53.731  1.00  0.00     0.000 A 
HETATM   20  C18 UNL     1      21.705  -0.191  52.741  1.00  0.00     0.001 A 
HETATM   21  C19 UNL     1      23.072   0.011  52.815  1.00  0.00     0.007 A 
ENDBRANCH  15  16
ENDBRANCH  14  15
ENDBRANCH  12  14
ENDBRANCH   2  12
BRANCH   1  22
HETATM   22  C1  UNL     1      28.721   2.445  53.740  1.00  0.00     0.110 C 
BRANCH  22  23
HETATM   23  N1  UNL     1      29.638   2.305  54.612  1.00  0.00    -0.312 NA
HETATM   24  H1  UNL     1      29.996   1.349  54.912  1.00  0.00     0.186 HD
ENDBRANCH  22  23
ENDBRANCH   1  22
TORSDOF 9
ENDMDL
MODEL 9
REMARK VINA RESULT:      -6.2      2.800      6.692
REMARK  9 active torsions:
REMARK  status: ('A' for Active; 'I' for Inactive)
REMARK    1  A    between atoms: N1_1  and  C1_2 
REMARK    2  A    between atoms: C1_2  and  C2_3 
REMARK    3  A    between atoms: C3_4  and  C4_5 
REMARK    4  A    between atoms: C3_4  and  N2_14 
REMARK    5  A    between atoms: C5_6  and  O1_7 
REMARK    6  A    between atoms: O1_7  and  C6_8 
REMARK    7  A    between atoms: N2_14  and  C12_15 
REMARK    8  A    between atoms: C12_15  and  C13_16 
REMARK    9  A    between atoms: C13_16  and  C14_17 
ROOT
HETATM    1  C2  UNL     1      23.065   2.453  52.171  1.00  0.00     0.057 C 
HETATM    2  C3  UNL     1      24.224   3.073  52.241  1.00  0.00     0.086 C 
ENDROOT
BRANCH   2   3
HETATM    3  C4  UNL     1      25.207   2.474  53.095  1.00  0.00    -0.018 C 
HETATM    4  C5  UNL     1      26.052   1.957  53.806  1.00  0.00     0.067 C 
BRANCH   4   5
HETATM    5  O1  UNL     1      27.005   1.379  54.599  1.00  0.00    -0.261 OA
BRANCH   5   6
HETATM    6  C6  UNL     1      27.776   0.336  54.128  1.00  0.00     0.087 A 
HETATM    7  C7  UNL     1      29.124   0.140  54.254  1.00  0.00     0.038 A 
HETATM    8  C8  UNL     1      29.834  -0.913  53.767  1.00  0.00     0.003 A 
HETATM    9  C9  UNL     1      29.104  -1.881  53.071  1.00  0.00     0.000 A 
HETATM   10  C10 UNL     1      27.746  -1.721  52.921  1.00  0.00     0.003 A 
HETATM   11  C11 UNL     1      27.059  -0.623  53.440  1.00  0.00     0.038 A 
ENDBRANCH   5   6
ENDBRANCH   4   5
ENDBRANCH   2   3
BRANCH   2  12
HETATM   12  N2  UNL     1      24.579   4.261  51.557  1.00  0.00    -0.383 N 
HETATM   13  H9  UNL     1      24.708   4.985  52.316  1.00  0.00     0.160 HD
BRANCH  12  14
HETATM   14  C12 UNL     1      24.718   4.385  50.126  1.00  0.00     0.125 C 
BRANCH  14  15
HETATM   15  C13 UNL     1      26.032   3.902  49.611  1.00  0.00     0.058 C 
BRANCH  15  16
HETATM   16  C14 UNL     1      26.770   5.011  48.951  1.00  0.00    -0.057 A 
HETATM   17  C15 UNL     1      26.105   6.205  48.646  1.00  0.00     0.007 A 
HETATM   18  C16 UNL     1      26.743   7.260  48.037  1.00  0.00     0.001 A 
HETATM   19  C17 UNL     1      28.072   7.181  47.702  1.00  0.00     0.000 A 
HETATM   20  C18 UNL     1      28.735   6.008  48.000  1.00  0.00     0.001 A 
HETATM   21  C19 UNL     1      28.104   4.940  48.613  1.00  0.00     0.007 A 
ENDBRANCH  15  16
ENDBRANCH  14  15
ENDBRANCH  12  14
ENDBRANCH   2  12
BRANCH   1  22
HETATM   22  C1  UNL     1      21.715   2.257  51.717  1.00  0.00     0.110 C 
BRANCH  22  23
HETATM   23  N1  UNL     1      20.465   2.436  51.561  1.00  0.00    -0.312 NA
HETATM   24  H1  UNL     1      19.834   1.695  51.132  1.00  0.00     0.186 HD
ENDBRANCH  22  23
ENDBRANCH   1  22
TORSDOF 9
ENDMDL
