MODEL 1
REMARK VINA RESULT:      -8.5      0.000      0.000
REMARK  5 active torsions:
REMARK  status: ('A' for Active; 'I' for Inactive)
REMARK    1  A    between atoms: O1_2  and  C2_3 
REMARK    2  A    between atoms: C7_10  and  N3_11 
REMARK    3  A    between atoms: N3_11  and  C9_13 
REMARK    4  A    between atoms: C12_16  and  N4_17 
REMARK       I    between atoms: N4_17  and  C13_18 
REMARK       I    between atoms: C13_18  and  N5_20 
REMARK    5  A    between atoms: N5_20  and  C14_21 
ROOT
HETATM    1  C9  UNL     1      25.729   5.814  49.610  1.00  0.00     0.035 A 
HETATM    2  C10 UNL     1      26.225   7.034  49.201  1.00  0.00     0.032 A 
HETATM    3  C11 UNL     1      27.407   7.143  48.517  1.00  0.00     0.032 A 
HETATM    4  C12 UNL     1      28.167   6.041  48.199  1.00  0.00     0.036 A 
HETATM    5  C20 UNL     1      27.650   4.839  48.618  1.00  0.00     0.032 A 
HETATM    6  C21 UNL     1      26.472   4.704  49.302  1.00  0.00     0.032 A 
ENDROOT
BRANCH   1   7
HETATM    7  N3  UNL     1      24.490   5.693  50.327  1.00  0.00    -0.335 N 
HETATM    8  C8  UNL     1      24.243   6.625  51.437  1.00  0.00     0.158 C 
BRANCH   7   9
HETATM    9  C7  UNL     1      23.595   4.673  49.899  1.00  0.00     0.144 A 
HETATM   10  C4  UNL     1      23.306   3.519  50.584  1.00  0.00     0.043 A 
HETATM   11  C3  UNL     1      24.040   3.495  51.832  1.00  0.00     0.081 C 
HETATM   12  C5  UNL     1      22.439   2.549  50.131  1.00  0.00     0.074 A 
HETATM   13  C2  UNL     1      24.284   2.427  52.611  1.00  0.00     0.185 C 
HETATM   14  O3  UNL     1      23.875   1.117  52.366  1.00  0.00    -0.300 OA
HETATM   15  C23 UNL     1      22.691   0.660  51.753  1.00  0.00     0.147 C 
HETATM   16  C22 UNL     1      22.059   1.291  50.769  1.00  0.00     0.057 C 
HETATM   17  N1  UNL     1      21.849   2.770  48.934  1.00  0.00    -0.241 NA
HETATM   18  C6  UNL     1      22.116   3.893  48.243  1.00  0.00     0.236 A 
HETATM   19  N2  UNL     1      22.967   4.823  48.710  1.00  0.00    -0.223 NA
BRANCH  13  20
HETATM   20  O1  UNL     1      25.019   2.699  53.760  1.00  0.00    -0.335 OA
HETATM   21  C1  UNL     1      26.289   2.050  53.891  1.00  0.00     0.212 C 
ENDBRANCH  13  20
ENDBRANCH   7   9
ENDBRANCH   1   7
BRANCH   4  22
HETATM   22  N4  UNL     1      29.376   6.239  47.491  1.00  0.00    -0.309 N 
HETATM   23  C13 UNL     1      30.715   6.052  47.916  1.00  0.00     0.325 C 
HETATM   24  O2  UNL     1      30.928   5.654  49.086  1.00  0.00    -0.247 OA
HETATM   25  N5  UNL     1      31.855   6.286  47.106  1.00  0.00    -0.309 N 
HETATM   26  H12 UNL     1      31.704   6.619  46.126  1.00  0.00     0.170 HD
HETATM   27  H11 UNL     1      29.345   6.570  46.503  1.00  0.00     0.170 HD
BRANCH  25  28
HETATM   28  C14 UNL     1      33.130   6.039  47.721  1.00  0.00     0.036 A 
HETATM   29  C15 UNL     1      33.703   4.817  48.006  1.00  0.00     0.029 A 
HETATM   30  C16 UNL     1      34.947   4.782  48.603  1.00  0.00     0.002 A 
HETATM   31  C17 UNL     1      35.632   5.942  48.925  1.00  0.00     0.000 A 
HETATM   32  C18 UNL     1      35.065   7.177  48.644  1.00  0.00     0.002 A 
HETATM   33  C19 UNL     1      33.820   7.188  48.045  1.00  0.00     0.029 A 
ENDBRANCH  25  28
ENDBRANCH   4  22
TORSDOF 5
ENDMDL
MODEL 2
REMARK VINA RESULT:      -8.3      1.950      3.119
REMARK  5 active torsions:
REMARK  status: ('A' for Active; 'I' for Inactive)
REMARK    1  A    between atoms: O1_2  and  C2_3 
REMARK    2  A    between atoms: C7_10  and  N3_11 
REMARK    3  A    between atoms: N3_11  and  C9_13 
REMARK    4  A    between atoms: C12_16  and  N4_17 
REMARK       I    between atoms: N4_17  and  C13_18 
REMARK       I    between atoms: C13_18  and  N5_20 
REMARK    5  A    between atoms: N5_20  and  C14_21 
ROOT
HETATM    1  C9  UNL     1      25.711   5.698  49.821  1.00  0.00     0.035 A 
HETATM    2  C10 UNL     1      26.500   4.658  49.377  1.00  0.00     0.032 A 
HETATM    3  C11 UNL     1      27.637   4.874  48.645  1.00  0.00     0.032 A 
HETATM    4  C12 UNL     1      28.057   6.141  48.311  1.00  0.00     0.036 A 
HETATM    5  C20 UNL     1      27.253   7.158  48.766  1.00  0.00     0.032 A 
HETATM    6  C21 UNL     1      26.113   6.968  49.499  1.00  0.00     0.032 A 
ENDROOT
BRANCH   1   7
HETATM    7  N3  UNL     1      24.517   5.478  50.590  1.00  0.00    -0.335 N 
HETATM    8  C8  UNL     1      23.839   6.653  51.159  1.00  0.00     0.158 C 
BRANCH   7   9
HETATM    9  C7  UNL     1      24.084   4.131  50.737  1.00  0.00     0.144 A 
HETATM   10  C4  UNL     1      23.210   3.474  49.907  1.00  0.00     0.043 A 
HETATM   11  C3  UNL     1      22.798   4.354  48.834  1.00  0.00     0.081 C 
HETATM   12  C5  UNL     1      22.807   2.168  50.089  1.00  0.00     0.074 A 
HETATM   13  C2  UNL     1      21.732   4.210  48.028  1.00  0.00     0.185 C 
HETATM   14  O3  UNL     1      20.803   3.171  48.069  1.00  0.00    -0.300 OA
HETATM   15  C23 UNL     1      21.006   1.814  48.389  1.00  0.00     0.147 C 
HETATM   16  C22 UNL     1      21.888   1.372  49.278  1.00  0.00     0.057 C 
HETATM   17  N1  UNL     1      23.319   1.516  51.158  1.00  0.00    -0.241 NA
HETATM   18  C6  UNL     1      24.176   2.138  51.986  1.00  0.00     0.236 A 
HETATM   19  N2  UNL     1      24.552   3.414  51.784  1.00  0.00    -0.223 NA
BRANCH  13  20
HETATM   20  O1  UNL     1      21.578   5.214  47.078  1.00  0.00    -0.335 OA
HETATM   21  C1  UNL     1      22.500   6.309  47.131  1.00  0.00     0.212 C 
ENDBRANCH  13  20
ENDBRANCH   7   9
ENDBRANCH   1   7
BRANCH   4  22
HETATM   22  N4  UNL     1      29.244   6.278  47.552  1.00  0.00    -0.309 N 
HETATM   23  C13 UNL     1      30.590   6.046  47.927  1.00  0.00     0.325 C 
HETATM   24  O2  UNL     1      30.835   5.660  49.095  1.00  0.00    -0.247 OA
HETATM   25  N5  UNL     1      31.705   6.221  47.069  1.00  0.00    -0.309 N 
HETATM   26  H12 UNL     1      31.528   6.543  46.089  1.00  0.00     0.170 HD
HETATM   27  H11 UNL     1      29.186   6.593  46.560  1.00  0.00     0.170 HD
BRANCH  25  28
HETATM   28  C14 UNL     1      32.994   5.934  47.637  1.00  0.00     0.036 A 
HETATM   29  C15 UNL     1      33.594   4.700  47.779  1.00  0.00     0.029 A 
HETATM   30  C16 UNL     1      34.846   4.626  48.354  1.00  0.00     0.002 A 
HETATM   31  C17 UNL     1      35.514   5.757  48.793  1.00  0.00     0.000 A 
HETATM   32  C18 UNL     1      34.919   7.004  48.656  1.00  0.00     0.002 A 
HETATM   33  C19 UNL     1      33.665   7.055  48.077  1.00  0.00     0.029 A 
ENDBRANCH  25  28
ENDBRANCH   4  22
TORSDOF 5
ENDMDL
MODEL 3
REMARK VINA RESULT:      -8.3      2.503      9.036
REMARK  5 active torsions:
REMARK  status: ('A' for Active; 'I' for Inactive)
REMARK    1  A    between atoms: O1_2  and  C2_3 
REMARK    2  A    between atoms: C7_10  and  N3_11 
REMARK    3  A    between atoms: N3_11  and  C9_13 
REMARK    4  A    between atoms: C12_16  and  N4_17 
REMARK       I    between atoms: N4_17  and  C13_18 
REMARK       I    between atoms: C13_18  and  N5_20 
REMARK    5  A    between atoms: N5_20  and  C14_21 
ROOT
HETATM    1  C9  UNL     1      27.905   6.703  47.955  1.00  0.00     0.035 A 
HETATM    2  C10 UNL     1      28.329   5.403  48.135  1.00  0.00     0.032 A 
HETATM    3  C11 UNL     1      27.564   4.477  48.793  1.00  0.00     0.032 A 
HETATM    4  C12 UNL     1      26.330   4.790  49.312  1.00  0.00     0.036 A 
HETATM    5  C20 UNL     1      25.932   6.091  49.119  1.00  0.00     0.032 A 
HETATM    6  C21 UNL     1      26.676   7.034  48.465  1.00  0.00     0.032 A 
ENDROOT
BRANCH   1   7
HETATM    7  N3  UNL     1      28.702   7.679  47.265  1.00  0.00    -0.335 N 
HETATM    8  C8  UNL     1      28.336   8.012  45.880  1.00  0.00     0.158 C 
BRANCH   7   9
HETATM    9  C7  UNL     1      29.788   8.250  47.985  1.00  0.00     0.144 A 
HETATM   10  C4  UNL     1      31.088   7.810  47.959  1.00  0.00     0.043 A 
HETATM   11  C3  UNL     1      31.202   6.675  47.067  1.00  0.00     0.081 C 
HETATM   12  C5  UNL     1      32.113   8.385  48.679  1.00  0.00     0.074 A 
HETATM   13  C2  UNL     1      32.202   5.777  47.017  1.00  0.00     0.185 C 
HETATM   14  O3  UNL     1      33.337   5.763  47.826  1.00  0.00    -0.300 OA
HETATM   15  C23 UNL     1      34.062   6.850  48.354  1.00  0.00     0.147 C 
HETATM   16  C22 UNL     1      33.522   8.005  48.730  1.00  0.00     0.057 C 
HETATM   17  N1  UNL     1      31.791   9.448  49.452  1.00  0.00    -0.241 NA
HETATM   18  C6  UNL     1      30.525   9.898  49.496  1.00  0.00     0.236 A 
HETATM   19  N2  UNL     1      29.545   9.316  48.781  1.00  0.00    -0.223 NA
BRANCH  13  20
HETATM   20  O1  UNL     1      32.048   4.785  46.055  1.00  0.00    -0.335 OA
HETATM   21  C1  UNL     1      32.409   3.451  46.430  1.00  0.00     0.212 C 
ENDBRANCH  13  20
ENDBRANCH   7   9
ENDBRANCH   1   7
BRANCH   4  22
HETATM   22  N4  UNL     1      25.603   3.776  49.979  1.00  0.00    -0.309 N 
HETATM   23  C13 UNL     1      26.031   2.856  50.968  1.00  0.00     0.325 C 
HETATM   24  O2  UNL     1      27.223   2.894  51.354  1.00  0.00    -0.247 OA
HETATM   25  N5  UNL     1      25.200   1.876  51.568  1.00  0.00    -0.309 N 
HETATM   26  H12 UNL     1      24.201   1.823  51.263  1.00  0.00     0.170 HD
HETATM   27  H11 UNL     1      24.594   3.633  49.754  1.00  0.00     0.170 HD
BRANCH  25  28
HETATM   28  C14 UNL     1      25.823   1.034  52.553  1.00  0.00     0.036 A 
HETATM   29  C15 UNL     1      25.879   1.237  53.916  1.00  0.00     0.029 A 
HETATM   30  C16 UNL     1      26.527   0.309  54.706  1.00  0.00     0.002 A 
HETATM   31  C17 UNL     1      27.123  -0.818  54.164  1.00  0.00     0.000 A 
HETATM   32  C18 UNL     1      27.073  -1.032  52.794  1.00  0.00     0.002 A 
HETATM   33  C19 UNL     1      26.418  -0.090  52.022  1.00  0.00     0.029 A 
ENDBRANCH  25  28
ENDBRANCH   4  22
TORSDOF 5
ENDMDL
MODEL 4
REMARK VINA RESULT:      -8.2      1.946      3.275
REMARK  5 active torsions:
REMARK  status: ('A' for Active; 'I' for Inactive)
REMARK    1  A    between atoms: O1_2  and  C2_3 
REMARK    2  A    between atoms: C7_10  and  N3_11 
REMARK    3  A    between atoms: N3_11  and  C9_13 
REMARK    4  A    between atoms: C12_16  and  N4_17 
REMARK       I    between atoms: N4_17  and  C13_18 
REMARK       I    between atoms: C13_18  and  N5_20 
REMARK    5  A    between atoms: N5_20  and  C14_21 
ROOT
HETATM    1  C9  UNL     1      25.218   4.382  50.291  1.00  0.00     0.035 A 
HETATM    2  C10 UNL     1      25.310   5.738  50.063  1.00  0.00     0.032 A 
HETATM    3  C11 UNL     1      26.307   6.277  49.295  1.00  0.00     0.032 A 
HETATM    4  C12 UNL     1      27.275   5.496  48.707  1.00  0.00     0.036 A 
HETATM    5  C20 UNL     1      27.161   4.149  48.950  1.00  0.00     0.032 A 
HETATM    6  C21 UNL     1      26.174   3.586  49.713  1.00  0.00     0.032 A 
ENDROOT
BRANCH   1   7
HETATM    7  N3  UNL     1      24.174   3.810  51.096  1.00  0.00    -0.335 N 
HETATM    8  C8  UNL     1      22.805   4.314  50.908  1.00  0.00     0.158 C 
BRANCH   7   9
HETATM    9  C7  UNL     1      24.553   2.791  52.014  1.00  0.00     0.144 A 
HETATM   10  C4  UNL     1      23.911   1.591  52.192  1.00  0.00     0.043 A 
HETATM   11  C3  UNL     1      22.786   1.499  51.285  1.00  0.00     0.081 C 
HETATM   12  C5  UNL     1      24.305   0.632  53.100  1.00  0.00     0.074 A 
HETATM   13  C2  UNL     1      21.741   0.658  51.369  1.00  0.00     0.185 C 
HETATM   14  O3  UNL     1      21.533  -0.302  52.359  1.00  0.00    -0.300 OA
HETATM   15  C23 UNL     1      22.482  -1.082  53.048  1.00  0.00     0.147 C 
HETATM   16  C22 UNL     1      23.703  -0.670  53.375  1.00  0.00     0.057 C 
HETATM   17  N1  UNL     1      25.393   0.916  53.852  1.00  0.00    -0.241 NA
HETATM   18  C6  UNL     1      26.040   2.085  53.697  1.00  0.00     0.236 A 
HETATM   19  N2  UNL     1      25.633   3.002  52.802  1.00  0.00    -0.223 NA
BRANCH  13  20
HETATM   20  O1  UNL     1      20.800   0.792  50.353  1.00  0.00    -0.335 OA
HETATM   21  C1  UNL     1      21.297   1.048  49.035  1.00  0.00     0.212 C 
ENDBRANCH  13  20
ENDBRANCH   7   9
ENDBRANCH   1   7
BRANCH   4  22
HETATM   22  N4  UNL     1      28.272   6.131  47.929  1.00  0.00    -0.309 N 
HETATM   23  C13 UNL     1      29.682   6.089  48.055  1.00  0.00     0.325 C 
HETATM   24  O2  UNL     1      30.187   5.404  48.976  1.00  0.00    -0.247 OA
HETATM   25  N5  UNL     1      30.586   6.775  47.204  1.00  0.00    -0.309 N 
HETATM   26  H12 UNL     1      30.191   7.353  46.427  1.00  0.00     0.170 HD
HETATM   27  H11 UNL     1      27.991   6.733  47.125  1.00  0.00     0.170 HD
BRANCH  25  28
HETATM   28  C14 UNL     1      31.983   6.606  47.497  1.00  0.00     0.036 A 
HETATM   29  C15 UNL     1      32.754   7.345  48.370  1.00  0.00     0.029 A 
HETATM   30  C16 UNL     1      34.089   7.029  48.518  1.00  0.00     0.002 A 
HETATM   31  C17 UNL     1      34.674   5.991  47.811  1.00  0.00     0.000 A 
HETATM   32  C18 UNL     1      33.908   5.241  46.929  1.00  0.00     0.002 A 
HETATM   33  C19 UNL     1      32.573   5.575  46.798  1.00  0.00     0.029 A 
ENDBRANCH  25  28
ENDBRANCH   4  22
TORSDOF 5
ENDMDL
MODEL 5
REMARK VINA RESULT:      -8.1      2.347      9.510
REMARK  5 active torsions:
REMARK  status: ('A' for Active; 'I' for Inactive)
REMARK    1  A    between atoms: O1_2  and  C2_3 
REMARK    2  A    between atoms: C7_10  and  N3_11 
REMARK    3  A    between atoms: N3_11  and  C9_13 
REMARK    4  A    between atoms: C12_16  and  N4_17 
REMARK       I    between atoms: N4_17  and  C13_18 
REMARK       I    between atoms: C13_18  and  N5_20 
REMARK    5  A    between atoms: N5_20  and  C14_21 
ROOT
HETATM    1  C9  UNL     1      25.830   6.468  49.103  1.00  0.00     0.035 A 
HETATM    2  C10 UNL     1      26.429   5.228  49.157  1.00  0.00     0.032 A 
HETATM    3  C11 UNL     1      25.704   4.082  49.348  1.00  0.00     0.032 A 
HETATM    4  C12 UNL     1      24.337   4.102  49.496  1.00  0.00     0.036 A 
HETATM    5  C20 UNL     1      23.765   5.350  49.438  1.00  0.00     0.032 A 
HETATM    6  C21 UNL     1      24.467   6.509  49.248  1.00  0.00     0.032 A 
ENDROOT
BRANCH   1   7
HETATM    7  N3  UNL     1      26.584   7.675  48.902  1.00  0.00    -0.335 N 
HETATM    8  C8  UNL     1      26.850   8.523  50.073  1.00  0.00     0.158 C 
BRANCH   7   9
HETATM    9  C7  UNL     1      27.015   7.952  47.575  1.00  0.00     0.144 A 
HETATM   10  C4  UNL     1      28.306   7.866  47.116  1.00  0.00     0.043 A 
HETATM   11  C3  UNL     1      29.177   7.430  48.187  1.00  0.00     0.081 C 
HETATM   12  C5  UNL     1      28.686   8.151  45.822  1.00  0.00     0.074 A 
HETATM   13  C2  UNL     1      30.517   7.537  48.239  1.00  0.00     0.185 C 
HETATM   14  O3  UNL     1      31.338   8.095  47.261  1.00  0.00    -0.300 OA
HETATM   15  C23 UNL     1      31.187   8.072  45.860  1.00  0.00     0.147 C 
HETATM   16  C22 UNL     1      30.019   8.097  45.226  1.00  0.00     0.057 C 
HETATM   17  N1  UNL     1      27.708   8.539  44.971  1.00  0.00    -0.241 NA
HETATM   18  C6  UNL     1      26.435   8.631  45.397  1.00  0.00     0.236 A 
HETATM   19  N2  UNL     1      26.093   8.345  46.666  1.00  0.00    -0.223 NA
BRANCH  13  20
HETATM   20  O1  UNL     1      31.097   7.030  49.397  1.00  0.00    -0.335 OA
HETATM   21  C1  UNL     1      32.134   6.055  49.234  1.00  0.00     0.212 C 
ENDBRANCH  13  20
ENDBRANCH   7   9
ENDBRANCH   1   7
BRANCH   4  22
HETATM   22  N4  UNL     1      23.663   2.873  49.690  1.00  0.00    -0.309 N 
HETATM   23  C13 UNL     1      23.172   2.288  50.884  1.00  0.00     0.325 C 
HETATM   24  O2  UNL     1      23.328   2.901  51.967  1.00  0.00    -0.247 OA
HETATM   25  N5  UNL     1      22.506   1.039  50.952  1.00  0.00    -0.309 N 
HETATM   26  H12 UNL     1      22.363   0.507  50.063  1.00  0.00     0.170 HD
HETATM   27  H11 UNL     1      23.466   2.260  48.871  1.00  0.00     0.170 HD
BRANCH  25  28
HETATM   28  C14 UNL     1      22.083   0.616  52.259  1.00  0.00     0.036 A 
HETATM   29  C15 UNL     1      20.904   0.927  52.903  1.00  0.00     0.029 A 
HETATM   30  C16 UNL     1      20.677   0.422  54.167  1.00  0.00     0.002 A 
HETATM   31  C17 UNL     1      21.602  -0.388  54.804  1.00  0.00     0.000 A 
HETATM   32  C18 UNL     1      22.792  -0.708  54.166  1.00  0.00     0.002 A 
HETATM   33  C19 UNL     1      22.999  -0.192  52.901  1.00  0.00     0.029 A 
ENDBRANCH  25  28
ENDBRANCH   4  22
TORSDOF 5
ENDMDL
MODEL 6
REMARK VINA RESULT:      -8.1      3.501      4.709
REMARK  5 active torsions:
REMARK  status: ('A' for Active; 'I' for Inactive)
REMARK    1  A    between atoms: O1_2  and  C2_3 
REMARK    2  A    between atoms: C7_10  and  N3_11 
REMARK    3  A    between atoms: N3_11  and  C9_13 
REMARK    4  A    between atoms: C12_16  and  N4_17 
REMARK       I    between atoms: N4_17  and  C13_18 
REMARK       I    between atoms: C13_18  and  N5_20 
REMARK    5  A    between atoms: N5_20  and  C14_21 
ROOT
HETATM    1  C9  UNL     1      23.102   3.827  49.855  1.00  0.00     0.035 A 
HETATM    2  C10 UNL     1      22.626   4.968  50.464  1.00  0.00     0.032 A 
HETATM    3  C11 UNL     1      23.448   6.017  50.780  1.00  0.00     0.032 A 
HETATM    4  C12 UNL     1      24.796   5.991  50.508  1.00  0.00     0.036 A 
HETATM    5  C20 UNL     1      25.245   4.843  49.901  1.00  0.00     0.032 A 
HETATM    6  C21 UNL     1      24.444   3.782  49.575  1.00  0.00     0.032 A 
ENDROOT
BRANCH   1   7
HETATM    7  N3  UNL     1      22.245   2.723  49.520  1.00  0.00    -0.335 N 
HETATM    8  C8  UNL     1      22.422   2.088  48.205  1.00  0.00     0.158 C 
BRANCH   7   9
HETATM    9  C7  UNL     1      21.287   2.331  50.496  1.00  0.00     0.144 A 
HETATM   10  C4  UNL     1      21.559   1.662  51.664  1.00  0.00     0.043 A 
HETATM   11  C3  UNL     1      22.983   1.423  51.770  1.00  0.00     0.081 C 
HETATM   12  C5  UNL     1      20.601   1.292  52.582  1.00  0.00     0.074 A 
HETATM   13  C2  UNL     1      23.601   0.538  52.571  1.00  0.00     0.185 C 
HETATM   14  O3  UNL     1      22.984  -0.334  53.467  1.00  0.00    -0.300 OA
HETATM   15  C23 UNL     1      21.821  -0.135  54.237  1.00  0.00     0.147 C 
HETATM   16  C22 UNL     1      20.771   0.581  53.847  1.00  0.00     0.057 C 
HETATM   17  N1  UNL     1      19.320   1.619  52.292  1.00  0.00    -0.241 NA
HETATM   18  C6  UNL     1      19.028   2.274  51.154  1.00  0.00     0.236 A 
HETATM   19  N2  UNL     1      19.985   2.623  50.276  1.00  0.00    -0.223 NA
BRANCH  13  20
HETATM   20  O1  UNL     1      24.988   0.523  52.464  1.00  0.00    -0.335 OA
HETATM   21  C1  UNL     1      25.682  -0.537  53.131  1.00  0.00     0.212 C 
ENDBRANCH  13  20
ENDBRANCH   7   9
ENDBRANCH   1   7
BRANCH   4  22
HETATM   22  N4  UNL     1      25.577   7.115  50.867  1.00  0.00    -0.309 N 
HETATM   23  C13 UNL     1      26.506   7.856  50.095  1.00  0.00     0.325 C 
HETATM   24  O2  UNL     1      26.714   7.515  48.907  1.00  0.00    -0.247 OA
HETATM   25  N5  UNL     1      27.234   8.976  50.571  1.00  0.00    -0.309 N 
HETATM   26  H12 UNL     1      27.079   9.282  51.559  1.00  0.00     0.170 HD
HETATM   27  H11 UNL     1      25.502   7.507  51.830  1.00  0.00     0.170 HD
BRANCH  25  28
HETATM   28  C14 UNL     1      28.131   9.594  49.632  1.00  0.00     0.036 A 
HETATM   29  C15 UNL     1      29.435   9.238  49.357  1.00  0.00     0.029 A 
HETATM   30  C16 UNL     1      30.141   9.957  48.415  1.00  0.00     0.002 A 
HETATM   31  C17 UNL     1      29.576  11.027  47.741  1.00  0.00     0.000 A 
HETATM   32  C18 UNL     1      28.265  11.394  48.011  1.00  0.00     0.002 A 
HETATM   33  C19 UNL     1      27.575  10.660  48.957  1.00  0.00     0.029 A 
ENDBRANCH  25  28
ENDBRANCH   4  22
TORSDOF 5
ENDMDL
MODEL 7
REMARK VINA RESULT:      -8.0      3.473      8.857
REMARK  5 active torsions:
REMARK  status: ('A' for Active; 'I' for Inactive)
REMARK    1  A    between atoms: O1_2  and  C2_3 
REMARK    2  A    between atoms: C7_10  and  N3_11 
REMARK    3  A    between atoms: N3_11  and  C9_13 
REMARK    4  A    between atoms: C12_16  and  N4_17 
REMARK       I    between atoms: N4_17  and  C13_18 
REMARK       I    between atoms: C13_18  and  N5_20 
REMARK    5  A    between atoms: N5_20  and  C14_21 
ROOT
HETATM    1  C9  UNL     1      27.055   7.244  47.705  1.00  0.00     0.035 A 
HETATM    2  C10 UNL     1      25.722   7.193  48.051  1.00  0.00     0.032 A 
HETATM    3  C11 UNL     1      25.194   6.137  48.745  1.00  0.00     0.032 A 
HETATM    4  C12 UNL     1      25.965   5.067  49.136  1.00  0.00     0.036 A 
HETATM    5  C20 UNL     1      27.289   5.143  48.779  1.00  0.00     0.032 A 
HETATM    6  C21 UNL     1      27.840   6.187  48.087  1.00  0.00     0.032 A 
ENDROOT
BRANCH   1   7
HETATM    7  N3  UNL     1      27.616   8.350  46.978  1.00  0.00    -0.335 N 
HETATM    8  C8  UNL     1      28.363   8.055  45.746  1.00  0.00     0.158 C 
BRANCH   7   9
HETATM    9  C7  UNL     1      27.398   9.650  47.513  1.00  0.00     0.144 A 
HETATM   10  C4  UNL     1      28.372  10.505  47.966  1.00  0.00     0.043 A 
HETATM   11  C3  UNL     1      29.674   9.893  47.803  1.00  0.00     0.081 C 
HETATM   12  C5  UNL     1      28.120  11.755  48.487  1.00  0.00     0.074 A 
HETATM   13  C2  UNL     1      30.821  10.249  48.407  1.00  0.00     0.185 C 
HETATM   14  O3  UNL     1      30.983  11.291  49.319  1.00  0.00    -0.300 OA
HETATM   15  C23 UNL     1      30.329  12.538  49.364  1.00  0.00     0.147 C 
HETATM   16  C22 UNL     1      29.068  12.743  48.998  1.00  0.00     0.057 C 
HETATM   17  N1  UNL     1      26.824  12.141  48.546  1.00  0.00    -0.241 NA
HETATM   18  C6  UNL     1      25.851  11.322  48.109  1.00  0.00     0.236 A 
HETATM   19  N2  UNL     1      26.127  10.106  47.604  1.00  0.00    -0.223 NA
BRANCH  13  20
HETATM   20  O1  UNL     1      31.927   9.480  48.061  1.00  0.00    -0.335 OA
HETATM   21  C1  UNL     1      32.128   8.262  48.788  1.00  0.00     0.212 C 
ENDBRANCH  13  20
ENDBRANCH   7   9
ENDBRANCH   1   7
BRANCH   4  22
HETATM   22  N4  UNL     1      25.343   4.015  49.850  1.00  0.00    -0.309 N 
HETATM   23  C13 UNL     1      25.908   3.062  50.734  1.00  0.00     0.325 C 
HETATM   24  O2  UNL     1      27.141   3.104  50.960  1.00  0.00    -0.247 OA
HETATM   25  N5  UNL     1      25.174   2.046  51.397  1.00  0.00    -0.309 N 
HETATM   26  H12 UNL     1      24.144   1.990  51.225  1.00  0.00     0.170 HD
HETATM   27  H11 UNL     1      24.315   3.866  49.755  1.00  0.00     0.170 HD
BRANCH  25  28
HETATM   28  C14 UNL     1      25.931   1.175  52.254  1.00  0.00     0.036 A 
HETATM   29  C15 UNL     1      26.657   0.060  51.891  1.00  0.00     0.029 A 
HETATM   30  C16 UNL     1      27.323  -0.653  52.866  1.00  0.00     0.002 A 
HETATM   31  C17 UNL     1      27.279  -0.280  54.199  1.00  0.00     0.000 A 
HETATM   32  C18 UNL     1      26.551   0.839  54.577  1.00  0.00     0.002 A 
HETATM   33  C19 UNL     1      25.893   1.540  53.584  1.00  0.00     0.029 A 
ENDBRANCH  25  28
ENDBRANCH   4  22
TORSDOF 5
ENDMDL
MODEL 8
REMARK VINA RESULT:      -7.9      3.838      9.361
REMARK  5 active torsions:
REMARK  status: ('A' for Active; 'I' for Inactive)
REMARK    1  A    between atoms: O1_2  and  C2_3 
REMARK    2  A    between atoms: C7_10  and  N3_11 
REMARK    3  A    between atoms: N3_11  and  C9_13 
REMARK    4  A    between atoms: C12_16  and  N4_17 
REMARK       I    between atoms: N4_17  and  C13_18 
REMARK       I    between atoms: C13_18  and  N5_20 
REMARK    5  A    between atoms: N5_20  and  C14_21 
ROOT
HETATM    1  C9  UNL     1      27.986   6.936  47.781  1.00  0.00     0.035 A 
HETATM    2  C10 UNL     1      28.479   5.684  48.081  1.00  0.00     0.032 A 
HETATM    3  C11 UNL     1      27.716   4.737  48.712  1.00  0.00     0.032 A 
HETATM    4  C12 UNL     1      26.415   4.982  49.082  1.00  0.00     0.036 A 
HETATM    5  C20 UNL     1      25.948   6.236  48.772  1.00  0.00     0.032 A 
HETATM    6  C21 UNL     1      26.689   7.198  48.142  1.00  0.00     0.032 A 
ENDROOT
BRANCH   1   7
HETATM    7  N3  UNL     1      28.780   7.933  47.119  1.00  0.00    -0.335 N 
HETATM    8  C8  UNL     1      28.909   7.851  45.656  1.00  0.00     0.158 C 
BRANCH   7   9
HETATM    9  C7  UNL     1      29.381   8.928  47.940  1.00  0.00     0.144 A 
HETATM   10  C4  UNL     1      29.001  10.246  48.011  1.00  0.00     0.043 A 
HETATM   11  C3  UNL     1      27.875  10.479  47.132  1.00  0.00     0.081 C 
HETATM   12  C5  UNL     1      29.615  11.183  48.814  1.00  0.00     0.074 A 
HETATM   13  C2  UNL     1      27.432  11.663  46.676  1.00  0.00     0.185 C 
HETATM   14  O3  UNL     1      27.977  12.914  46.963  1.00  0.00    -0.300 OA
HETATM   15  C23 UNL     1      28.580  13.364  48.155  1.00  0.00     0.147 C 
HETATM   16  C22 UNL     1      29.302  12.601  48.970  1.00  0.00     0.057 C 
HETATM   17  N1  UNL     1      30.653  10.753  49.568  1.00  0.00    -0.241 NA
HETATM   18  C6  UNL     1      31.044   9.467  49.515  1.00  0.00     0.236 A 
HETATM   19  N2  UNL     1      30.426   8.574  48.722  1.00  0.00    -0.223 NA
BRANCH  13  20
HETATM   20  O1  UNL     1      26.322  11.589  45.840  1.00  0.00    -0.335 OA
HETATM   21  C1  UNL     1      25.189  12.393  46.187  1.00  0.00     0.212 C 
ENDBRANCH  13  20
ENDBRANCH   7   9
ENDBRANCH   1   7
BRANCH   4  22
HETATM   22  N4  UNL     1      25.695   3.950  49.731  1.00  0.00    -0.309 N 
HETATM   23  C13 UNL     1      26.111   3.059  50.751  1.00  0.00     0.325 C 
HETATM   24  O2  UNL     1      27.282   3.145  51.188  1.00  0.00    -0.247 OA
HETATM   25  N5  UNL     1      25.289   2.057  51.327  1.00  0.00    -0.309 N 
HETATM   26  H12 UNL     1      24.306   1.965  50.980  1.00  0.00     0.170 HD
HETATM   27  H11 UNL     1      24.703   3.769  49.464  1.00  0.00     0.170 HD
BRANCH  25  28
HETATM   28  C14 UNL     1      25.896   1.251  52.351  1.00  0.00     0.036 A 
HETATM   29  C15 UNL     1      25.910   1.488  53.709  1.00  0.00     0.029 A 
HETATM   30  C16 UNL     1      26.550   0.591  54.540  1.00  0.00     0.002 A 
HETATM   31  C17 UNL     1      27.178  -0.539  54.044  1.00  0.00     0.000 A 
HETATM   32  C18 UNL     1      27.171  -0.788  52.679  1.00  0.00     0.002 A 
HETATM   33  C19 UNL     1      26.524   0.123  51.866  1.00  0.00     0.029 A 
ENDBRANCH  25  28
ENDBRANCH   4  22
TORSDOF 5
ENDMDL
MODEL 9
REMARK VINA RESULT:      -7.8      3.921      5.654
REMARK  5 active torsions:
REMARK  status: ('A' for Active; 'I' for Inactive)
REMARK    1  A    between atoms: O1_2  and  C2_3 
REMARK    2  A    between atoms: C7_10  and  N3_11 
REMARK    3  A    between atoms: N3_11  and  C9_13 
REMARK    4  A    between atoms: C12_16  and  N4_17 
REMARK       I    between atoms: N4_17  and  C13_18 
REMARK       I    between atoms: C13_18  and  N5_20 
REMARK    5  A    between atoms: N5_20  and  C14_21 
ROOT
HETATM    1  C9  UNL     1      23.542   3.341  50.735  1.00  0.00     0.035 A 
HETATM    2  C10 UNL     1      24.672   3.762  50.068  1.00  0.00     0.032 A 
HETATM    3  C11 UNL     1      25.161   5.035  50.203  1.00  0.00     0.032 A 
HETATM    4  C12 UNL     1      24.551   5.965  51.012  1.00  0.00     0.036 A 
HETATM    5  C20 UNL     1      23.427   5.520  51.665  1.00  0.00     0.032 A 
HETATM    6  C21 UNL     1      22.920   4.254  51.547  1.00  0.00     0.032 A 
ENDROOT
BRANCH   1   7
HETATM    7  N3  UNL     1      23.025   2.007  50.599  1.00  0.00    -0.335 N 
HETATM    8  C8  UNL     1      22.225   1.697  49.405  1.00  0.00     0.158 C 
BRANCH   7   9
HETATM    9  C7  UNL     1      23.334   1.087  51.640  1.00  0.00     0.144 A 
HETATM   10  C4  UNL     1      22.431   0.297  52.307  1.00  0.00     0.043 A 
HETATM   11  C3  UNL     1      21.102   0.524  51.781  1.00  0.00     0.081 C 
HETATM   12  C5  UNL     1      22.769  -0.577  53.317  1.00  0.00     0.074 A 
HETATM   13  C2  UNL     1      19.932   0.205  52.363  1.00  0.00     0.185 C 
HETATM   14  O3  UNL     1      19.770  -0.412  53.602  1.00  0.00    -0.300 OA
HETATM   15  C23 UNL     1      20.580  -1.387  54.218  1.00  0.00     0.147 C 
HETATM   16  C22 UNL     1      21.901  -1.459  54.093  1.00  0.00     0.057 C 
HETATM   17  N1  UNL     1      24.078  -0.642  53.655  1.00  0.00    -0.241 NA
HETATM   18  C6  UNL     1      24.982   0.123  53.017  1.00  0.00     0.236 A 
HETATM   19  N2  UNL     1      24.623   0.967  52.033  1.00  0.00    -0.223 NA
BRANCH  13  20
HETATM   20  O1  UNL     1      18.802   0.542  51.626  1.00  0.00    -0.335 OA
HETATM   21  C1  UNL     1      18.807   1.816  50.971  1.00  0.00     0.212 C 
ENDBRANCH  13  20
ENDBRANCH   7   9
ENDBRANCH   1   7
BRANCH   4  22
HETATM   22  N4  UNL     1      25.118   7.259  51.096  1.00  0.00    -0.309 N 
HETATM   23  C13 UNL     1      26.094   7.875  50.273  1.00  0.00     0.325 C 
HETATM   24  O2  UNL     1      26.567   7.229  49.308  1.00  0.00    -0.247 OA
HETATM   25  N5  UNL     1      26.588   9.191  50.460  1.00  0.00    -0.309 N 
HETATM   26  H12 UNL     1      26.210   9.751  51.258  1.00  0.00     0.170 HD
HETATM   27  H11 UNL     1      24.814   7.906  51.855  1.00  0.00     0.170 HD
BRANCH  25  28
HETATM   28  C14 UNL     1      27.579   9.635  49.518  1.00  0.00     0.036 A 
HETATM   29  C15 UNL     1      28.930   9.360  49.527  1.00  0.00     0.029 A 
HETATM   30  C16 UNL     1      29.727   9.881  48.528  1.00  0.00     0.002 A 
HETATM   31  C17 UNL     1      29.205  10.673  47.519  1.00  0.00     0.000 A 
HETATM   32  C18 UNL     1      27.847  10.957  47.500  1.00  0.00     0.002 A 
HETATM   33  C19 UNL     1      27.067  10.424  48.509  1.00  0.00     0.029 A 
ENDBRANCH  25  28
ENDBRANCH   4  22
TORSDOF 5
ENDMDL
