MODEL 1
REMARK VINA RESULT:      -8.6      0.000      0.000
REMARK  2 active torsions:
REMARK  status: ('A' for Active; 'I' for Inactive)
REMARK    1  A    between atoms: C9_10  and  C10_11 
REMARK    2  A    between atoms: C10_11  and  C11_12 
ROOT
HETATM    1  C1  UNL     1      21.255   1.453  50.777  1.00  0.00     0.149 C 
HETATM    2  N1  UNL     1      22.088   1.271  51.970  1.00  0.00    -0.391 N 
HETATM    3  C2  UNL     1      22.127  -0.085  52.400  1.00  0.00     0.085 C 
HETATM    4  C3  UNL     1      23.062  -0.830  52.971  1.00  0.00     0.017 C 
HETATM    5  C4  UNL     1      24.438  -0.650  53.419  1.00  0.00     0.010 C 
HETATM    6  C5  UNL     1      25.320   0.367  53.296  1.00  0.00    -0.035 C 
HETATM    7  C6  UNL     1      25.150   1.719  52.617  1.00  0.00    -0.049 C 
HETATM    8  C7  UNL     1      24.151   2.485  52.313  1.00  0.00     0.001 C 
HETATM    9  C8  UNL     1      22.673   2.499  52.436  1.00  0.00     0.149 C 
HETATM   10  C9  UNL     1      26.179   2.717  52.039  1.00  0.00     0.020 C 
HETATM   11  C12 UNL     1      27.400   2.331  52.646  1.00  0.00     0.014 C 
HETATM   12  C13 UNL     1      28.601   2.054  53.292  1.00  0.00     0.036 C 
HETATM   13  C14 UNL     1      28.308   0.691  54.009  1.00  0.00    -0.065 C 
HETATM   14  C15 UNL     1      27.331   0.324  54.906  1.00  0.00    -0.004 C 
HETATM   15  C16 UNL     1      26.329  -0.369  54.032  1.00  0.00     0.134 C 
HETATM   16  C17 UNL     1      27.064  -1.427  53.247  1.00  0.00     0.230 C 
HETATM   17  O1  UNL     1      26.442  -2.235  52.472  1.00  0.00    -0.272 OA
HETATM   18  N2  UNL     1      28.485  -1.616  53.295  1.00  0.00    -0.356 N 
HETATM   19  C18 UNL     1      29.247  -0.410  53.576  1.00  0.00     0.156 C 
HETATM   20  H21 UNL     1      28.973  -2.524  53.147  1.00  0.00     0.162 HD
ENDROOT
BRANCH  10  21
HETATM   21  C10 UNL     1      26.214   2.683  50.547  1.00  0.00     0.024 C 
BRANCH  21  22
HETATM   22  C11 UNL     1      26.077   3.974  49.832  1.00  0.00     0.115 C 
HETATM   23 CL1  UNL     1      27.423   4.479  48.847  1.00  0.00    -0.130 Cl
ENDBRANCH  21  22
ENDBRANCH  10  21
TORSDOF 2
ENDMDL
MODEL 2
REMARK VINA RESULT:      -8.5      2.900      4.603
REMARK  2 active torsions:
REMARK  status: ('A' for Active; 'I' for Inactive)
REMARK    1  A    between atoms: C9_10  and  C10_11 
REMARK    2  A    between atoms: C10_11  and  C11_12 
ROOT
HETATM    1  C1  UNL     1      23.483   5.274  48.917  1.00  0.00     0.149 C 
HETATM    2  N1  UNL     1      24.200   4.020  49.168  1.00  0.00    -0.391 N 
HETATM    3  C2  UNL     1      25.567   4.237  49.499  1.00  0.00     0.085 C 
HETATM    4  C3  UNL     1      26.417   3.612  50.300  1.00  0.00     0.017 C 
HETATM    5  C4  UNL     1      26.387   2.458  51.192  1.00  0.00     0.010 C 
HETATM    6  C5  UNL     1      25.388   1.651  51.617  1.00  0.00    -0.035 C 
HETATM    7  C6  UNL     1      23.904   1.690  51.284  1.00  0.00    -0.049 C 
HETATM    8  C7  UNL     1      23.184   2.146  50.310  1.00  0.00     0.001 C 
HETATM    9  C8  UNL     1      23.365   2.859  49.021  1.00  0.00     0.149 C 
HETATM   10  C9  UNL     1      22.667   1.143  52.032  1.00  0.00     0.020 C 
HETATM   11  C12 UNL     1      23.210   0.189  52.928  1.00  0.00     0.014 C 
HETATM   12  C13 UNL     1      23.684  -0.828  53.752  1.00  0.00     0.036 C 
HETATM   13  C14 UNL     1      25.238  -0.637  53.688  1.00  0.00    -0.065 C 
HETATM   14  C15 UNL     1      26.111  -0.608  52.623  1.00  0.00    -0.004 C 
HETATM   15  C16 UNL     1      26.313   0.860  52.406  1.00  0.00     0.134 C 
HETATM   16  C17 UNL     1      26.721   1.464  53.728  1.00  0.00     0.230 C 
HETATM   17  O1  UNL     1      27.041   2.700  53.826  1.00  0.00    -0.272 OA
HETATM   18  N2  UNL     1      26.783   0.729  54.957  1.00  0.00    -0.356 N 
HETATM   19  C18 UNL     1      25.853  -0.385  55.044  1.00  0.00     0.156 C 
HETATM   20  H21 UNL     1      27.426   0.940  55.749  1.00  0.00     0.162 HD
ENDROOT
BRANCH  10  21
HETATM   21  C10 UNL     1      21.896   2.228  52.707  1.00  0.00     0.024 C 
BRANCH  21  22
HETATM   22  C11 UNL     1      20.418   2.115  52.709  1.00  0.00     0.115 C 
HETATM   23 CL1  UNL     1      19.730   0.729  51.908  1.00  0.00    -0.130 Cl
ENDBRANCH  21  22
ENDBRANCH  10  21
TORSDOF 2
ENDMDL
MODEL 3
REMARK VINA RESULT:      -8.4      2.763      5.132
REMARK  2 active torsions:
REMARK  status: ('A' for Active; 'I' for Inactive)
REMARK    1  A    between atoms: C9_10  and  C10_11 
REMARK    2  A    between atoms: C10_11  and  C11_12 
ROOT
HETATM    1  C1  UNL     1      24.526  -1.188  55.474  1.00  0.00     0.149 C 
HETATM    2  N1  UNL     1      24.213  -0.825  54.088  1.00  0.00    -0.391 N 
HETATM    3  C2  UNL     1      22.885  -0.330  53.947  1.00  0.00     0.085 C 
HETATM    4  C3  UNL     1      22.336   0.582  53.159  1.00  0.00     0.017 C 
HETATM    5  C4  UNL     1      22.783   1.486  52.104  1.00  0.00     0.010 C 
HETATM    6  C5  UNL     1      24.006   1.799  51.620  1.00  0.00    -0.035 C 
HETATM    7  C6  UNL     1      25.375   1.283  52.038  1.00  0.00    -0.049 C 
HETATM    8  C7  UNL     1      25.827   0.218  52.620  1.00  0.00     0.001 C 
HETATM    9  C8  UNL     1      25.311  -1.052  53.188  1.00  0.00     0.149 C 
HETATM   10  C9  UNL     1      26.792   1.882  51.885  1.00  0.00     0.020 C 
HETATM   11  C12 UNL     1      26.636   2.857  50.869  1.00  0.00     0.014 C 
HETATM   12  C13 UNL     1      26.556   3.754  49.807  1.00  0.00     0.036 C 
HETATM   13  C14 UNL     1      25.012   3.879  49.569  1.00  0.00    -0.065 C 
HETATM   14  C15 UNL     1      24.049   2.931  49.306  1.00  0.00    -0.004 C 
HETATM   15  C16 UNL     1      23.429   2.713  50.652  1.00  0.00     0.134 C 
HETATM   16  C17 UNL     1      23.026   4.062  51.193  1.00  0.00     0.230 C 
HETATM   17  O1  UNL     1      22.393   4.175  52.300  1.00  0.00    -0.272 OA
HETATM   18  N2  UNL     1      23.309   5.304  50.534  1.00  0.00    -0.356 N 
HETATM   19  C18 UNL     1      24.511   5.297  49.718  1.00  0.00     0.156 C 
HETATM   20  H21 UNL     1      22.727   6.165  50.606  1.00  0.00     0.162 HD
ENDROOT
BRANCH  10  21
HETATM   21  C10 UNL     1      27.308   2.435  53.172  1.00  0.00     0.024 C 
BRANCH  21  22
HETATM   22  C11 UNL     1      28.756   2.279  53.448  1.00  0.00     0.115 C 
HETATM   23 CL1  UNL     1      29.356   0.653  53.632  1.00  0.00    -0.130 Cl
ENDBRANCH  21  22
ENDBRANCH  10  21
TORSDOF 2
ENDMDL
MODEL 4
REMARK VINA RESULT:      -8.0      2.308      3.678
REMARK  2 active torsions:
REMARK  status: ('A' for Active; 'I' for Inactive)
REMARK    1  A    between atoms: C9_10  and  C10_11 
REMARK    2  A    between atoms: C10_11  and  C11_12 
ROOT
HETATM    1  C1  UNL     1      19.089  -1.751  53.371  1.00  0.00     0.149 C 
HETATM    2  N1  UNL     1      20.121  -0.810  53.818  1.00  0.00    -0.391 N 
HETATM    3  C2  UNL     1      21.152  -1.453  54.561  1.00  0.00     0.085 C 
HETATM    4  C3  UNL     1      22.454  -1.241  54.676  1.00  0.00     0.017 C 
HETATM    5  C4  UNL     1      23.432  -0.303  54.134  1.00  0.00     0.010 C 
HETATM    6  C5  UNL     1      23.356   0.658  53.186  1.00  0.00    -0.035 C 
HETATM    7  C6  UNL     1      22.168   1.092  52.340  1.00  0.00    -0.049 C 
HETATM    8  C7  UNL     1      20.879   1.035  52.452  1.00  0.00     0.001 C 
HETATM    9  C8  UNL     1      19.859   0.543  53.410  1.00  0.00     0.149 C 
HETATM   10  C9  UNL     1      22.085   1.815  50.976  1.00  0.00     0.020 C 
HETATM   11  C12 UNL     1      23.365   2.405  50.830  1.00  0.00     0.014 C 
HETATM   12  C13 UNL     1      24.571   3.086  50.688  1.00  0.00     0.036 C 
HETATM   13  C14 UNL     1      25.450   2.488  51.840  1.00  0.00    -0.065 C 
HETATM   14  C15 UNL     1      25.244   2.411  53.199  1.00  0.00    -0.004 C 
HETATM   15  C16 UNL     1      24.751   1.008  53.376  1.00  0.00     0.134 C 
HETATM   16  C17 UNL     1      25.747   0.088  52.714  1.00  0.00     0.230 C 
HETATM   17  O1  UNL     1      25.624  -1.185  52.778  1.00  0.00    -0.272 OA
HETATM   18  N2  UNL     1      26.887   0.544  51.974  1.00  0.00    -0.356 N 
HETATM   19  C18 UNL     1      26.714   1.837  51.332  1.00  0.00     0.156 C 
HETATM   20  H21 UNL     1      27.785   0.025  51.877  1.00  0.00     0.162 HD
ENDROOT
BRANCH  10  21
HETATM   21  C10 UNL     1      21.726   0.882  49.868  1.00  0.00     0.024 C 
BRANCH  21  22
HETATM   22  C11 UNL     1      21.294   1.483  48.583  1.00  0.00     0.115 C 
HETATM   23 CL1  UNL     1      22.550   1.989  47.486  1.00  0.00    -0.130 Cl
ENDBRANCH  21  22
ENDBRANCH  10  21
TORSDOF 2
ENDMDL
MODEL 5
REMARK VINA RESULT:      -8.0      2.302      5.311
REMARK  2 active torsions:
REMARK  status: ('A' for Active; 'I' for Inactive)
REMARK    1  A    between atoms: C9_10  and  C10_11 
REMARK    2  A    between atoms: C10_11  and  C11_12 
ROOT
HETATM    1  C1  UNL     1      28.406   2.343  53.460  1.00  0.00     0.149 C 
HETATM    2  N1  UNL     1      27.431   1.395  52.912  1.00  0.00    -0.391 N 
HETATM    3  C2  UNL     1      27.316   0.219  53.707  1.00  0.00     0.085 C 
HETATM    4  C3  UNL     1      26.305  -0.588  53.992  1.00  0.00     0.017 C 
HETATM    5  C4  UNL     1      24.888  -0.677  53.658  1.00  0.00     0.010 C 
HETATM    6  C5  UNL     1      24.047   0.147  52.993  1.00  0.00    -0.035 C 
HETATM    7  C6  UNL     1      24.323   1.497  52.348  1.00  0.00    -0.049 C 
HETATM    8  C7  UNL     1      25.365   2.105  51.877  1.00  0.00     0.001 C 
HETATM    9  C8  UNL     1      26.817   1.862  51.699  1.00  0.00     0.149 C 
HETATM   10  C9  UNL     1      23.390   2.677  51.991  1.00  0.00     0.020 C 
HETATM   11  C12 UNL     1      22.097   2.096  51.991  1.00  0.00     0.014 C 
HETATM   12  C13 UNL     1      20.821   1.550  51.880  1.00  0.00     0.036 C 
HETATM   13  C14 UNL     1      21.000   0.114  52.482  1.00  0.00    -0.065 C 
HETATM   14  C15 UNL     1      21.855  -0.914  52.151  1.00  0.00    -0.004 C 
HETATM   15  C16 UNL     1      22.942  -0.775  53.173  1.00  0.00     0.134 C 
HETATM   16  C17 UNL     1      22.289  -0.749  54.533  1.00  0.00     0.230 C 
HETATM   17  O1  UNL     1      22.985  -0.720  55.607  1.00  0.00    -0.272 OA
HETATM   18  N2  UNL     1      20.869  -0.754  54.738  1.00  0.00    -0.356 N 
HETATM   19  C18 UNL     1      20.101  -0.139  53.669  1.00  0.00     0.156 C 
HETATM   20  H21 UNL     1      20.387  -1.154  55.570  1.00  0.00     0.162 HD
ENDROOT
BRANCH  10  21
HETATM   21  C10 UNL     1      23.535   3.815  52.946  1.00  0.00     0.024 C 
BRANCH  21  22
HETATM   22  C11 UNL     1      23.431   5.186  52.393  1.00  0.00     0.115 C 
HETATM   23 CL1  UNL     1      21.924   5.621  51.634  1.00  0.00    -0.130 Cl
ENDBRANCH  21  22
ENDBRANCH  10  21
TORSDOF 2
ENDMDL
MODEL 6
REMARK VINA RESULT:      -7.9      2.743      6.040
REMARK  2 active torsions:
REMARK  status: ('A' for Active; 'I' for Inactive)
REMARK    1  A    between atoms: C9_10  and  C10_11 
REMARK    2  A    between atoms: C10_11  and  C11_12 
ROOT
HETATM    1  C1  UNL     1      26.443  -1.837  52.553  1.00  0.00     0.149 C 
HETATM    2  N1  UNL     1      26.154  -0.442  52.899  1.00  0.00    -0.391 N 
HETATM    3  C2  UNL     1      26.943   0.476  52.149  1.00  0.00     0.085 C 
HETATM    4  C3  UNL     1      26.715   1.690  51.671  1.00  0.00     0.017 C 
HETATM    5  C4  UNL     1      25.610   2.643  51.671  1.00  0.00     0.010 C 
HETATM    6  C5  UNL     1      24.326   2.562  52.087  1.00  0.00    -0.035 C 
HETATM    7  C6  UNL     1      23.586   1.394  52.722  1.00  0.00    -0.049 C 
HETATM    8  C7  UNL     1      23.920   0.340  53.396  1.00  0.00     0.001 C 
HETATM    9  C8  UNL     1      25.146  -0.315  53.916  1.00  0.00     0.149 C 
HETATM   10  C9  UNL     1      22.081   1.052  52.803  1.00  0.00     0.020 C 
HETATM   11  C12 UNL     1      21.440   2.285  52.528  1.00  0.00     0.014 C 
HETATM   12  C13 UNL     1      20.767   3.492  52.363  1.00  0.00     0.036 C 
HETATM   13  C14 UNL     1      21.900   4.463  51.880  1.00  0.00    -0.065 C 
HETATM   14  C15 UNL     1      23.109   4.805  52.441  1.00  0.00    -0.004 C 
HETATM   15  C16 UNL     1      24.074   3.935  51.695  1.00  0.00     0.134 C 
HETATM   16  C17 UNL     1      23.840   4.157  50.221  1.00  0.00     0.230 C 
HETATM   17  O1  UNL     1      24.583   3.602  49.337  1.00  0.00    -0.272 OA
HETATM   18  N2  UNL     1      22.796   4.986  49.693  1.00  0.00    -0.356 N 
HETATM   19  C18 UNL     1      21.610   5.071  50.528  1.00  0.00     0.156 C 
HETATM   20  H21 UNL     1      22.842   5.502  48.789  1.00  0.00     0.162 HD
ENDROOT
BRANCH  10  21
HETATM   21  C10 UNL     1      21.703  -0.043  51.862  1.00  0.00     0.024 C 
BRANCH  21  22
HETATM   22  C11 UNL     1      20.960   0.337  50.637  1.00  0.00     0.115 C 
HETATM   23 CL1  UNL     1      21.845   1.204  49.411  1.00  0.00    -0.130 Cl
ENDBRANCH  21  22
ENDBRANCH  10  21
TORSDOF 2
ENDMDL
MODEL 7
REMARK VINA RESULT:      -7.5      3.472      5.220
REMARK  2 active torsions:
REMARK  status: ('A' for Active; 'I' for Inactive)
REMARK    1  A    between atoms: C9_10  and  C10_11 
REMARK    2  A    between atoms: C10_11  and  C11_12 
ROOT
HETATM    1  C1  UNL     1      18.870   2.838  49.902  1.00  0.00     0.149 C 
HETATM    2  N1  UNL     1      20.279   2.453  49.775  1.00  0.00    -0.391 N 
HETATM    3  C2  UNL     1      21.144   3.582  49.713  1.00  0.00     0.085 C 
HETATM    4  C3  UNL     1      22.376   3.806  50.145  1.00  0.00     0.017 C 
HETATM    5  C4  UNL     1      23.406   3.058  50.857  1.00  0.00     0.010 C 
HETATM    6  C5  UNL     1      23.415   1.845  51.455  1.00  0.00    -0.035 C 
HETATM    7  C6  UNL     1      22.297   0.820  51.580  1.00  0.00    -0.049 C 
HETATM    8  C7  UNL     1      21.215   0.543  50.925  1.00  0.00     0.001 C 
HETATM    9  C8  UNL     1      20.469   1.028  49.738  1.00  0.00     0.149 C 
HETATM   10  C9  UNL     1      22.063  -0.330  52.586  1.00  0.00     0.020 C 
HETATM   11  C12 UNL     1      23.343  -0.541  53.158  1.00  0.00     0.014 C 
HETATM   12  C13 UNL     1      24.597  -0.854  53.675  1.00  0.00     0.036 C 
HETATM   13  C14 UNL     1      25.487   0.338  53.180  1.00  0.00    -0.065 C 
HETATM   14  C15 UNL     1      25.736   0.828  51.918  1.00  0.00    -0.004 C 
HETATM   15  C16 UNL     1      24.806   2.000  51.833  1.00  0.00     0.134 C 
HETATM   16  C17 UNL     1      25.058   2.869  53.040  1.00  0.00     0.230 C 
HETATM   17  O1  UNL     1      24.459   3.991  53.191  1.00  0.00    -0.272 OA
HETATM   18  N2  UNL     1      25.965   2.527  54.097  1.00  0.00    -0.356 N 
HETATM   19  C18 UNL     1      26.128   1.099  54.315  1.00  0.00     0.156 C 
HETATM   20  H21 UNL     1      26.486   3.212  54.684  1.00  0.00     0.162 HD
ENDROOT
BRANCH  10  21
HETATM   21  C10 UNL     1      21.008   0.006  53.586  1.00  0.00     0.024 C 
BRANCH  21  22
HETATM   22  C11 UNL     1      20.015  -1.046  53.910  1.00  0.00     0.115 C 
HETATM   23 CL1  UNL     1      18.524  -1.031  53.009  1.00  0.00    -0.130 Cl
ENDBRANCH  21  22
ENDBRANCH  10  21
TORSDOF 2
ENDMDL
MODEL 8
REMARK VINA RESULT:      -7.4      2.507      5.698
REMARK  2 active torsions:
REMARK  status: ('A' for Active; 'I' for Inactive)
REMARK    1  A    between atoms: C9_10  and  C10_11 
REMARK    2  A    between atoms: C10_11  and  C11_12 
ROOT
HETATM    1  C1  UNL     1      27.264   0.619  54.596  1.00  0.00     0.149 C 
HETATM    2  N1  UNL     1      26.234   0.063  53.712  1.00  0.00    -0.391 N 
HETATM    3  C2  UNL     1      25.208  -0.608  54.436  1.00  0.00     0.085 C 
HETATM    4  C3  UNL     1      23.906  -0.753  54.240  1.00  0.00     0.017 C 
HETATM    5  C4  UNL     1      22.925  -0.326  53.247  1.00  0.00     0.010 C 
HETATM    6  C5  UNL     1      22.995   0.507  52.185  1.00  0.00    -0.035 C 
HETATM    7  C6  UNL     1      24.179   1.305  51.657  1.00  0.00    -0.049 C 
HETATM    8  C7  UNL     1      25.468   1.207  51.725  1.00  0.00     0.001 C 
HETATM    9  C8  UNL     1      26.493   0.316  52.321  1.00  0.00     0.149 C 
HETATM   10  C9  UNL     1      24.254   2.578  50.783  1.00  0.00     0.020 C 
HETATM   11  C12 UNL     1      22.973   2.649  50.182  1.00  0.00     0.014 C 
HETATM   12  C13 UNL     1      21.766   2.707  49.490  1.00  0.00     0.036 C 
HETATM   13  C14 UNL     1      20.894   1.626  50.216  1.00  0.00    -0.065 C 
HETATM   14  C15 UNL     1      21.107   0.285  50.446  1.00  0.00    -0.004 C 
HETATM   15  C16 UNL     1      21.602   0.271  51.861  1.00  0.00     0.134 C 
HETATM   16  C17 UNL     1      20.602   1.028  52.700  1.00  0.00     0.230 C 
HETATM   17  O1  UNL     1      20.726   1.109  53.973  1.00  0.00    -0.272 OA
HETATM   18  N2  UNL     1      19.458   1.706  52.164  1.00  0.00    -0.356 N 
HETATM   19  C18 UNL     1      19.627   2.198  50.807  1.00  0.00     0.156 C 
HETATM   20  H21 UNL     1      18.560   1.856  52.670  1.00  0.00     0.162 HD
ENDROOT
BRANCH  10  21
HETATM   21  C10 UNL     1      24.608   3.787  51.584  1.00  0.00     0.024 C 
BRANCH  21  22
HETATM   22  C11 UNL     1      23.497   4.526  52.230  1.00  0.00     0.115 C 
HETATM   23 CL1  UNL     1      22.879   5.920  51.387  1.00  0.00    -0.130 Cl
ENDBRANCH  21  22
ENDBRANCH  10  21
TORSDOF 2
ENDMDL
MODEL 9
REMARK VINA RESULT:      -7.3      3.310      6.993
REMARK  2 active torsions:
REMARK  status: ('A' for Active; 'I' for Inactive)
REMARK    1  A    between atoms: C9_10  and  C10_11 
REMARK    2  A    between atoms: C10_11  and  C11_12 
ROOT
HETATM    1  C1  UNL     1      27.193   1.117  52.454  1.00  0.00     0.149 C 
HETATM    2  N1  UNL     1      26.110   2.070  52.191  1.00  0.00    -0.391 N 
HETATM    3  C2  UNL     1      26.165   2.600  50.871  1.00  0.00     0.085 C 
HETATM    4  C3  UNL     1      25.237   2.980  50.007  1.00  0.00     0.017 C 
HETATM    5  C4  UNL     1      23.779   3.044  49.969  1.00  0.00     0.010 C 
HETATM    6  C5  UNL     1      22.818   2.607  50.814  1.00  0.00    -0.035 C 
HETATM    7  C6  UNL     1      22.955   1.872  52.139  1.00  0.00    -0.049 C 
HETATM    8  C7  UNL     1      23.870   1.762  53.049  1.00  0.00     0.001 C 
HETATM    9  C8  UNL     1      25.242   2.256  53.322  1.00  0.00     0.149 C 
HETATM   10  C9  UNL     1      21.978   0.961  52.916  1.00  0.00     0.020 C 
HETATM   11  C12 UNL     1      20.713   1.270  52.357  1.00  0.00     0.014 C 
HETATM   12  C13 UNL     1      19.440   1.611  51.911  1.00  0.00     0.036 C 
HETATM   13  C14 UNL     1      19.735   2.502  50.655  1.00  0.00    -0.065 C 
HETATM   14  C15 UNL     1      20.482   3.648  50.505  1.00  0.00    -0.004 C 
HETATM   15  C16 UNL     1      21.774   3.127  49.953  1.00  0.00     0.134 C 
HETATM   16  C17 UNL     1      21.445   2.281  48.747  1.00  0.00     0.230 C 
HETATM   17  O1  UNL     1      22.366   1.769  48.020  1.00  0.00    -0.272 OA
HETATM   18  N2  UNL     1      20.108   1.984  48.320  1.00  0.00    -0.356 N 
HETATM   19  C18 UNL     1      19.125   1.949  49.389  1.00  0.00     0.156 C 
HETATM   20  H21 UNL     1      19.822   1.801  47.335  1.00  0.00     0.162 HD
ENDROOT
BRANCH  10  21
HETATM   21  C10 UNL     1      22.347  -0.481  52.803  1.00  0.00     0.024 C 
BRANCH  21  22
HETATM   22  C11 UNL     1      21.923  -1.382  53.902  1.00  0.00     0.115 C 
HETATM   23 CL1  UNL     1      22.818  -1.286  55.393  1.00  0.00    -0.130 Cl
ENDBRANCH  21  22
ENDBRANCH  10  21
TORSDOF 2
ENDMDL
