MODEL 1
REMARK VINA RESULT:      -7.8      0.000      0.000
REMARK  4 active torsions:
REMARK  status: ('A' for Active; 'I' for Inactive)
REMARK    1  A    between atoms: O1_2  and  C2_3 
REMARK    2  A    between atoms: C4_5  and  C5_6 
REMARK    3  A    between atoms: C5_6  and  C7_9 
REMARK    4  A    between atoms: C7_9  and  C8_11 
ROOT
HETATM    1  C5  UNL     1      24.604  -0.008  52.862  1.00  0.00     0.200 C 
HETATM    2  C6  UNL     1      23.670  -0.567  53.882  1.00  0.00     0.076 C 
HETATM    3  N1  UNL     1      22.956  -1.002  54.690  1.00  0.00    -0.196 NA
ENDROOT
BRANCH   1   4
HETATM    4  C4  UNL     1      25.948  -0.070  53.474  1.00  0.00    -0.030 A 
HETATM    5  C3  UNL     1      26.719   0.402  54.436  1.00  0.00     0.042 A 
HETATM    6  C2  UNL     1      28.115   0.206  54.913  1.00  0.00     0.289 A 
HETATM    7  O3  UNL     1      28.724  -0.778  54.093  1.00  0.00    -0.329 OA
HETATM    8  C15 UNL     1      28.028  -1.362  53.037  1.00  0.00     0.139 A 
HETATM    9  C14 UNL     1      26.759  -1.069  52.718  1.00  0.00     0.033 A 
BRANCH   6  10
HETATM   10  O1  UNL     1      28.833   1.385  54.868  1.00  0.00    -0.362 OA
HETATM   11  C1  UNL     1      28.620   2.090  53.683  1.00  0.00     0.205 C 
ENDBRANCH   6  10
ENDBRANCH   1   4
BRANCH   1  12
HETATM   12  C7  UNL     1      24.156   1.326  52.536  1.00  0.00     0.183 C 
HETATM   13  O2  UNL     1      24.036   2.184  53.443  1.00  0.00    -0.290 OA
BRANCH  12  14
HETATM   14  C8  UNL     1      23.803   1.860  51.247  1.00  0.00     0.033 A 
HETATM   15  C9  UNL     1      24.569   2.781  50.558  1.00  0.00     0.017 A 
HETATM   16  C10 UNL     1      24.302   3.347  49.336  1.00  0.00     0.001 A 
HETATM   17  C11 UNL     1      23.138   2.961  48.712  1.00  0.00     0.002 A 
HETATM   18  C12 UNL     1      22.304   2.046  49.316  1.00  0.00     0.025 A 
HETATM   19  C13 UNL     1      22.665   1.538  50.544  1.00  0.00     0.048 A 
HETATM   20 CL1  UNL     1      21.508   0.382  51.157  1.00  0.00    -0.083 Cl
ENDBRANCH  12  14
ENDBRANCH   1  12
TORSDOF 4
ENDMDL
MODEL 2
REMARK VINA RESULT:      -7.6      1.314      1.667
REMARK  4 active torsions:
REMARK  status: ('A' for Active; 'I' for Inactive)
REMARK    1  A    between atoms: O1_2  and  C2_3 
REMARK    2  A    between atoms: C4_5  and  C5_6 
REMARK    3  A    between atoms: C5_6  and  C7_9 
REMARK    4  A    between atoms: C7_9  and  C8_11 
ROOT
HETATM    1  C5  UNL     1      24.806   0.158  52.763  1.00  0.00     0.200 C 
HETATM    2  C6  UNL     1      23.834  -0.448  53.718  1.00  0.00     0.076 C 
HETATM    3  N1  UNL     1      23.090  -0.921  54.476  1.00  0.00    -0.196 NA
ENDROOT
BRANCH   1   4
HETATM    4  C4  UNL     1      26.129   0.045  53.412  1.00  0.00    -0.030 A 
HETATM    5  C3  UNL     1      26.904   0.514  54.372  1.00  0.00     0.042 A 
HETATM    6  C2  UNL     1      28.275   0.257  54.893  1.00  0.00     0.289 A 
HETATM    7  O3  UNL     1      28.842  -0.797  54.134  1.00  0.00    -0.329 OA
HETATM    8  C15 UNL     1      28.137  -1.387  53.087  1.00  0.00     0.139 A 
HETATM    9  C14 UNL     1      26.896  -1.034  52.722  1.00  0.00     0.033 A 
BRANCH   6  10
HETATM   10  O1  UNL     1      29.063   1.388  54.815  1.00  0.00    -0.362 OA
HETATM   11  C1  UNL     1      28.693   2.221  53.758  1.00  0.00     0.205 C 
ENDBRANCH   6  10
ENDBRANCH   1   4
BRANCH   1  12
HETATM   12  C7  UNL     1      24.382   1.514  52.502  1.00  0.00     0.183 C 
HETATM   13  O2  UNL     1      24.289   2.333  53.447  1.00  0.00    -0.290 OA
BRANCH  12  14
HETATM   14  C8  UNL     1      24.027   2.113  51.242  1.00  0.00     0.033 A 
HETATM   15  C9  UNL     1      22.768   2.034  50.680  1.00  0.00     0.017 A 
HETATM   16  C10 UNL     1      22.348   2.564  49.484  1.00  0.00     0.001 A 
HETATM   17  C11 UNL     1      23.282   3.258  48.749  1.00  0.00     0.002 A 
HETATM   18  C12 UNL     1      24.568   3.395  49.224  1.00  0.00     0.025 A 
HETATM   19  C13 UNL     1      24.886   2.824  50.436  1.00  0.00     0.048 A 
HETATM   20 CL1  UNL     1      26.546   3.108  50.895  1.00  0.00    -0.083 Cl
ENDBRANCH  12  14
ENDBRANCH   1  12
TORSDOF 4
ENDMDL
MODEL 3
REMARK VINA RESULT:      -7.4      2.410      3.998
REMARK  4 active torsions:
REMARK  status: ('A' for Active; 'I' for Inactive)
REMARK    1  A    between atoms: O1_2  and  C2_3 
REMARK    2  A    between atoms: C4_5  and  C5_6 
REMARK    3  A    between atoms: C5_6  and  C7_9 
REMARK    4  A    between atoms: C7_9  and  C8_11 
ROOT
HETATM    1  C5  UNL     1      25.005   2.017  52.212  1.00  0.00     0.200 C 
HETATM    2  C6  UNL     1      25.598   2.622  50.984  1.00  0.00     0.076 C 
HETATM    3  N1  UNL     1      26.075   3.080  50.027  1.00  0.00    -0.196 NA
ENDROOT
BRANCH   1   4
HETATM    4  C4  UNL     1      26.010   1.056  52.710  1.00  0.00    -0.030 A 
HETATM    5  C3  UNL     1      26.843   0.091  52.368  1.00  0.00     0.042 A 
HETATM    6  C2  UNL     1      27.821  -0.801  53.050  1.00  0.00     0.289 A 
HETATM    7  O3  UNL     1      27.836  -0.464  54.427  1.00  0.00    -0.329 OA
HETATM    8  C15 UNL     1      27.005   0.535  54.930  1.00  0.00     0.139 A 
HETATM    9  C14 UNL     1      26.156   1.255  54.182  1.00  0.00     0.033 A 
BRANCH   6  10
HETATM   10  O1  UNL     1      27.492  -2.132  52.881  1.00  0.00    -0.362 OA
HETATM   11  C1  UNL     1      28.587  -2.976  53.063  1.00  0.00     0.205 C 
ENDBRANCH   6  10
ENDBRANCH   1   4
BRANCH   1  12
HETATM   12  C7  UNL     1      23.739   1.424  51.845  1.00  0.00     0.183 C 
HETATM   13  O2  UNL     1      23.337   1.494  50.659  1.00  0.00    -0.290 OA
BRANCH  12  14
HETATM   14  C8  UNL     1      22.806   0.719  52.683  1.00  0.00     0.033 A 
HETATM   15  C9  UNL     1      23.043  -0.534  53.215  1.00  0.00     0.017 A 
HETATM   16  C10 UNL     1      22.208  -1.278  54.012  1.00  0.00     0.001 A 
HETATM   17  C11 UNL     1      20.989  -0.723  54.325  1.00  0.00     0.002 A 
HETATM   18  C12 UNL     1      20.656   0.524  53.844  1.00  0.00     0.025 A 
HETATM   19  C13 UNL     1      21.566   1.188  53.053  1.00  0.00     0.048 A 
HETATM   20 CL1  UNL     1      20.994   2.758  52.546  1.00  0.00    -0.083 Cl
ENDBRANCH  12  14
ENDBRANCH   1  12
TORSDOF 4
ENDMDL
MODEL 4
REMARK VINA RESULT:      -7.3      2.920      6.166
REMARK  4 active torsions:
REMARK  status: ('A' for Active; 'I' for Inactive)
REMARK    1  A    between atoms: O1_2  and  C2_3 
REMARK    2  A    between atoms: C4_5  and  C5_6 
REMARK    3  A    between atoms: C5_6  and  C7_9 
REMARK    4  A    between atoms: C7_9  and  C8_11 
ROOT
HETATM    1  C5  UNL     1      25.097   1.324  51.930  1.00  0.00     0.200 C 
HETATM    2  C6  UNL     1      25.035   2.719  51.403  1.00  0.00     0.076 C 
HETATM    3  N1  UNL     1      24.968   3.807  51.000  1.00  0.00    -0.196 NA
ENDROOT
BRANCH   1   4
HETATM    4  C4  UNL     1      23.716   0.987  52.335  1.00  0.00    -0.030 A 
HETATM    5  C3  UNL     1      22.949   0.598  53.335  1.00  0.00     0.042 A 
HETATM    6  C2  UNL     1      21.508   0.299  53.556  1.00  0.00     0.289 A 
HETATM    7  O3  UNL     1      20.820   0.535  52.339  1.00  0.00    -0.329 OA
HETATM    8  C15 UNL     1      21.504   0.948  51.197  1.00  0.00     0.139 A 
HETATM    9  C14 UNL     1      22.826   1.167  51.150  1.00  0.00     0.033 A 
BRANCH   6  10
HETATM   10  O1  UNL     1      21.322  -1.005  53.972  1.00  0.00    -0.362 OA
HETATM   11  C1  UNL     1      22.260  -1.395  54.928  1.00  0.00     0.205 C 
ENDBRANCH   6  10
ENDBRANCH   1   4
BRANCH   1  12
HETATM   12  C7  UNL     1      26.059   1.301  53.007  1.00  0.00     0.183 C 
HETATM   13  O2  UNL     1      25.927   2.082  53.979  1.00  0.00    -0.290 OA
BRANCH  12  14
HETATM   14  C8  UNL     1      27.222   0.465  53.149  1.00  0.00     0.033 A 
HETATM   15  C9  UNL     1      27.204  -0.909  53.011  1.00  0.00     0.017 A 
HETATM   16  C10 UNL     1      28.259  -1.779  53.139  1.00  0.00     0.001 A 
HETATM   17  C11 UNL     1      29.484  -1.230  53.441  1.00  0.00     0.002 A 
HETATM   18  C12 UNL     1      29.608   0.133  53.599  1.00  0.00     0.025 A 
HETATM   19  C13 UNL     1      28.487   0.916  53.449  1.00  0.00     0.048 A 
HETATM   20 CL1  UNL     1      28.824   2.616  53.664  1.00  0.00    -0.083 Cl
ENDBRANCH  12  14
ENDBRANCH   1  12
TORSDOF 4
ENDMDL
MODEL 5
REMARK VINA RESULT:      -7.2      2.647      6.224
REMARK  4 active torsions:
REMARK  status: ('A' for Active; 'I' for Inactive)
REMARK    1  A    between atoms: O1_2  and  C2_3 
REMARK    2  A    between atoms: C4_5  and  C5_6 
REMARK    3  A    between atoms: C5_6  and  C7_9 
REMARK    4  A    between atoms: C7_9  and  C8_11 
ROOT
HETATM    1  C5  UNL     1      24.990   1.357  53.276  1.00  0.00     0.200 C 
HETATM    2  C6  UNL     1      24.296   0.081  53.615  1.00  0.00     0.076 C 
HETATM    3  N1  UNL     1      23.741  -0.909  53.869  1.00  0.00    -0.196 NA
ENDROOT
BRANCH   1   4
HETATM    4  C4  UNL     1      23.980   2.190  52.589  1.00  0.00    -0.030 A 
HETATM    5  C3  UNL     1      22.972   2.182  51.739  1.00  0.00     0.042 A 
HETATM    6  C2  UNL     1      22.035   3.175  51.144  1.00  0.00     0.289 A 
HETATM    7  O3  UNL     1      22.339   4.447  51.692  1.00  0.00    -0.329 OA
HETATM    8  C15 UNL     1      23.382   4.605  52.603  1.00  0.00     0.139 A 
HETATM    9  C14 UNL     1      24.157   3.602  53.040  1.00  0.00     0.033 A 
BRANCH   6  10
HETATM   10  O1  UNL     1      22.139   3.204  49.767  1.00  0.00    -0.362 OA
HETATM   11  C1  UNL     1      22.251   1.927  49.217  1.00  0.00     0.205 C 
ENDBRANCH   6  10
ENDBRANCH   1   4
BRANCH   1  12
HETATM   12  C7  UNL     1      26.145   1.032  52.471  1.00  0.00     0.183 C 
HETATM   13  O2  UNL     1      26.193   1.395  51.272  1.00  0.00    -0.290 OA
BRANCH  12  14
HETATM   14  C8  UNL     1      27.328   0.309  52.857  1.00  0.00     0.033 A 
HETATM   15  C9  UNL     1      27.460  -1.062  52.757  1.00  0.00     0.017 A 
HETATM   16  C10 UNL     1      28.544  -1.829  53.110  1.00  0.00     0.001 A 
HETATM   17  C11 UNL     1      29.633  -1.165  53.625  1.00  0.00     0.002 A 
HETATM   18  C12 UNL     1      29.602   0.205  53.765  1.00  0.00     0.025 A 
HETATM   19  C13 UNL     1      28.466   0.879  53.380  1.00  0.00     0.048 A 
HETATM   20 CL1  UNL     1      28.602   2.605  53.607  1.00  0.00    -0.083 Cl
ENDBRANCH  12  14
ENDBRANCH   1  12
TORSDOF 4
ENDMDL
MODEL 6
REMARK VINA RESULT:      -7.1      2.818      6.185
REMARK  4 active torsions:
REMARK  status: ('A' for Active; 'I' for Inactive)
REMARK    1  A    between atoms: O1_2  and  C2_3 
REMARK    2  A    between atoms: C4_5  and  C5_6 
REMARK    3  A    between atoms: C5_6  and  C7_9 
REMARK    4  A    between atoms: C7_9  and  C8_11 
ROOT
HETATM    1  C5  UNL     1      25.863   1.572  51.610  1.00  0.00     0.200 C 
HETATM    2  C6  UNL     1      26.487   2.636  50.771  1.00  0.00     0.076 C 
HETATM    3  N1  UNL     1      26.957   3.477  50.119  1.00  0.00    -0.196 NA
ENDROOT
BRANCH   1   4
HETATM    4  C4  UNL     1      24.457   1.985  51.800  1.00  0.00    -0.030 A 
HETATM    5  C3  UNL     1      23.549   2.893  51.498  1.00  0.00     0.042 A 
HETATM    6  C2  UNL     1      22.114   3.147  51.804  1.00  0.00     0.289 A 
HETATM    7  O3  UNL     1      21.645   2.087  52.619  1.00  0.00    -0.329 OA
HETATM    8  C15 UNL     1      22.496   1.058  53.018  1.00  0.00     0.139 A 
HETATM    9  C14 UNL     1      23.788   0.972  52.667  1.00  0.00     0.033 A 
BRANCH   6  10
HETATM   10  O1  UNL     1      21.942   4.361  52.440  1.00  0.00    -0.362 OA
HETATM   11  C1  UNL     1      21.714   5.403  51.542  1.00  0.00     0.205 C 
ENDBRANCH   6  10
ENDBRANCH   1   4
BRANCH   1  12
HETATM   12  C7  UNL     1      26.627   1.468  52.831  1.00  0.00     0.183 C 
HETATM   13  O2  UNL     1      26.338   2.192  53.813  1.00  0.00    -0.290 OA
BRANCH  12  14
HETATM   14  C8  UNL     1      27.743   0.604  53.118  1.00  0.00     0.033 A 
HETATM   15  C9  UNL     1      28.986   1.058  53.513  1.00  0.00     0.017 A 
HETATM   16  C10 UNL     1      30.102   0.308  53.794  1.00  0.00     0.001 A 
HETATM   17  C11 UNL     1      29.981  -1.057  53.673  1.00  0.00     0.002 A 
HETATM   18  C12 UNL     1      28.781  -1.610  53.284  1.00  0.00     0.025 A 
HETATM   19  C13 UNL     1      27.722  -0.768  53.026  1.00  0.00     0.048 A 
HETATM   20 CL1  UNL     1      26.277  -1.632  52.565  1.00  0.00    -0.083 Cl
ENDBRANCH  12  14
ENDBRANCH   1  12
TORSDOF 4
ENDMDL
MODEL 7
REMARK VINA RESULT:      -7.1      2.875      3.943
REMARK  4 active torsions:
REMARK  status: ('A' for Active; 'I' for Inactive)
REMARK    1  A    between atoms: O1_2  and  C2_3 
REMARK    2  A    between atoms: C4_5  and  C5_6 
REMARK    3  A    between atoms: C5_6  and  C7_9 
REMARK    4  A    between atoms: C7_9  and  C8_11 
ROOT
HETATM    1  C5  UNL     1      22.238  -0.639  53.269  1.00  0.00     0.200 C 
HETATM    2  C6  UNL     1      22.431  -1.306  54.589  1.00  0.00     0.076 C 
HETATM    3  N1  UNL     1      22.597  -1.814  55.621  1.00  0.00    -0.196 NA
ENDROOT
BRANCH   1   4
HETATM    4  C4  UNL     1      23.405   0.251  53.095  1.00  0.00    -0.030 A 
HETATM    5  C3  UNL     1      23.791   1.490  52.856  1.00  0.00     0.042 A 
HETATM    6  C2  UNL     1      25.078   2.225  52.712  1.00  0.00     0.289 A 
HETATM    7  O3  UNL     1      26.135   1.303  52.921  1.00  0.00    -0.329 OA
HETATM    8  C15 UNL     1      25.874  -0.040  53.181  1.00  0.00     0.139 A 
HETATM    9  C14 UNL     1      24.643  -0.564  53.269  1.00  0.00     0.033 A 
BRANCH   6  10
HETATM   10  O1  UNL     1      25.186   2.812  51.467  1.00  0.00    -0.362 OA
HETATM   11  C1  UNL     1      26.493   2.779  50.977  1.00  0.00     0.205 C 
ENDBRANCH   6  10
ENDBRANCH   1   4
BRANCH   1  12
HETATM   12  C7  UNL     1      20.965   0.043  53.301  1.00  0.00     0.183 C 
HETATM   13  O2  UNL     1      20.577   0.593  54.359  1.00  0.00    -0.290 OA
BRANCH  12  14
HETATM   14  C8  UNL     1      20.008   0.201  52.237  1.00  0.00     0.033 A 
HETATM   15  C9  UNL     1      20.219   0.991  51.123  1.00  0.00     0.017 A 
HETATM   16  C10 UNL     1      19.360   1.205  50.073  1.00  0.00     0.001 A 
HETATM   17  C11 UNL     1      18.144   0.564  50.122  1.00  0.00     0.002 A 
HETATM   18  C12 UNL     1      17.837  -0.249  51.191  1.00  0.00     0.025 A 
HETATM   19  C13 UNL     1      18.770  -0.396  52.194  1.00  0.00     0.048 A 
HETATM   20 CL1  UNL     1      18.228  -1.471  53.459  1.00  0.00    -0.083 Cl
ENDBRANCH  12  14
ENDBRANCH   1  12
TORSDOF 4
ENDMDL
MODEL 8
REMARK VINA RESULT:      -7.0      2.613      3.749
REMARK  4 active torsions:
REMARK  status: ('A' for Active; 'I' for Inactive)
REMARK    1  A    between atoms: O1_2  and  C2_3 
REMARK    2  A    between atoms: C4_5  and  C5_6 
REMARK    3  A    between atoms: C5_6  and  C7_9 
REMARK    4  A    between atoms: C7_9  and  C8_11 
ROOT
HETATM    1  C5  UNL     1      24.972   2.764  52.503  1.00  0.00     0.200 C 
HETATM    2  C6  UNL     1      25.983   2.619  51.415  1.00  0.00     0.076 C 
HETATM    3  N1  UNL     1      26.771   2.486  50.571  1.00  0.00    -0.196 NA
ENDROOT
BRANCH   1   4
HETATM    4  C4  UNL     1      24.950   1.465  53.206  1.00  0.00    -0.030 A 
HETATM    5  C3  UNL     1      24.260   0.358  53.408  1.00  0.00     0.042 A 
HETATM    6  C2  UNL     1      24.414  -0.898  54.191  1.00  0.00     0.289 A 
HETATM    7  O3  UNL     1      25.663  -0.847  54.860  1.00  0.00    -0.329 OA
HETATM    8  C15 UNL     1      26.497   0.263  54.740  1.00  0.00     0.139 A 
HETATM    9  C14 UNL     1      26.211   1.341  53.995  1.00  0.00     0.033 A 
BRANCH   6  10
HETATM   10  O1  UNL     1      23.385  -1.055  55.099  1.00  0.00    -0.362 OA
HETATM   11  C1  UNL     1      22.130  -0.923  54.505  1.00  0.00     0.205 C 
ENDBRANCH   6  10
ENDBRANCH   1   4
BRANCH   1  12
HETATM   12  C7  UNL     1      23.716   3.135  51.892  1.00  0.00     0.183 C 
HETATM   13  O2  UNL     1      23.044   4.080  52.370  1.00  0.00    -0.290 OA
BRANCH  12  14
HETATM   14  C8  UNL     1      23.074   2.552  50.743  1.00  0.00     0.033 A 
HETATM   15  C9  UNL     1      22.259   1.438  50.800  1.00  0.00     0.017 A 
HETATM   16  C10 UNL     1      21.618   0.814  49.757  1.00  0.00     0.001 A 
HETATM   17  C11 UNL     1      21.802   1.351  48.504  1.00  0.00     0.002 A 
HETATM   18  C12 UNL     1      22.597   2.463  48.341  1.00  0.00     0.025 A 
HETATM   19  C13 UNL     1      23.194   3.013  49.453  1.00  0.00     0.048 A 
HETATM   20 CL1  UNL     1      24.150   4.424  49.071  1.00  0.00    -0.083 Cl
ENDBRANCH  12  14
ENDBRANCH   1  12
TORSDOF 4
ENDMDL
MODEL 9
REMARK VINA RESULT:      -7.0      1.760      2.323
REMARK  4 active torsions:
REMARK  status: ('A' for Active; 'I' for Inactive)
REMARK    1  A    between atoms: O1_2  and  C2_3 
REMARK    2  A    between atoms: C4_5  and  C5_6 
REMARK    3  A    between atoms: C5_6  and  C7_9 
REMARK    4  A    between atoms: C7_9  and  C8_11 
ROOT
HETATM    1  C5  UNL     1      23.394  -0.362  52.990  1.00  0.00     0.200 C 
HETATM    2  C6  UNL     1      23.104  -0.879  54.359  1.00  0.00     0.076 C 
HETATM    3  N1  UNL     1      22.895  -1.273  55.433  1.00  0.00    -0.196 NA
ENDROOT
BRANCH   1   4
HETATM    4  C4  UNL     1      24.762   0.193  53.053  1.00  0.00    -0.030 A 
HETATM    5  C3  UNL     1      25.479   1.301  53.032  1.00  0.00     0.042 A 
HETATM    6  C2  UNL     1      26.918   1.673  53.111  1.00  0.00     0.289 A 
HETATM    7  O3  UNL     1      27.670   0.482  53.277  1.00  0.00    -0.329 OA
HETATM    8  C15 UNL     1      27.044  -0.762  53.316  1.00  0.00     0.139 A 
HETATM    9  C14 UNL     1      25.718  -0.941  53.217  1.00  0.00     0.033 A 
BRANCH   6  10
HETATM   10  O1  UNL     1      27.327   2.349  51.979  1.00  0.00    -0.362 OA
HETATM   11  C1  UNL     1      26.269   2.612  51.108  1.00  0.00     0.205 C 
ENDBRANCH   6  10
ENDBRANCH   1   4
BRANCH   1  12
HETATM   12  C7  UNL     1      22.371   0.602  52.656  1.00  0.00     0.183 C 
HETATM   13  O2  UNL     1      21.563   0.986  53.536  1.00  0.00    -0.290 OA
BRANCH  12  14
HETATM   14  C8  UNL     1      22.117   1.233  51.388  1.00  0.00     0.033 A 
HETATM   15  C9  UNL     1      21.602   0.573  50.289  1.00  0.00     0.017 A 
HETATM   16  C10 UNL     1      21.340   1.094  49.045  1.00  0.00     0.001 A 
HETATM   17  C11 UNL     1      21.619   2.428  48.858  1.00  0.00     0.002 A 
HETATM   18  C12 UNL     1      22.135   3.176  49.894  1.00  0.00     0.025 A 
HETATM   19  C13 UNL     1      22.361   2.556  51.102  1.00  0.00     0.048 A 
HETATM   20 CL1  UNL     1      22.997   3.649  52.306  1.00  0.00    -0.083 Cl
ENDBRANCH  12  14
ENDBRANCH   1  12
TORSDOF 4
ENDMDL
