MODEL 1
REMARK VINA RESULT:      -6.9      0.000      0.000
REMARK  6 active torsions:
REMARK  status: ('A' for Active; 'I' for Inactive)
REMARK    1  A    between atoms: C2_2  and  S1_3 
REMARK    2  A    between atoms: S1_3  and  C3_6 
REMARK    3  A    between atoms: C3_6  and  C4_7 
REMARK    4  A    between atoms: C4_7  and  N1_8 
REMARK    5  A    between atoms: C4_7  and  O3_21 
REMARK    6  A    between atoms: C5_9  and  C6_10 
ROOT
HETATM    1  C6  UNL     1      23.240   1.577  52.404  1.00  0.00     0.106 C 
HETATM    2  N2  UNL     1      22.434   0.901  52.997  1.00  0.00    -0.402 NA
HETATM    3  C7  UNL     1      21.725   0.226  53.890  1.00  0.00     0.295 C 
HETATM    4  N3  UNL     1      20.656  -0.054  53.384  1.00  0.00    -0.242 NA
HETATM    5  C8  UNL     1      19.409  -0.568  53.268  1.00  0.00     0.420 C 
HETATM    6  N4  UNL     1      18.680  -0.183  52.007  1.00  0.00     0.107 NA
HETATM    7  C9  UNL     1      18.991   1.275  51.860  1.00  0.00     0.318 C 
HETATM    8  C10 UNL     1      20.435   1.255  51.456  1.00  0.00     0.013 C 
HETATM    9 BR1  UNL     1      20.623   3.118  51.802  1.00  0.00    -0.054 Br
HETATM   10  C11 UNL     1      21.537   0.596  50.981  1.00  0.00    -0.003 C 
HETATM   11  C12 UNL     1      22.702   1.601  50.965  1.00  0.00     0.102 C 
HETATM   12  H13 UNL     1      18.987  -0.704  51.200  1.00  0.00     0.318 HD
ENDROOT
BRANCH   1  13
HETATM   13  C5  UNL     1      24.394   2.214  53.099  1.00  0.00     0.154 C 
HETATM   14  N1  UNL     1      24.976   1.786  52.037  1.00  0.00    -0.266 NA
BRANCH  14  15
HETATM   15  C4  UNL     1      26.421   2.052  51.915  1.00  0.00     0.256 C 
BRANCH  15  16
HETATM   16  C3  UNL     1      27.162   0.840  52.374  1.00  0.00     0.195 C 
BRANCH  16  17
HETATM   17  S1  UNL     1      28.075   1.205  53.842  1.00  0.00     0.148 S 
HETATM   18  O1  UNL     1      28.278   2.675  54.023  1.00  0.00    -0.228 OA
HETATM   19  O2  UNL     1      27.302   0.706  55.026  1.00  0.00    -0.228 OA
BRANCH  17  20
HETATM   20  C2  UNL     1      29.636   0.357  53.868  1.00  0.00     0.136 C 
HETATM   21  C1  UNL     1      29.482  -1.099  53.504  1.00  0.00     0.021 C 
ENDBRANCH  17  20
ENDBRANCH  16  17
ENDBRANCH  15  16
BRANCH  15  22
HETATM   22  O3  UNL     1      26.608   2.358  50.575  1.00  0.00    -0.369 OA
HETATM   23  C13 UNL     1      26.269   3.641  50.225  1.00  0.00     0.204 C 
ENDBRANCH  15  22
ENDBRANCH  14  15
ENDBRANCH   1  13
TORSDOF 6
ENDMDL
MODEL 2
REMARK VINA RESULT:      -6.8      4.140      7.509
REMARK  6 active torsions:
REMARK  status: ('A' for Active; 'I' for Inactive)
REMARK    1  A    between atoms: C2_2  and  S1_3 
REMARK    2  A    between atoms: S1_3  and  C3_6 
REMARK    3  A    between atoms: C3_6  and  C4_7 
REMARK    4  A    between atoms: C4_7  and  N1_8 
REMARK    5  A    between atoms: C4_7  and  O3_21 
REMARK    6  A    between atoms: C5_9  and  C6_10 
ROOT
HETATM    1  C6  UNL     1      25.336   0.503  53.234  1.00  0.00     0.106 C 
HETATM    2  N2  UNL     1      26.094  -0.400  52.970  1.00  0.00    -0.402 NA
HETATM    3  C7  UNL     1      26.738  -1.430  52.442  1.00  0.00     0.295 C 
HETATM    4  N3  UNL     1      27.827  -1.504  52.977  1.00  0.00    -0.242 NA
HETATM    5  C8  UNL     1      29.068  -1.966  53.259  1.00  0.00     0.420 C 
HETATM    6  N4  UNL     1      29.872  -1.095  54.188  1.00  0.00     0.107 NA
HETATM    7  C9  UNL     1      29.601   0.289  53.685  1.00  0.00     0.318 C 
HETATM    8  C10 UNL     1      28.181   0.512  54.114  1.00  0.00     0.013 C 
HETATM    9 BR1  UNL     1      28.014   2.036  52.984  1.00  0.00    -0.054 Br
HETATM   10  C11 UNL     1      27.093   0.180  54.875  1.00  0.00    -0.003 C 
HETATM   11  C12 UNL     1      25.952   1.137  54.490  1.00  0.00     0.102 C 
HETATM   12  H13 UNL     1      29.599  -1.192  55.154  1.00  0.00     0.318 HD
ENDROOT
BRANCH   1  13
HETATM   13  C5  UNL     1      24.160   0.816  52.374  1.00  0.00     0.154 C 
HETATM   14  N1  UNL     1      23.565   0.506  53.470  1.00  0.00    -0.266 NA
BRANCH  14  15
HETATM   15  C4  UNL     1      22.092   0.565  53.470  1.00  0.00     0.256 C 
BRANCH  15  16
HETATM   16  C3  UNL     1      21.596  -0.083  52.219  1.00  0.00     0.195 C 
BRANCH  16  17
HETATM   17  S1  UNL     1      20.073   0.656  51.715  1.00  0.00     0.148 S 
HETATM   18  O1  UNL     1      18.899  -0.217  52.022  1.00  0.00    -0.228 OA
HETATM   19  O2  UNL     1      19.889   1.942  52.465  1.00  0.00    -0.228 OA
BRANCH  17  20
HETATM   20  C2  UNL     1      20.093   1.080  49.989  1.00  0.00     0.136 C 
HETATM   21  C1  UNL     1      21.492   1.048  49.427  1.00  0.00     0.021 C 
ENDBRANCH  17  20
ENDBRANCH  16  17
ENDBRANCH  15  16
BRANCH  15  22
HETATM   22  O3  UNL     1      21.716  -0.088  54.635  1.00  0.00    -0.369 OA
HETATM   23  C13 UNL     1      21.881  -1.450  54.609  1.00  0.00     0.204 C 
ENDBRANCH  15  22
ENDBRANCH  14  15
ENDBRANCH   1  13
TORSDOF 6
ENDMDL
MODEL 3
REMARK VINA RESULT:      -6.6      3.876      6.995
REMARK  6 active torsions:
REMARK  status: ('A' for Active; 'I' for Inactive)
REMARK    1  A    between atoms: C2_2  and  S1_3 
REMARK    2  A    between atoms: S1_3  and  C3_6 
REMARK    3  A    between atoms: C3_6  and  C4_7 
REMARK    4  A    between atoms: C4_7  and  N1_8 
REMARK    5  A    between atoms: C4_7  and  O3_21 
REMARK    6  A    between atoms: C5_9  and  C6_10 
ROOT
HETATM    1  C6  UNL     1      24.109   0.622  53.253  1.00  0.00     0.106 C 
HETATM    2  N2  UNL     1      25.043   0.126  53.837  1.00  0.00    -0.402 NA
HETATM    3  C7  UNL     1      25.914  -0.677  54.429  1.00  0.00     0.295 C 
HETATM    4  N3  UNL     1      26.945  -0.055  54.594  1.00  0.00    -0.242 NA
HETATM    5  C8  UNL     1      28.220   0.201  54.971  1.00  0.00     0.420 C 
HETATM    6  N4  UNL     1      28.760   1.530  54.512  1.00  0.00     0.107 NA
HETATM    7  C9  UNL     1      28.281   1.628  53.096  1.00  0.00     0.318 C 
HETATM    8  C10 UNL     1      26.811   1.873  53.273  1.00  0.00     0.013 C 
HETATM    9 BR1  UNL     1      26.464   1.490  51.441  1.00  0.00    -0.054 Br
HETATM   10  C11 UNL     1      25.741   2.231  54.048  1.00  0.00    -0.003 C 
HETATM   11  C12 UNL     1      24.480   2.111  53.175  1.00  0.00     0.102 C 
HETATM   12  H13 UNL     1      28.425   2.304  55.065  1.00  0.00     0.318 HD
ENDROOT
BRANCH   1  13
HETATM   13  C5  UNL     1      22.977  -0.202  52.743  1.00  0.00     0.154 C 
HETATM   14  N1  UNL     1      22.334   0.819  53.185  1.00  0.00    -0.266 NA
BRANCH  14  15
HETATM   15  C4  UNL     1      20.867   0.799  53.042  1.00  0.00     0.256 C 
BRANCH  15  16
HETATM   16  C3  UNL     1      20.532   1.014  51.604  1.00  0.00     0.195 C 
BRANCH  16  17
HETATM   17  S1  UNL     1      20.396   2.742  51.263  1.00  0.00     0.148 S 
HETATM   18  O1  UNL     1      19.230   3.047  50.378  1.00  0.00    -0.228 OA
HETATM   19  O2  UNL     1      20.186   3.473  52.556  1.00  0.00    -0.228 OA
BRANCH  17  20
HETATM   20  C2  UNL     1      21.893   3.389  50.558  1.00  0.00     0.136 C 
HETATM   21  C1  UNL     1      22.707   2.305  49.896  1.00  0.00     0.021 C 
ENDBRANCH  17  20
ENDBRANCH  16  17
ENDBRANCH  15  16
BRANCH  15  22
HETATM   22  O3  UNL     1      20.485  -0.441  53.535  1.00  0.00    -0.369 OA
HETATM   23  C13 UNL     1      19.166  -0.760  53.326  1.00  0.00     0.204 C 
ENDBRANCH  15  22
ENDBRANCH  14  15
ENDBRANCH   1  13
TORSDOF 6
ENDMDL
MODEL 4
REMARK VINA RESULT:      -6.5      3.963      7.071
REMARK  6 active torsions:
REMARK  status: ('A' for Active; 'I' for Inactive)
REMARK    1  A    between atoms: C2_2  and  S1_3 
REMARK    2  A    between atoms: S1_3  and  C3_6 
REMARK    3  A    between atoms: C3_6  and  C4_7 
REMARK    4  A    between atoms: C4_7  and  N1_8 
REMARK    5  A    between atoms: C4_7  and  O3_21 
REMARK    6  A    between atoms: C5_9  and  C6_10 
ROOT
HETATM    1  C6  UNL     1      24.830  -0.124  53.457  1.00  0.00     0.106 C 
HETATM    2  N2  UNL     1      25.712   0.134  54.241  1.00  0.00    -0.402 NA
HETATM    3  C7  UNL     1      26.470   0.335  55.308  1.00  0.00     0.295 C 
HETATM    4  N3  UNL     1      27.620   0.457  54.932  1.00  0.00    -0.242 NA
HETATM    5  C8  UNL     1      28.959   0.644  55.001  1.00  0.00     0.420 C 
HETATM    6  N4  UNL     1      29.695   0.442  53.702  1.00  0.00     0.107 NA
HETATM    7  C9  UNL     1      29.060  -0.790  53.133  1.00  0.00     0.318 C 
HETATM    8  C10 UNL     1      27.709  -0.289  52.715  1.00  0.00     0.013 C 
HETATM    9 BR1  UNL     1      27.048  -2.063  52.505  1.00  0.00    -0.054 Br
HETATM   10  C11 UNL     1      26.849   0.734  52.421  1.00  0.00    -0.003 C 
HETATM   11  C12 UNL     1      25.485   0.106  52.086  1.00  0.00     0.102 C 
HETATM   12  H13 UNL     1      29.602   1.224  53.071  1.00  0.00     0.318 HD
ENDROOT
BRANCH   1  13
HETATM   13  C5  UNL     1      23.495  -0.607  53.910  1.00  0.00     0.154 C 
HETATM   14  N1  UNL     1      23.142   0.405  53.201  1.00  0.00    -0.266 NA
BRANCH  14  15
HETATM   15  C4  UNL     1      21.698   0.687  53.111  1.00  0.00     0.256 C 
BRANCH  15  16
HETATM   16  C3  UNL     1      21.398   1.162  51.728  1.00  0.00     0.195 C 
BRANCH  16  17
HETATM   17  S1  UNL     1      21.077   2.899  51.737  1.00  0.00     0.148 S 
HETATM   18  O1  UNL     1      20.534   3.373  50.428  1.00  0.00    -0.228 OA
HETATM   19  O2  UNL     1      20.047   3.192  52.788  1.00  0.00    -0.228 OA
BRANCH  17  20
HETATM   20  C2  UNL     1      22.525   3.828  52.180  1.00  0.00     0.136 C 
HETATM   21  C1  UNL     1      23.705   3.461  51.316  1.00  0.00     0.021 C 
ENDBRANCH  17  20
ENDBRANCH  16  17
ENDBRANCH  15  16
BRANCH  15  22
HETATM   22  O3  UNL     1      21.085  -0.512  53.445  1.00  0.00    -0.369 OA
HETATM   23  C13 UNL     1      19.714  -0.492  53.388  1.00  0.00     0.204 C 
ENDBRANCH  15  22
ENDBRANCH  14  15
ENDBRANCH   1  13
TORSDOF 6
ENDMDL
MODEL 5
REMARK VINA RESULT:      -6.4      3.502      6.740
REMARK  6 active torsions:
REMARK  status: ('A' for Active; 'I' for Inactive)
REMARK    1  A    between atoms: C2_2  and  S1_3 
REMARK    2  A    between atoms: S1_3  and  C3_6 
REMARK    3  A    between atoms: C3_6  and  C4_7 
REMARK    4  A    between atoms: C4_7  and  N1_8 
REMARK    5  A    between atoms: C4_7  and  O3_21 
REMARK    6  A    between atoms: C5_9  and  C6_10 
ROOT
HETATM    1  C6  UNL     1      25.243  -0.169  53.634  1.00  0.00     0.106 C 
HETATM    2  N2  UNL     1      26.126  -0.936  53.333  1.00  0.00    -0.402 NA
HETATM    3  C7  UNL     1      26.888  -1.881  52.803  1.00  0.00     0.295 C 
HETATM    4  N3  UNL     1      28.035  -1.677  53.154  1.00  0.00    -0.242 NA
HETATM    5  C8  UNL     1      29.372  -1.855  53.267  1.00  0.00     0.420 C 
HETATM    6  N4  UNL     1      30.103  -0.736  53.964  1.00  0.00     0.107 NA
HETATM    7  C9  UNL     1      29.478   0.497  53.386  1.00  0.00     0.318 C 
HETATM    8  C10 UNL     1      28.120   0.495  54.023  1.00  0.00     0.013 C 
HETATM    9 BR1  UNL     1      27.477   1.806  52.800  1.00  0.00    -0.054 Br
HETATM   10  C11 UNL     1      27.247   0.058  54.982  1.00  0.00    -0.003 C 
HETATM   11  C12 UNL     1      25.888   0.724  54.705  1.00  0.00     0.102 C 
HETATM   12  H13 UNL     1      29.998  -0.762  54.967  1.00  0.00     0.318 HD
ENDROOT
BRANCH   1  13
HETATM   13  C5  UNL     1      23.916  -0.197  52.957  1.00  0.00     0.154 C 
HETATM   14  N1  UNL     1      24.067   1.070  53.108  1.00  0.00    -0.266 NA
BRANCH  14  15
HETATM   15  C4  UNL     1      22.983   1.936  52.612  1.00  0.00     0.256 C 
BRANCH  15  16
HETATM   16  C3  UNL     1      23.122   2.062  51.131  1.00  0.00     0.195 C 
BRANCH  16  17
HETATM   17  S1  UNL     1      23.386   3.751  50.686  1.00  0.00     0.148 S 
HETATM   18  O1  UNL     1      22.102   4.458  50.392  1.00  0.00    -0.228 OA
HETATM   19  O2  UNL     1      24.037   4.456  51.838  1.00  0.00    -0.228 OA
BRANCH  17  20
HETATM   20  C2  UNL     1      24.502   3.897  49.311  1.00  0.00     0.136 C 
HETATM   21  C1  UNL     1      25.892   3.439  49.675  1.00  0.00     0.021 C 
ENDBRANCH  17  20
ENDBRANCH  16  17
ENDBRANCH  15  16
BRANCH  15  22
HETATM   22  O3  UNL     1      21.816   1.306  53.020  1.00  0.00    -0.369 OA
HETATM   23  C13 UNL     1      20.660   1.969  52.692  1.00  0.00     0.204 C 
ENDBRANCH  15  22
ENDBRANCH  14  15
ENDBRANCH   1  13
TORSDOF 6
ENDMDL
MODEL 6
REMARK VINA RESULT:      -6.4      3.865      7.347
REMARK  6 active torsions:
REMARK  status: ('A' for Active; 'I' for Inactive)
REMARK    1  A    between atoms: C2_2  and  S1_3 
REMARK    2  A    between atoms: S1_3  and  C3_6 
REMARK    3  A    between atoms: C3_6  and  C4_7 
REMARK    4  A    between atoms: C4_7  and  N1_8 
REMARK    5  A    between atoms: C4_7  and  O3_21 
REMARK    6  A    between atoms: C5_9  and  C6_10 
ROOT
HETATM    1  C6  UNL     1      25.396  -0.379  53.814  1.00  0.00     0.106 C 
HETATM    2  N2  UNL     1      26.285  -1.125  53.483  1.00  0.00    -0.402 NA
HETATM    3  C7  UNL     1      27.048  -2.059  52.933  1.00  0.00     0.295 C 
HETATM    4  N3  UNL     1      28.204  -1.814  53.220  1.00  0.00    -0.242 NA
HETATM    5  C8  UNL     1      29.550  -1.950  53.266  1.00  0.00     0.420 C 
HETATM    6  N4  UNL     1      30.281  -0.796  53.903  1.00  0.00     0.107 NA
HETATM    7  C9  UNL     1      29.590   0.406  53.334  1.00  0.00     0.318 C 
HETATM    8  C10 UNL     1      28.267   0.377  54.040  1.00  0.00     0.013 C 
HETATM    9 BR1  UNL     1      27.523   1.643  52.827  1.00  0.00    -0.054 Br
HETATM   10  C11 UNL     1      27.458  -0.065  55.052  1.00  0.00    -0.003 C 
HETATM   11  C12 UNL     1      26.067   0.555  54.833  1.00  0.00     0.102 C 
HETATM   12  H13 UNL     1      30.229  -0.804  54.910  1.00  0.00     0.318 HD
ENDROOT
BRANCH   1  13
HETATM   13  C5  UNL     1      24.037  -0.460  53.208  1.00  0.00     0.154 C 
HETATM   14  N1  UNL     1      24.238   0.807  53.145  1.00  0.00    -0.266 NA
BRANCH  14  15
HETATM   15  C4  UNL     1      23.162   1.626  52.561  1.00  0.00     0.256 C 
BRANCH  15  16
HETATM   16  C3  UNL     1      21.857   1.140  53.098  1.00  0.00     0.195 C 
BRANCH  16  17
HETATM   17  S1  UNL     1      20.523   1.800  52.148  1.00  0.00     0.148 S 
HETATM   18  O1  UNL     1      20.016   3.087  52.715  1.00  0.00    -0.228 OA
HETATM   19  O2  UNL     1      21.013   2.079  50.758  1.00  0.00    -0.228 OA
BRANCH  17  20
HETATM   20  C2  UNL     1      19.194   0.630  51.986  1.00  0.00     0.136 C 
HETATM   21  C1  UNL     1      18.631   0.622  50.586  1.00  0.00     0.021 C 
ENDBRANCH  17  20
ENDBRANCH  16  17
ENDBRANCH  15  16
BRANCH  15  22
HETATM   22  O3  UNL     1      23.475   2.928  52.924  1.00  0.00    -0.369 OA
HETATM   23  C13 UNL     1      23.981   3.702  51.910  1.00  0.00     0.204 C 
ENDBRANCH  15  22
ENDBRANCH  14  15
ENDBRANCH   1  13
TORSDOF 6
ENDMDL
MODEL 7
REMARK VINA RESULT:      -6.4      3.942      6.681
REMARK  6 active torsions:
REMARK  status: ('A' for Active; 'I' for Inactive)
REMARK    1  A    between atoms: C2_2  and  S1_3 
REMARK    2  A    between atoms: S1_3  and  C3_6 
REMARK    3  A    between atoms: C3_6  and  C4_7 
REMARK    4  A    between atoms: C4_7  and  N1_8 
REMARK    5  A    between atoms: C4_7  and  O3_21 
REMARK    6  A    between atoms: C5_9  and  C6_10 
ROOT
HETATM    1  C6  UNL     1      24.035   0.936  53.037  1.00  0.00     0.106 C 
HETATM    2  N2  UNL     1      24.897   0.311  53.608  1.00  0.00    -0.402 NA
HETATM    3  C7  UNL     1      25.671  -0.615  54.153  1.00  0.00     0.295 C 
HETATM    4  N3  UNL     1      26.738  -0.098  54.424  1.00  0.00    -0.242 NA
HETATM    5  C8  UNL     1      28.008   0.015  54.878  1.00  0.00     0.420 C 
HETATM    6  N4  UNL     1      28.673   1.334  54.578  1.00  0.00     0.107 NA
HETATM    7  C9  UNL     1      28.274   1.607  53.160  1.00  0.00     0.318 C 
HETATM    8  C10 UNL     1      26.821   1.953  53.298  1.00  0.00     0.013 C 
HETATM    9 BR1  UNL     1      26.539   1.779  51.423  1.00  0.00    -0.054 Br
HETATM   10  C11 UNL     1      25.744   2.322  54.058  1.00  0.00    -0.003 C 
HETATM   11  C12 UNL     1      24.524   2.389  53.124  1.00  0.00     0.102 C 
HETATM   12  H13 UNL     1      28.370   2.076  55.191  1.00  0.00     0.318 HD
ENDROOT
BRANCH   1  13
HETATM   13  C5  UNL     1      22.870   0.261  52.399  1.00  0.00     0.154 C 
HETATM   14  N1  UNL     1      22.728   1.449  51.931  1.00  0.00    -0.266 NA
BRANCH  14  15
HETATM   15  C4  UNL     1      21.582   1.682  51.034  1.00  0.00     0.256 C 
BRANCH  15  16
HETATM   16  C3  UNL     1      21.764   3.010  50.375  1.00  0.00     0.195 C 
BRANCH  16  17
HETATM   17  S1  UNL     1      20.928   4.265  51.295  1.00  0.00     0.148 S 
HETATM   18  O1  UNL     1      19.847   4.916  50.495  1.00  0.00    -0.228 OA
HETATM   19  O2  UNL     1      20.287   3.635  52.496  1.00  0.00    -0.228 OA
BRANCH  17  20
HETATM   20  C2  UNL     1      22.062   5.486  51.913  1.00  0.00     0.136 C 
HETATM   21  C1  UNL     1      23.417   5.363  51.263  1.00  0.00     0.021 C 
ENDBRANCH  17  20
ENDBRANCH  16  17
ENDBRANCH  15  16
BRANCH  15  22
HETATM   22  O3  UNL     1      21.599   0.607  50.158  1.00  0.00    -0.369 OA
HETATM   23  C13 UNL     1      21.468   0.943  48.833  1.00  0.00     0.204 C 
ENDBRANCH  15  22
ENDBRANCH  14  15
ENDBRANCH   1  13
TORSDOF 6
ENDMDL
MODEL 8
REMARK VINA RESULT:      -6.4      3.024      5.297
REMARK  6 active torsions:
REMARK  status: ('A' for Active; 'I' for Inactive)
REMARK    1  A    between atoms: C2_2  and  S1_3 
REMARK    2  A    between atoms: S1_3  and  C3_6 
REMARK    3  A    between atoms: C3_6  and  C4_7 
REMARK    4  A    between atoms: C4_7  and  N1_8 
REMARK    5  A    between atoms: C4_7  and  O3_21 
REMARK    6  A    between atoms: C5_9  and  C6_10 
ROOT
HETATM    1  C6  UNL     1      23.333   3.110  50.923  1.00  0.00     0.106 C 
HETATM    2  N2  UNL     1      23.588   4.269  51.150  1.00  0.00    -0.402 NA
HETATM    3  C7  UNL     1      23.796   5.462  51.686  1.00  0.00     0.295 C 
HETATM    4  N3  UNL     1      24.397   6.138  50.873  1.00  0.00    -0.242 NA
HETATM    5  C8  UNL     1      25.026   7.211  50.341  1.00  0.00     0.420 C 
HETATM    6  N4  UNL     1      25.710   6.956  49.023  1.00  0.00     0.107 NA
HETATM    7  C9  UNL     1      26.372   5.628  49.229  1.00  0.00     0.318 C 
HETATM    8  C10 UNL     1      25.205   4.685  49.225  1.00  0.00     0.013 C 
HETATM    9 BR1  UNL     1      26.264   3.273  49.939  1.00  0.00    -0.054 Br
HETATM   10  C11 UNL     1      23.895   4.401  48.947  1.00  0.00    -0.003 C 
HETATM   11  C12 UNL     1      23.626   2.963  49.422  1.00  0.00     0.102 C 
HETATM   12  H13 UNL     1      25.068   6.926  48.245  1.00  0.00     0.318 HD
ENDROOT
BRANCH   1  13
HETATM   13  C5  UNL     1      22.910   2.174  52.002  1.00  0.00     0.154 C 
HETATM   14  N1  UNL     1      24.140   1.829  51.872  1.00  0.00    -0.266 NA
BRANCH  14  15
HETATM   15  C4  UNL     1      24.626   0.745  52.745  1.00  0.00     0.256 C 
BRANCH  15  16
HETATM   16  C3  UNL     1      25.803   1.250  53.511  1.00  0.00     0.195 C 
BRANCH  16  17
HETATM   17  S1  UNL     1      26.643  -0.093  54.292  1.00  0.00     0.148 S 
HETATM   18  O1  UNL     1      25.976  -0.506  55.564  1.00  0.00    -0.228 OA
HETATM   19  O2  UNL     1      26.626  -1.274  53.368  1.00  0.00    -0.228 OA
BRANCH  17  20
HETATM   20  C2  UNL     1      28.354   0.289  54.586  1.00  0.00     0.136 C 
HETATM   21  C1  UNL     1      29.267  -0.641  53.826  1.00  0.00     0.021 C 
ENDBRANCH  17  20
ENDBRANCH  16  17
ENDBRANCH  15  16
BRANCH  15  22
HETATM   22  O3  UNL     1      23.534   0.415  53.535  1.00  0.00    -0.369 OA
HETATM   23  C13 UNL     1      23.104  -0.883  53.408  1.00  0.00     0.204 C 
ENDBRANCH  15  22
ENDBRANCH  14  15
ENDBRANCH   1  13
TORSDOF 6
ENDMDL
MODEL 9
REMARK VINA RESULT:      -6.3      2.000      2.844
REMARK  6 active torsions:
REMARK  status: ('A' for Active; 'I' for Inactive)
REMARK    1  A    between atoms: C2_2  and  S1_3 
REMARK    2  A    between atoms: S1_3  and  C3_6 
REMARK    3  A    between atoms: C3_6  and  C4_7 
REMARK    4  A    between atoms: C4_7  and  N1_8 
REMARK    5  A    between atoms: C4_7  and  O3_21 
REMARK    6  A    between atoms: C5_9  and  C6_10 
ROOT
HETATM    1  C6  UNL     1      22.313   1.543  51.908  1.00  0.00     0.106 C 
HETATM    2  N2  UNL     1      21.402   2.320  52.063  1.00  0.00    -0.402 NA
HETATM    3  C7  UNL     1      20.629   3.373  52.280  1.00  0.00     0.295 C 
HETATM    4  N3  UNL     1      19.502   3.090  51.921  1.00  0.00    -0.242 NA
HETATM    5  C8  UNL     1      18.180   3.240  51.676  1.00  0.00     0.420 C 
HETATM    6  N4  UNL     1      17.545   2.106  50.914  1.00  0.00     0.107 NA
HETATM    7  C9  UNL     1      18.553   1.798  49.849  1.00  0.00     0.318 C 
HETATM    8  C10 UNL     1      19.653   1.142  50.632  1.00  0.00     0.013 C 
HETATM    9 BR1  UNL     1      20.871   1.311  49.178  1.00  0.00    -0.054 Br
HETATM   10  C11 UNL     1      20.115   0.526  51.763  1.00  0.00    -0.003 C 
HETATM   11  C12 UNL     1      21.609   0.226  51.546  1.00  0.00     0.102 C 
HETATM   12  H13 UNL     1      17.363   1.297  51.489  1.00  0.00     0.318 HD
ENDROOT
BRANCH   1  13
HETATM   13  C5  UNL     1      23.737   1.970  52.019  1.00  0.00     0.154 C 
HETATM   14  N1  UNL     1      23.798   0.822  52.593  1.00  0.00    -0.266 NA
BRANCH  14  15
HETATM   15  C4  UNL     1      25.116   0.398  53.100  1.00  0.00     0.256 C 
BRANCH  15  16
HETATM   16  C3  UNL     1      25.756   1.565  53.776  1.00  0.00     0.195 C 
BRANCH  16  17
HETATM   17  S1  UNL     1      27.411   1.772  53.195  1.00  0.00     0.148 S 
HETATM   18  O1  UNL     1      27.457   2.477  51.877  1.00  0.00    -0.228 OA
HETATM   19  O2  UNL     1      28.168   2.610  54.182  1.00  0.00    -0.228 OA
BRANCH  17  20
HETATM   20  C2  UNL     1      28.268   0.218  53.095  1.00  0.00     0.136 C 
HETATM   21  C1  UNL     1      29.641   0.302  53.712  1.00  0.00     0.021 C 
ENDBRANCH  17  20
ENDBRANCH  16  17
ENDBRANCH  15  16
BRANCH  15  22
HETATM   22  O3  UNL     1      24.840  -0.666  53.945  1.00  0.00    -0.369 OA
HETATM   23  C13 UNL     1      25.451  -0.599  55.172  1.00  0.00     0.204 C 
ENDBRANCH  15  22
ENDBRANCH  14  15
ENDBRANCH   1  13
TORSDOF 6
ENDMDL
