MODEL 1
REMARK VINA RESULT:      -7.5      0.000      0.000
REMARK  4 active torsions:
REMARK  status: ('A' for Active; 'I' for Inactive)
REMARK    1  A    between atoms: C7_9  and  N3_10 
REMARK    2  A    between atoms: C14_17  and  O1_18 
REMARK    3  A    between atoms: O1_18  and  C15_19 
REMARK    4  A    between atoms: C15_19  and  O2_20 
ROOT
HETATM    1  C1  UNL     1      23.269   2.121  50.418  1.00  0.00     0.046 C 
HETATM    2  C2  UNL     1      23.507   1.276  51.635  1.00  0.00    -0.048 A 
HETATM    3  C3  UNL     1      24.718   0.973  52.080  1.00  0.00     0.023 A 
HETATM    4  C4  UNL     1      24.477   0.151  53.258  1.00  0.00     0.038 A 
HETATM    5  C5  UNL     1      23.131  -0.024  53.502  1.00  0.00     0.083 A 
HETATM    6  N1  UNL     1      22.741  -0.756  54.555  1.00  0.00    -0.242 NA
HETATM    7  C6  UNL     1      23.685  -1.315  55.369  1.00  0.00     0.235 A 
HETATM    8  N2  UNL     1      25.017  -1.140  55.127  1.00  0.00    -0.223 NA
HETATM    9  C7  UNL     1      25.427  -0.413  54.081  1.00  0.00     0.144 A 
HETATM   10  C14 UNL     1      22.395   0.709  52.440  1.00  0.00     0.205 A 
ENDROOT
BRANCH   9  11
HETATM   11  N3  UNL     1      26.841  -0.342  53.979  1.00  0.00    -0.333 N 
HETATM   12  C8  UNL     1      27.382  -1.411  53.201  1.00  0.00     0.093 A 
HETATM   13  C9  UNL     1      28.682  -1.526  52.987  1.00  0.00     0.017 A 
HETATM   14  C10 UNL     1      29.636  -0.568  53.533  1.00  0.00    -0.001 A 
HETATM   15  C11 UNL     1      29.092   0.403  54.245  1.00  0.00    -0.002 A 
HETATM   16  C12 UNL     1      27.674   0.679  54.581  1.00  0.00     0.109 A 
HETATM   17  C13 UNL     1      27.277   1.982  53.870  1.00  0.00     0.037 C 
ENDBRANCH   9  11
BRANCH  10  18
HETATM   18  O1  UNL     1      21.701   1.730  53.093  1.00  0.00    -0.351 OA
BRANCH  18  19
HETATM   19  C15 UNL     1      20.397   1.875  52.696  1.00  0.00     0.336 C 
BRANCH  19  20
HETATM   20  O2  UNL     1      20.017   3.237  52.680  1.00  0.00    -0.377 OA
HETATM   21  H17 UNL     1      19.264   3.380  53.336  1.00  0.00     0.212 HD
ENDBRANCH  19  20
ENDBRANCH  18  19
ENDBRANCH  10  18
TORSDOF 4
ENDMDL
MODEL 2
REMARK VINA RESULT:      -7.5      1.228      2.006
REMARK  4 active torsions:
REMARK  status: ('A' for Active; 'I' for Inactive)
REMARK    1  A    between atoms: C7_9  and  N3_10 
REMARK    2  A    between atoms: C14_17  and  O1_18 
REMARK    3  A    between atoms: O1_18  and  C15_19 
REMARK    4  A    between atoms: C15_19  and  O2_20 
ROOT
HETATM    1  C1  UNL     1      24.534   3.783  49.914  1.00  0.00     0.046 C 
HETATM    2  C2  UNL     1      24.273   2.718  50.938  1.00  0.00    -0.048 A 
HETATM    3  C3  UNL     1      25.240   2.036  51.535  1.00  0.00     0.023 A 
HETATM    4  C4  UNL     1      24.541   1.126  52.432  1.00  0.00     0.038 A 
HETATM    5  C5  UNL     1      23.173   1.274  52.360  1.00  0.00     0.083 A 
HETATM    6  N1  UNL     1      22.385   0.509  53.128  1.00  0.00    -0.242 NA
HETATM    7  C6  UNL     1      22.952  -0.405  53.970  1.00  0.00     0.235 A 
HETATM    8  N2  UNL     1      24.308  -0.551  54.040  1.00  0.00    -0.223 NA
HETATM    9  C7  UNL     1      25.112   0.202  53.282  1.00  0.00     0.144 A 
HETATM   10  C14 UNL     1      22.900   2.340  51.362  1.00  0.00     0.205 A 
ENDROOT
BRANCH   9  11
HETATM   11  N3  UNL     1      26.487  -0.087  53.480  1.00  0.00    -0.333 N 
HETATM   12  C8  UNL     1      26.960   0.372  54.747  1.00  0.00     0.093 A 
HETATM   13  C9  UNL     1      28.215   0.199  55.125  1.00  0.00     0.017 A 
HETATM   14  C10 UNL     1      29.188  -0.469  54.269  1.00  0.00    -0.001 A 
HETATM   15  C11 UNL     1      28.708  -0.877  53.107  1.00  0.00    -0.002 A 
HETATM   16  C12 UNL     1      27.346  -0.767  52.531  1.00  0.00     0.109 A 
HETATM   17  C13 UNL     1      26.773  -2.189  52.429  1.00  0.00     0.037 C 
ENDBRANCH   9  11
BRANCH  10  18
HETATM   18  O1  UNL     1      22.310   3.387  52.073  1.00  0.00    -0.351 OA
BRANCH  18  19
HETATM   19  C15 UNL     1      20.970   3.553  51.831  1.00  0.00     0.336 C 
BRANCH  19  20
HETATM   20  O2  UNL     1      20.191   2.945  52.842  1.00  0.00    -0.377 OA
HETATM   21  H17 UNL     1      20.674   3.018  53.725  1.00  0.00     0.212 HD
ENDBRANCH  19  20
ENDBRANCH  18  19
ENDBRANCH  10  18
TORSDOF 4
ENDMDL
MODEL 3
REMARK VINA RESULT:      -7.4      1.780      2.759
REMARK  4 active torsions:
REMARK  status: ('A' for Active; 'I' for Inactive)
REMARK    1  A    between atoms: C7_9  and  N3_10 
REMARK    2  A    between atoms: C14_17  and  O1_18 
REMARK    3  A    between atoms: O1_18  and  C15_19 
REMARK    4  A    between atoms: C15_19  and  O2_20 
ROOT
HETATM    1  C1  UNL     1      21.969  -1.380  54.798  1.00  0.00     0.046 C 
HETATM    2  C2  UNL     1      22.819  -0.492  53.936  1.00  0.00    -0.048 A 
HETATM    3  C3  UNL     1      24.144  -0.500  53.974  1.00  0.00     0.023 A 
HETATM    4  C4  UNL     1      24.541   0.500  52.992  1.00  0.00     0.038 A 
HETATM    5  C5  UNL     1      23.453   1.090  52.383  1.00  0.00     0.083 A 
HETATM    6  N1  UNL     1      23.651   2.032  51.450  1.00  0.00    -0.242 NA
HETATM    7  C6  UNL     1      24.926   2.391  51.119  1.00  0.00     0.235 A 
HETATM    8  N2  UNL     1      26.002   1.806  51.724  1.00  0.00    -0.223 NA
HETATM    9  C7  UNL     1      25.827   0.864  52.657  1.00  0.00     0.144 A 
HETATM   10  C14 UNL     1      22.236   0.473  52.968  1.00  0.00     0.205 A 
ENDROOT
BRANCH   9  11
HETATM   11  N3  UNL     1      27.051   0.373  53.180  1.00  0.00    -0.333 N 
HETATM   12  C8  UNL     1      27.429  -0.874  52.593  1.00  0.00     0.093 A 
HETATM   13  C9  UNL     1      28.539  -1.500  52.945  1.00  0.00     0.017 A 
HETATM   14  C10 UNL     1      29.441  -0.952  53.952  1.00  0.00    -0.001 A 
HETATM   15  C11 UNL     1      29.053   0.201  54.468  1.00  0.00    -0.002 A 
HETATM   16  C12 UNL     1      27.854   1.029  54.192  1.00  0.00     0.109 A 
HETATM   17  C13 UNL     1      28.335   2.331  53.532  1.00  0.00     0.037 C 
ENDBRANCH   9  11
BRANCH  10  18
HETATM   18  O1  UNL     1      21.613  -0.210  51.922  1.00  0.00    -0.351 OA
BRANCH  18  19
HETATM   19  C15 UNL     1      20.389   0.294  51.563  1.00  0.00     0.336 C 
BRANCH  19  20
HETATM   20  O2  UNL     1      19.391  -0.085  52.490  1.00  0.00    -0.377 OA
HETATM   21  H17 UNL     1      18.988  -0.965  52.205  1.00  0.00     0.212 HD
ENDBRANCH  19  20
ENDBRANCH  18  19
ENDBRANCH  10  18
TORSDOF 4
ENDMDL
MODEL 4
REMARK VINA RESULT:      -7.2      2.978      6.136
REMARK  4 active torsions:
REMARK  status: ('A' for Active; 'I' for Inactive)
REMARK    1  A    between atoms: C7_9  and  N3_10 
REMARK    2  A    between atoms: C14_17  and  O1_18 
REMARK    3  A    between atoms: O1_18  and  C15_19 
REMARK    4  A    between atoms: C15_19  and  O2_20 
ROOT
HETATM    1  C1  UNL     1      27.068  -2.364  52.513  1.00  0.00     0.046 C 
HETATM    2  C2  UNL     1      26.429  -1.023  52.731  1.00  0.00    -0.048 A 
HETATM    3  C3  UNL     1      25.119  -0.831  52.697  1.00  0.00     0.023 A 
HETATM    4  C4  UNL     1      24.953   0.593  52.955  1.00  0.00     0.038 A 
HETATM    5  C5  UNL     1      26.162   1.230  53.140  1.00  0.00     0.083 A 
HETATM    6  N1  UNL     1      26.181   2.547  53.390  1.00  0.00    -0.242 NA
HETATM    7  C6  UNL     1      25.003   3.234  53.458  1.00  0.00     0.235 A 
HETATM    8  N2  UNL     1      23.807   2.601  53.275  1.00  0.00    -0.223 NA
HETATM    9  C7  UNL     1      23.765   1.288  53.023  1.00  0.00     0.144 A 
HETATM   10  C14 UNL     1      27.225   0.202  53.002  1.00  0.00     0.205 A 
ENDROOT
BRANCH   9  11
HETATM   11  N3  UNL     1      22.443   0.800  52.855  1.00  0.00    -0.333 N 
HETATM   12  C8  UNL     1      22.063   0.729  51.480  1.00  0.00     0.093 A 
HETATM   13  C9  UNL     1      20.868   0.300  51.110  1.00  0.00     0.017 A 
HETATM   14  C10 UNL     1      19.871  -0.125  52.086  1.00  0.00    -0.001 A 
HETATM   15  C11 UNL     1      20.265  -0.042  53.344  1.00  0.00    -0.002 A 
HETATM   16  C12 UNL     1      21.551   0.410  53.928  1.00  0.00     0.109 A 
HETATM   17  C13 UNL     1      22.220  -0.814  54.573  1.00  0.00     0.037 C 
ENDBRANCH   9  11
BRANCH  10  18
HETATM   18  O1  UNL     1      27.835   0.114  54.255  1.00  0.00    -0.351 OA
BRANCH  18  19
HETATM   19  C15 UNL     1      29.106   0.625  54.306  1.00  0.00     0.336 C 
BRANCH  19  20
HETATM   20  O2  UNL     1      29.099   1.967  54.752  1.00  0.00    -0.377 OA
HETATM   21  H17 UNL     1      28.402   2.074  55.474  1.00  0.00     0.212 HD
ENDBRANCH  19  20
ENDBRANCH  18  19
ENDBRANCH  10  18
TORSDOF 4
ENDMDL
MODEL 5
REMARK VINA RESULT:      -7.1      3.445      6.758
REMARK  4 active torsions:
REMARK  status: ('A' for Active; 'I' for Inactive)
REMARK    1  A    between atoms: C7_9  and  N3_10 
REMARK    2  A    between atoms: C14_17  and  O1_18 
REMARK    3  A    between atoms: O1_18  and  C15_19 
REMARK    4  A    between atoms: C15_19  and  O2_20 
ROOT
HETATM    1  C1  UNL     1      25.360  -0.327  54.305  1.00  0.00     0.046 C 
HETATM    2  C2  UNL     1      25.423   0.670  53.184  1.00  0.00    -0.048 A 
HETATM    3  C3  UNL     1      24.352   1.085  52.524  1.00  0.00     0.023 A 
HETATM    4  C4  UNL     1      24.873   2.028  51.543  1.00  0.00     0.038 A 
HETATM    5  C5  UNL     1      26.243   2.162  51.629  1.00  0.00     0.083 A 
HETATM    6  N1  UNL     1      26.877   2.997  50.794  1.00  0.00    -0.242 NA
HETATM    7  C6  UNL     1      26.155   3.701  49.872  1.00  0.00     0.235 A 
HETATM    8  N2  UNL     1      24.799   3.566  49.788  1.00  0.00    -0.223 NA
HETATM    9  C7  UNL     1      24.146   2.738  50.612  1.00  0.00     0.144 A 
HETATM   10  C14 UNL     1      26.702   1.269  52.723  1.00  0.00     0.205 A 
ENDROOT
BRANCH   9  11
HETATM   11  N3  UNL     1      22.747   2.720  50.379  1.00  0.00    -0.333 N 
HETATM   12  C8  UNL     1      22.302   1.470  49.848  1.00  0.00     0.093 A 
HETATM   13  C9  UNL     1      21.030   1.250  49.561  1.00  0.00     0.017 A 
HETATM   14  C10 UNL     1      20.009   2.270  49.772  1.00  0.00    -0.001 A 
HETATM   15  C11 UNL     1      20.465   3.408  50.265  1.00  0.00    -0.002 A 
HETATM   16  C12 UNL     1      21.840   3.819  50.638  1.00  0.00     0.109 A 
HETATM   17  C13 UNL     1      21.868   4.004  52.164  1.00  0.00     0.037 C 
ENDBRANCH   9  11
BRANCH  10  18
HETATM   18  O1  UNL     1      27.224   2.110  53.708  1.00  0.00    -0.351 OA
BRANCH  18  19
HETATM   19  C15 UNL     1      28.588   2.060  53.834  1.00  0.00     0.336 C 
BRANCH  19  20
HETATM   20  O2  UNL     1      29.213   3.001  52.985  1.00  0.00    -0.377 OA
HETATM   21  H17 UNL     1      29.671   2.515  52.228  1.00  0.00     0.212 HD
ENDBRANCH  19  20
ENDBRANCH  18  19
ENDBRANCH  10  18
TORSDOF 4
ENDMDL
MODEL 6
REMARK VINA RESULT:      -7.0      1.917      2.346
REMARK  4 active torsions:
REMARK  status: ('A' for Active; 'I' for Inactive)
REMARK    1  A    between atoms: C7_9  and  N3_10 
REMARK    2  A    between atoms: C14_17  and  O1_18 
REMARK    3  A    between atoms: O1_18  and  C15_19 
REMARK    4  A    between atoms: C15_19  and  O2_20 
ROOT
HETATM    1  C1  UNL     1      26.300   3.905  49.444  1.00  0.00     0.046 C 
HETATM    2  C2  UNL     1      25.758   2.947  50.465  1.00  0.00    -0.048 A 
HETATM    3  C3  UNL     1      26.529   2.164  51.204  1.00  0.00     0.023 A 
HETATM    4  C4  UNL     1      25.596   1.417  52.037  1.00  0.00     0.038 A 
HETATM    5  C5  UNL     1      24.285   1.763  51.786  1.00  0.00     0.083 A 
HETATM    6  N1  UNL     1      23.302   1.166  52.475  1.00  0.00    -0.242 NA
HETATM    7  C6  UNL     1      23.617   0.225  53.414  1.00  0.00     0.235 A 
HETATM    8  N2  UNL     1      24.916  -0.116  53.661  1.00  0.00    -0.223 NA
HETATM    9  C7  UNL     1      25.912   0.468  52.985  1.00  0.00     0.144 A 
HETATM   10  C14 UNL     1      24.302   2.801  50.724  1.00  0.00     0.205 A 
ENDROOT
BRANCH   9  11
HETATM   11  N3  UNL     1      27.192  -0.011  53.366  1.00  0.00    -0.333 N 
HETATM   12  C8  UNL     1      27.550  -1.210  52.676  1.00  0.00     0.093 A 
HETATM   13  C9  UNL     1      28.705  -1.817  52.890  1.00  0.00     0.017 A 
HETATM   14  C10 UNL     1      29.679  -1.296  53.843  1.00  0.00    -0.001 A 
HETATM   15  C11 UNL     1      29.307  -0.187  54.457  1.00  0.00    -0.002 A 
HETATM   16  C12 UNL     1      28.065   0.615  54.338  1.00  0.00     0.109 A 
HETATM   17  C13 UNL     1      28.447   1.967  53.715  1.00  0.00     0.037 C 
ENDBRANCH   9  11
BRANCH  10  18
HETATM   18  O1  UNL     1      23.798   3.961  51.316  1.00  0.00    -0.351 OA
BRANCH  18  19
HETATM   19  C15 UNL     1      22.605   4.392  50.796  1.00  0.00     0.336 C 
BRANCH  19  20
HETATM   20  O2  UNL     1      21.903   5.193  51.726  1.00  0.00    -0.377 OA
HETATM   21  H17 UNL     1      20.974   4.822  51.851  1.00  0.00     0.212 HD
ENDBRANCH  19  20
ENDBRANCH  18  19
ENDBRANCH  10  18
TORSDOF 4
ENDMDL
MODEL 7
REMARK VINA RESULT:      -6.8      2.688      6.353
REMARK  4 active torsions:
REMARK  status: ('A' for Active; 'I' for Inactive)
REMARK    1  A    between atoms: C7_9  and  N3_10 
REMARK    2  A    between atoms: C14_17  and  O1_18 
REMARK    3  A    between atoms: O1_18  and  C15_19 
REMARK    4  A    between atoms: C15_19  and  O2_20 
ROOT
HETATM    1  C1  UNL     1      26.765   1.804  51.556  1.00  0.00     0.046 C 
HETATM    2  C2  UNL     1      25.518   1.207  52.141  1.00  0.00    -0.048 A 
HETATM    3  C3  UNL     1      24.299   1.593  51.794  1.00  0.00     0.023 A 
HETATM    4  C4  UNL     1      23.412   0.762  52.598  1.00  0.00     0.038 A 
HETATM    5  C5  UNL     1      24.110  -0.105  53.412  1.00  0.00     0.083 A 
HETATM    6  N1  UNL     1      23.437  -0.941  54.214  1.00  0.00    -0.242 NA
HETATM    7  C6  UNL     1      22.071  -0.920  54.212  1.00  0.00     0.235 A 
HETATM    8  N2  UNL     1      21.383  -0.060  53.405  1.00  0.00    -0.223 NA
HETATM    9  C7  UNL     1      22.034   0.783  52.597  1.00  0.00     0.144 A 
HETATM   10  C14 UNL     1      25.556   0.132  53.166  1.00  0.00     0.205 A 
ENDROOT
BRANCH   9  11
HETATM   11  N3  UNL     1      21.161   1.604  51.837  1.00  0.00    -0.333 N 
HETATM   12  C8  UNL     1      21.121   2.947  52.323  1.00  0.00     0.093 A 
HETATM   13  C9  UNL     1      20.366   3.871  51.752  1.00  0.00     0.017 A 
HETATM   14  C10 UNL     1      19.533   3.570  50.594  1.00  0.00    -0.001 A 
HETATM   15  C11 UNL     1      19.602   2.318  50.178  1.00  0.00    -0.002 A 
HETATM   16  C12 UNL     1      20.384   1.169  50.695  1.00  0.00     0.109 A 
HETATM   17  C13 UNL     1      21.425   0.802  49.625  1.00  0.00     0.037 C 
ENDBRANCH   9  11
BRANCH  10  18
HETATM   18  O1  UNL     1      26.046  -1.050  52.607  1.00  0.00    -0.351 OA
BRANCH  18  19
HETATM   19  C15 UNL     1      27.320  -1.376  52.995  1.00  0.00     0.336 C 
BRANCH  19  20
HETATM   20  O2  UNL     1      27.523  -2.775  52.955  1.00  0.00    -0.377 OA
HETATM   21  H17 UNL     1      28.383  -3.001  53.432  1.00  0.00     0.212 HD
ENDBRANCH  19  20
ENDBRANCH  18  19
ENDBRANCH  10  18
TORSDOF 4
ENDMDL
MODEL 8
REMARK VINA RESULT:      -6.8      5.478      7.701
REMARK  4 active torsions:
REMARK  status: ('A' for Active; 'I' for Inactive)
REMARK    1  A    between atoms: C7_9  and  N3_10 
REMARK    2  A    between atoms: C14_17  and  O1_18 
REMARK    3  A    between atoms: O1_18  and  C15_19 
REMARK    4  A    between atoms: C15_19  and  O2_20 
ROOT
HETATM    1  C1  UNL     1      27.521   5.480  48.583  1.00  0.00     0.046 C 
HETATM    2  C2  UNL     1      26.166   5.776  49.155  1.00  0.00    -0.048 A 
HETATM    3  C3  UNL     1      25.303   4.830  49.498  1.00  0.00     0.023 A 
HETATM    4  C4  UNL     1      24.144   5.560  49.994  1.00  0.00     0.038 A 
HETATM    5  C5  UNL     1      24.328   6.925  49.942  1.00  0.00     0.083 A 
HETATM    6  N1  UNL     1      23.352   7.739  50.367  1.00  0.00    -0.242 NA
HETATM    7  C6  UNL     1      22.191   7.202  50.845  1.00  0.00     0.235 A 
HETATM    8  N2  UNL     1      22.010   5.849  50.896  1.00  0.00    -0.223 NA
HETATM    9  C7  UNL     1      22.971   5.019  50.476  1.00  0.00     0.144 A 
HETATM   10  C14 UNL     1      25.682   7.163  49.380  1.00  0.00     0.205 A 
ENDROOT
BRANCH   9  11
HETATM   11  N3  UNL     1      22.610   3.652  50.596  1.00  0.00    -0.333 N 
HETATM   12  C8  UNL     1      22.355   3.046  49.328  1.00  0.00     0.093 A 
HETATM   13  C9  UNL     1      22.003   1.776  49.222  1.00  0.00     0.017 A 
HETATM   14  C10 UNL     1      21.857   0.921  50.395  1.00  0.00    -0.001 A 
HETATM   15  C11 UNL     1      22.103   1.522  51.546  1.00  0.00    -0.002 A 
HETATM   16  C12 UNL     1      22.503   2.920  51.842  1.00  0.00     0.109 A 
HETATM   17  C13 UNL     1      23.933   2.881  52.403  1.00  0.00     0.037 C 
ENDBRANCH   9  11
BRANCH  10  18
HETATM   18  O1  UNL     1      26.417   7.771  50.400  1.00  0.00    -0.351 OA
BRANCH  18  19
HETATM   19  C15 UNL     1      26.910   9.011  50.083  1.00  0.00     0.336 C 
BRANCH  19  20
HETATM   20  O2  UNL     1      27.542   9.607  51.198  1.00  0.00    -0.377 OA
HETATM   21  H17 UNL     1      27.720   8.902  51.897  1.00  0.00     0.212 HD
ENDBRANCH  19  20
ENDBRANCH  18  19
ENDBRANCH  10  18
TORSDOF 4
ENDMDL
MODEL 9
REMARK VINA RESULT:      -6.5      9.740     11.274
REMARK  4 active torsions:
REMARK  status: ('A' for Active; 'I' for Inactive)
REMARK    1  A    between atoms: C7_9  and  N3_10 
REMARK    2  A    between atoms: C14_17  and  O1_18 
REMARK    3  A    between atoms: O1_18  and  C15_19 
REMARK    4  A    between atoms: C15_19  and  O2_20 
ROOT
HETATM    1  C1  UNL     1      28.222   5.057  48.471  1.00  0.00     0.046 C 
HETATM    2  C2  UNL     1      29.448   5.896  48.260  1.00  0.00    -0.048 A 
HETATM    3  C3  UNL     1      30.578   5.415  47.763  1.00  0.00     0.023 A 
HETATM    4  C4  UNL     1      31.480   6.559  47.737  1.00  0.00     0.038 A 
HETATM    5  C5  UNL     1      30.880   7.703  48.217  1.00  0.00     0.083 A 
HETATM    6  N1  UNL     1      31.578   8.847  48.256  1.00  0.00    -0.242 NA
HETATM    7  C6  UNL     1      32.872   8.858  47.820  1.00  0.00     0.235 A 
HETATM    8  N2  UNL     1      33.465   7.723  47.345  1.00  0.00    -0.223 NA
HETATM    9  C7  UNL     1      32.786   6.571  47.297  1.00  0.00     0.144 A 
HETATM   10  C14 UNL     1      29.491   7.342  48.599  1.00  0.00     0.205 A 
ENDROOT
BRANCH   9  11
HETATM   11  N3  UNL     1      33.557   5.497  46.782  1.00  0.00    -0.333 N 
HETATM   12  C8  UNL     1      33.803   5.631  45.381  1.00  0.00     0.093 A 
HETATM   13  C9  UNL     1      34.504   4.733  44.709  1.00  0.00     0.017 A 
HETATM   14  C10 UNL     1      35.066   3.555  45.362  1.00  0.00    -0.001 A 
HETATM   15  C11 UNL     1      34.815   3.473  46.657  1.00  0.00    -0.002 A 
HETATM   16  C12 UNL     1      34.056   4.378  47.554  1.00  0.00     0.109 A 
HETATM   17  C13 UNL     1      35.060   4.995  48.541  1.00  0.00     0.037 C 
ENDBRANCH   9  11
BRANCH  10  18
HETATM   18  O1  UNL     1      28.659   8.064  47.740  1.00  0.00    -0.351 OA
BRANCH  18  19
HETATM   19  C15 UNL     1      27.664   8.766  48.370  1.00  0.00     0.336 C 
BRANCH  19  20
HETATM   20  O2  UNL     1      27.738   8.607  49.773  1.00  0.00    -0.377 OA
HETATM   21  H17 UNL     1      26.804   8.567  50.153  1.00  0.00     0.212 HD
ENDBRANCH  19  20
ENDBRANCH  18  19
ENDBRANCH  10  18
TORSDOF 4
ENDMDL
