MODEL 1
REMARK VINA RESULT:      -6.8      0.000      0.000
REMARK  7 active torsions:
REMARK  status: ('A' for Active; 'I' for Inactive)
REMARK       I    between atoms: C1_2  and  N1_3 
REMARK    1  A    between atoms: C1_2  and  C8_11 
REMARK    2  A    between atoms: N1_3  and  C2_4 
REMARK    3  A    between atoms: C11_14  and  N2_15 
REMARK    4  A    between atoms: N2_15  and  C12_16 
REMARK    5  A    between atoms: N2_15  and  C14_19 
REMARK    6  A    between atoms: C12_16  and  C13_17 
REMARK    7  A    between atoms: C14_19  and  C15_20 
ROOT
HETATM    1  C8  UNL     1      21.943  -0.007  52.700  1.00  0.00     0.032 A 
HETATM    2  C9  UNL     1      21.103  -0.407  53.717  1.00  0.00     0.019 A 
HETATM    3  C10 UNL     1      19.736  -0.410  53.536  1.00  0.00     0.030 A 
HETATM    4  C11 UNL     1      19.121  -0.028  52.367  1.00  0.00     0.030 A 
HETATM    5  C16 UNL     1      19.993   0.365  51.377  1.00  0.00     0.030 A 
HETATM    6  C17 UNL     1      21.379   0.383  51.518  1.00  0.00     0.019 A 
ENDROOT
BRANCH   1   7
HETATM    7  C1  UNL     1      23.379  -0.022  52.949  1.00  0.00     0.256 C 
HETATM    8  O1  UNL     1      24.141   0.713  52.272  1.00  0.00    -0.267 OA
HETATM    9  N1  UNL     1      23.994  -0.836  53.935  1.00  0.00    -0.323 N 
HETATM   10  H1  UNL     1      23.440  -1.459  54.527  1.00  0.00     0.169 HD
BRANCH   9  11
HETATM   11  C2  UNL     1      25.421  -0.616  53.925  1.00  0.00     0.035 A 
HETATM   12  C3  UNL     1      26.091   0.183  54.830  1.00  0.00     0.031 A 
HETATM   13  C4  UNL     1      27.463   0.308  54.702  1.00  0.00     0.021 A 
HETATM   14  C5  UNL     1      28.206  -0.320  53.724  1.00  0.00     0.011 A 
HETATM   15 BR1  UNL     1      30.103  -0.119  53.586  1.00  0.00    -0.051 Br
HETATM   16  C6  UNL     1      27.475  -1.117  52.835  1.00  0.00     0.021 A 
HETATM   17  C7  UNL     1      26.108  -1.271  52.921  1.00  0.00     0.031 A 
ENDBRANCH   9  11
ENDBRANCH   1   7
BRANCH   4  18
HETATM   18  N2  UNL     1      17.703  -0.010  52.151  1.00  0.00    -0.379 N 
BRANCH  18  19
HETATM   19  C12 UNL     1      16.739  -0.696  52.950  1.00  0.00     0.138 C 
BRANCH  19  20
HETATM   20  C13 UNL     1      16.534  -2.144  52.509  1.00  0.00     0.134 C 
HETATM   21 CL1  UNL     1      17.461  -3.115  53.714  1.00  0.00    -0.129 Cl
ENDBRANCH  19  20
ENDBRANCH  18  19
BRANCH  18  22
HETATM   22  C14 UNL     1      17.102   0.718  51.060  1.00  0.00     0.138 C 
BRANCH  22  23
HETATM   23  C15 UNL     1      16.431   2.008  51.523  1.00  0.00     0.134 C 
HETATM   24 CL2  UNL     1      17.519   3.383  51.395  1.00  0.00    -0.129 Cl
ENDBRANCH  22  23
ENDBRANCH  18  22
ENDBRANCH   4  18
TORSDOF 7
ENDMDL
MODEL 2
REMARK VINA RESULT:      -6.7      0.767      2.412
REMARK  7 active torsions:
REMARK  status: ('A' for Active; 'I' for Inactive)
REMARK       I    between atoms: C1_2  and  N1_3 
REMARK    1  A    between atoms: C1_2  and  C8_11 
REMARK    2  A    between atoms: N1_3  and  C2_4 
REMARK    3  A    between atoms: C11_14  and  N2_15 
REMARK    4  A    between atoms: N2_15  and  C12_16 
REMARK    5  A    between atoms: N2_15  and  C14_19 
REMARK    6  A    between atoms: C12_16  and  C13_17 
REMARK    7  A    between atoms: C14_19  and  C15_20 
ROOT
HETATM    1  C8  UNL     1      21.930  -0.061  52.674  1.00  0.00     0.032 A 
HETATM    2  C9  UNL     1      21.087  -0.515  53.668  1.00  0.00     0.019 A 
HETATM    3  C10 UNL     1      19.722  -0.528  53.477  1.00  0.00     0.030 A 
HETATM    4  C11 UNL     1      19.110  -0.107  52.320  1.00  0.00     0.030 A 
HETATM    5  C16 UNL     1      19.983   0.339  51.353  1.00  0.00     0.030 A 
HETATM    6  C17 UNL     1      21.368   0.369  51.505  1.00  0.00     0.019 A 
ENDROOT
BRANCH   1   7
HETATM    7  C1  UNL     1      23.364  -0.068  52.933  1.00  0.00     0.256 C 
HETATM    8  O1  UNL     1      24.123   0.683  52.272  1.00  0.00    -0.267 OA
HETATM    9  N1  UNL     1      23.979  -0.891  53.911  1.00  0.00    -0.323 N 
HETATM   10  H1  UNL     1      23.426  -1.527  54.490  1.00  0.00     0.169 HD
BRANCH   9  11
HETATM   11  C2  UNL     1      25.403  -0.658  53.914  1.00  0.00     0.035 A 
HETATM   12  C3  UNL     1      26.058   0.150  54.822  1.00  0.00     0.031 A 
HETATM   13  C4  UNL     1      27.430   0.286  54.707  1.00  0.00     0.021 A 
HETATM   14  C5  UNL     1      28.188  -0.339  53.739  1.00  0.00     0.011 A 
HETATM   15 BR1  UNL     1      30.085  -0.122  53.620  1.00  0.00    -0.051 Br
HETATM   16  C6  UNL     1      27.473  -1.145  52.846  1.00  0.00     0.021 A 
HETATM   17  C7  UNL     1      26.106  -1.311  52.919  1.00  0.00     0.031 A 
ENDBRANCH   9  11
ENDBRANCH   1   7
BRANCH   4  18
HETATM   18  N2  UNL     1      17.694  -0.098  52.094  1.00  0.00    -0.379 N 
BRANCH  18  19
HETATM   19  C12 UNL     1      17.036   0.567  51.015  1.00  0.00     0.138 C 
BRANCH  19  20
HETATM   20  C13 UNL     1      16.194   1.753  51.481  1.00  0.00     0.134 C 
HETATM   21 CL1  UNL     1      14.528   1.373  50.903  1.00  0.00    -0.129 Cl
ENDBRANCH  19  20
ENDBRANCH  18  19
BRANCH  18  22
HETATM   22  C14 UNL     1      16.771  -0.773  52.974  1.00  0.00     0.138 C 
BRANCH  22  23
HETATM   23  C15 UNL     1      16.543  -2.228  52.571  1.00  0.00     0.134 C 
HETATM   24 CL2  UNL     1      17.376  -3.334  53.653  1.00  0.00    -0.129 Cl
ENDBRANCH  22  23
ENDBRANCH  18  22
ENDBRANCH   4  18
TORSDOF 7
ENDMDL
MODEL 3
REMARK VINA RESULT:      -6.6      0.326      1.035
REMARK  7 active torsions:
REMARK  status: ('A' for Active; 'I' for Inactive)
REMARK       I    between atoms: C1_2  and  N1_3 
REMARK    1  A    between atoms: C1_2  and  C8_11 
REMARK    2  A    between atoms: N1_3  and  C2_4 
REMARK    3  A    between atoms: C11_14  and  N2_15 
REMARK    4  A    between atoms: N2_15  and  C12_16 
REMARK    5  A    between atoms: N2_15  and  C14_19 
REMARK    6  A    between atoms: C12_16  and  C13_17 
REMARK    7  A    between atoms: C14_19  and  C15_20 
ROOT
HETATM    1  C8  UNL     1      21.703  -0.055  52.533  1.00  0.00     0.032 A 
HETATM    2  C9  UNL     1      20.896  -0.505  53.558  1.00  0.00     0.019 A 
HETATM    3  C10 UNL     1      19.525  -0.508  53.419  1.00  0.00     0.030 A 
HETATM    4  C11 UNL     1      18.871  -0.078  52.288  1.00  0.00     0.030 A 
HETATM    5  C16 UNL     1      19.711   0.364  51.290  1.00  0.00     0.030 A 
HETATM    6  C17 UNL     1      21.100   0.384  51.388  1.00  0.00     0.019 A 
ENDROOT
BRANCH   1   7
HETATM    7  C1  UNL     1      23.146  -0.073  52.737  1.00  0.00     0.256 C 
HETATM    8  O1  UNL     1      23.879   0.720  52.097  1.00  0.00    -0.267 OA
HETATM    9  N1  UNL     1      23.798  -0.954  53.638  1.00  0.00    -0.323 N 
HETATM   10  H1  UNL     1      23.269  -1.627  54.196  1.00  0.00     0.169 HD
BRANCH   9  11
HETATM   11  C2  UNL     1      25.222  -0.717  53.602  1.00  0.00     0.035 A 
HETATM   12  C3  UNL     1      26.063  -1.184  52.611  1.00  0.00     0.031 A 
HETATM   13  C4  UNL     1      27.411  -0.884  52.702  1.00  0.00     0.021 A 
HETATM   14  C5  UNL     1      27.969  -0.145  53.725  1.00  0.00     0.011 A 
HETATM   15 BR1  UNL     1      29.839   0.245  53.809  1.00  0.00    -0.051 Br
HETATM   16  C6  UNL     1      27.070   0.301  54.700  1.00  0.00     0.021 A 
HETATM   17  C7  UNL     1      25.720   0.028  54.654  1.00  0.00     0.031 A 
ENDBRANCH   9  11
ENDBRANCH   1   7
BRANCH   4  18
HETATM   18  N2  UNL     1      17.448  -0.058  52.117  1.00  0.00    -0.379 N 
BRANCH  18  19
HETATM   19  C12 UNL     1      16.510  -0.761  52.933  1.00  0.00     0.138 C 
BRANCH  19  20
HETATM   20  C13 UNL     1      16.202  -2.159  52.403  1.00  0.00     0.134 C 
HETATM   21 CL1  UNL     1      17.206  -3.256  53.423  1.00  0.00    -0.129 Cl
ENDBRANCH  19  20
ENDBRANCH  18  19
BRANCH  18  22
HETATM   22  C14 UNL     1      16.811   0.689  51.058  1.00  0.00     0.138 C 
BRANCH  22  23
HETATM   23  C15 UNL     1      16.214   2.003  51.554  1.00  0.00     0.134 C 
HETATM   24 CL2  UNL     1      17.400   3.300  51.528  1.00  0.00    -0.129 Cl
ENDBRANCH  22  23
ENDBRANCH  18  22
ENDBRANCH   4  18
TORSDOF 7
ENDMDL
MODEL 4
REMARK VINA RESULT:      -6.6      7.565      9.803
REMARK  7 active torsions:
REMARK  status: ('A' for Active; 'I' for Inactive)
REMARK       I    between atoms: C1_2  and  N1_3 
REMARK    1  A    between atoms: C1_2  and  C8_11 
REMARK    2  A    between atoms: N1_3  and  C2_4 
REMARK    3  A    between atoms: C11_14  and  N2_15 
REMARK    4  A    between atoms: N2_15  and  C12_16 
REMARK    5  A    between atoms: N2_15  and  C14_19 
REMARK    6  A    between atoms: C12_16  and  C13_17 
REMARK    7  A    between atoms: C14_19  and  C15_20 
ROOT
HETATM    1  C8  UNL     1      25.737   4.197  50.052  1.00  0.00     0.032 A 
HETATM    2  C9  UNL     1      25.307   5.507  50.049  1.00  0.00     0.019 A 
HETATM    3  C10 UNL     1      25.994   6.468  49.340  1.00  0.00     0.030 A 
HETATM    4  C11 UNL     1      27.125   6.208  48.601  1.00  0.00     0.030 A 
HETATM    5  C16 UNL     1      27.522   4.890  48.629  1.00  0.00     0.030 A 
HETATM    6  C17 UNL     1      26.857   3.888  49.333  1.00  0.00     0.019 A 
ENDROOT
BRANCH   1   7
HETATM    7  C1  UNL     1      24.971   3.225  50.823  1.00  0.00     0.256 C 
HETATM    8  O1  UNL     1      24.262   2.374  50.230  1.00  0.00    -0.267 OA
HETATM    9  N1  UNL     1      24.972   3.174  52.240  1.00  0.00    -0.323 N 
HETATM   10  H1  UNL     1      25.526   3.833  52.793  1.00  0.00     0.169 HD
BRANCH   9  11
HETATM   11  C2  UNL     1      24.115   2.102  52.688  1.00  0.00     0.035 A 
HETATM   12  C3  UNL     1      22.735   2.161  52.693  1.00  0.00     0.031 A 
HETATM   13  C4  UNL     1      22.036   1.059  53.152  1.00  0.00     0.021 A 
HETATM   14  C5  UNL     1      22.632  -0.099  53.606  1.00  0.00     0.011 A 
HETATM   15 BR1  UNL     1      21.623  -1.599  54.231  1.00  0.00    -0.051 Br
HETATM   16  C6  UNL     1      24.032  -0.102  53.578  1.00  0.00     0.021 A 
HETATM   17  C7  UNL     1      24.773   0.971  53.131  1.00  0.00     0.031 A 
ENDBRANCH   9  11
ENDBRANCH   1   7
BRANCH   4  18
HETATM   18  N2  UNL     1      27.868   7.186  47.861  1.00  0.00    -0.379 N 
BRANCH  18  19
HETATM   19  C12 UNL     1      29.190   7.003  47.352  1.00  0.00     0.138 C 
BRANCH  19  20
HETATM   20  C13 UNL     1      30.230   6.849  48.460  1.00  0.00     0.134 C 
HETATM   21 CL1  UNL     1      31.103   5.326  48.045  1.00  0.00    -0.129 Cl
ENDBRANCH  19  20
ENDBRANCH  18  19
BRANCH  18  22
HETATM   22  C14 UNL     1      27.335   8.494  47.564  1.00  0.00     0.138 C 
BRANCH  22  23
HETATM   23  C15 UNL     1      28.053   9.601  48.332  1.00  0.00     0.134 C 
HETATM   24 CL2  UNL     1      27.874   9.401  50.069  1.00  0.00    -0.129 Cl
ENDBRANCH  22  23
ENDBRANCH  18  22
ENDBRANCH   4  18
TORSDOF 7
ENDMDL
MODEL 5
REMARK VINA RESULT:      -6.5      7.685     10.115
REMARK  7 active torsions:
REMARK  status: ('A' for Active; 'I' for Inactive)
REMARK       I    between atoms: C1_2  and  N1_3 
REMARK    1  A    between atoms: C1_2  and  C8_11 
REMARK    2  A    between atoms: N1_3  and  C2_4 
REMARK    3  A    between atoms: C11_14  and  N2_15 
REMARK    4  A    between atoms: N2_15  and  C12_16 
REMARK    5  A    between atoms: N2_15  and  C14_19 
REMARK    6  A    between atoms: C12_16  and  C13_17 
REMARK    7  A    between atoms: C14_19  and  C15_20 
ROOT
HETATM    1  C8  UNL     1      25.716   4.343  50.072  1.00  0.00     0.032 A 
HETATM    2  C9  UNL     1      26.827   3.921  49.371  1.00  0.00     0.019 A 
HETATM    3  C10 UNL     1      27.578   4.818  48.643  1.00  0.00     0.030 A 
HETATM    4  C11 UNL     1      27.293   6.161  48.559  1.00  0.00     0.030 A 
HETATM    5  C16 UNL     1      26.177   6.542  49.271  1.00  0.00     0.030 A 
HETATM    6  C17 UNL     1      25.391   5.669  50.019  1.00  0.00     0.019 A 
ENDROOT
BRANCH   1   7
HETATM    7  C1  UNL     1      24.959   3.348  50.822  1.00  0.00     0.256 C 
HETATM    8  O1  UNL     1      24.172   2.576  50.221  1.00  0.00    -0.267 OA
HETATM    9  N1  UNL     1      25.053   3.190  52.228  1.00  0.00    -0.323 N 
HETATM   10  H1  UNL     1      25.674   3.780  52.787  1.00  0.00     0.169 HD
BRANCH   9  11
HETATM   11  C2  UNL     1      24.178   2.125  52.656  1.00  0.00     0.035 A 
HETATM   12  C3  UNL     1      22.799   2.204  52.656  1.00  0.00     0.031 A 
HETATM   13  C4  UNL     1      22.081   1.106  53.095  1.00  0.00     0.021 A 
HETATM   14  C5  UNL     1      22.658  -0.068  53.535  1.00  0.00     0.011 A 
HETATM   15 BR1  UNL     1      21.623  -1.561  54.133  1.00  0.00    -0.051 Br
HETATM   16  C6  UNL     1      24.057  -0.091  53.513  1.00  0.00     0.021 A 
HETATM   17  C7  UNL     1      24.817   0.977  53.085  1.00  0.00     0.031 A 
ENDBRANCH   9  11
ENDBRANCH   1   7
BRANCH   4  18
HETATM   18  N2  UNL     1      28.047   7.118  47.803  1.00  0.00    -0.379 N 
BRANCH  18  19
HETATM   19  C12 UNL     1      27.554   8.378  47.345  1.00  0.00     0.138 C 
BRANCH  19  20
HETATM   20  C13 UNL     1      28.381   9.554  47.860  1.00  0.00     0.134 C 
HETATM   21 CL1  UNL     1      28.173   9.499  49.650  1.00  0.00    -0.129 Cl
ENDBRANCH  19  20
ENDBRANCH  18  19
BRANCH  18  22
HETATM   22  C14 UNL     1      29.415   6.881  47.411  1.00  0.00     0.138 C 
BRANCH  22  23
HETATM   23  C15 UNL     1      30.344   6.722  48.612  1.00  0.00     0.134 C 
HETATM   24 CL2  UNL     1      31.543   8.005  48.674  1.00  0.00    -0.129 Cl
ENDBRANCH  22  23
ENDBRANCH  18  22
ENDBRANCH   4  18
TORSDOF 7
ENDMDL
MODEL 6
REMARK VINA RESULT:      -6.4      8.326      9.464
REMARK  7 active torsions:
REMARK  status: ('A' for Active; 'I' for Inactive)
REMARK       I    between atoms: C1_2  and  N1_3 
REMARK    1  A    between atoms: C1_2  and  C8_11 
REMARK    2  A    between atoms: N1_3  and  C2_4 
REMARK    3  A    between atoms: C11_14  and  N2_15 
REMARK    4  A    between atoms: N2_15  and  C12_16 
REMARK    5  A    between atoms: N2_15  and  C14_19 
REMARK    6  A    between atoms: C12_16  and  C13_17 
REMARK    7  A    between atoms: C14_19  and  C15_20 
ROOT
HETATM    1  C8  UNL     1      27.014   5.733  48.683  1.00  0.00     0.032 A 
HETATM    2  C9  UNL     1      27.248   4.422  49.042  1.00  0.00     0.019 A 
HETATM    3  C10 UNL     1      26.205   3.600  49.411  1.00  0.00     0.030 A 
HETATM    4  C11 UNL     1      24.891   4.005  49.448  1.00  0.00     0.030 A 
HETATM    5  C16 UNL     1      24.699   5.319  49.084  1.00  0.00     0.030 A 
HETATM    6  C17 UNL     1      25.724   6.183  48.706  1.00  0.00     0.019 A 
ENDROOT
BRANCH   1   7
HETATM    7  C1  UNL     1      28.156   6.556  48.305  1.00  0.00     0.256 C 
HETATM    8  O1  UNL     1      28.032   7.426  47.408  1.00  0.00    -0.267 OA
HETATM    9  N1  UNL     1      29.438   6.436  48.900  1.00  0.00    -0.323 N 
HETATM   10  H1  UNL     1      29.617   5.751  49.638  1.00  0.00     0.169 HD
BRANCH   9  11
HETATM   11  C2  UNL     1      30.341   7.390  48.302  1.00  0.00     0.035 A 
HETATM   12  C3  UNL     1      31.025   7.180  47.121  1.00  0.00     0.031 A 
HETATM   13  C4  UNL     1      31.863   8.182  46.663  1.00  0.00     0.021 A 
HETATM   14  C5  UNL     1      32.057   9.383  47.314  1.00  0.00     0.011 A 
HETATM   15 BR1  UNL     1      33.225  10.740  46.641  1.00  0.00    -0.051 Br
HETATM   16  C6  UNL     1      31.339   9.540  48.505  1.00  0.00     0.021 A 
HETATM   17  C7  UNL     1      30.494   8.572  49.003  1.00  0.00     0.031 A 
ENDBRANCH   9  11
ENDBRANCH   1   7
BRANCH   4  18
HETATM   18  N2  UNL     1      23.786   3.178  49.837  1.00  0.00    -0.379 N 
BRANCH  18  19
HETATM   19  C12 UNL     1      22.501   3.175  49.212  1.00  0.00     0.138 C 
BRANCH  19  20
HETATM   20  C13 UNL     1      22.391   2.130  48.103  1.00  0.00     0.134 C 
HETATM   21 CL1  UNL     1      21.344   0.841  48.805  1.00  0.00    -0.129 Cl
ENDBRANCH  19  20
ENDBRANCH  18  19
BRANCH  18  22
HETATM   22  C14 UNL     1      23.868   2.253  50.941  1.00  0.00     0.138 C 
BRANCH  22  23
HETATM   23  C15 UNL     1      23.038   2.704  52.140  1.00  0.00     0.134 C 
HETATM   24 CL2  UNL     1      23.648   4.207  52.816  1.00  0.00    -0.129 Cl
ENDBRANCH  22  23
ENDBRANCH  18  22
ENDBRANCH   4  18
TORSDOF 7
ENDMDL
MODEL 7
REMARK VINA RESULT:      -6.3      7.868     10.141
REMARK  7 active torsions:
REMARK  status: ('A' for Active; 'I' for Inactive)
REMARK       I    between atoms: C1_2  and  N1_3 
REMARK    1  A    between atoms: C1_2  and  C8_11 
REMARK    2  A    between atoms: N1_3  and  C2_4 
REMARK    3  A    between atoms: C11_14  and  N2_15 
REMARK    4  A    between atoms: N2_15  and  C12_16 
REMARK    5  A    between atoms: N2_15  and  C14_19 
REMARK    6  A    between atoms: C12_16  and  C13_17 
REMARK    7  A    between atoms: C14_19  and  C15_20 
ROOT
HETATM    1  C8  UNL     1      25.854   4.279  49.971  1.00  0.00     0.032 A 
HETATM    2  C9  UNL     1      25.349   5.562  49.988  1.00  0.00     0.019 A 
HETATM    3  C10 UNL     1      25.972   6.569  49.282  1.00  0.00     0.030 A 
HETATM    4  C11 UNL     1      27.108   6.383  48.530  1.00  0.00     0.030 A 
HETATM    5  C16 UNL     1      27.581   5.090  48.539  1.00  0.00     0.030 A 
HETATM    6  C17 UNL     1      26.983   4.044  49.238  1.00  0.00     0.019 A 
ENDROOT
BRANCH   1   7
HETATM    7  C1  UNL     1      25.155   3.256  50.738  1.00  0.00     0.256 C 
HETATM    8  O1  UNL     1      24.341   2.490  50.165  1.00  0.00    -0.267 OA
HETATM    9  N1  UNL     1      25.336   3.061  52.132  1.00  0.00    -0.323 N 
HETATM   10  H1  UNL     1      25.983   3.644  52.667  1.00  0.00     0.169 HD
BRANCH   9  11
HETATM   11  C2  UNL     1      24.500   1.974  52.583  1.00  0.00     0.035 A 
HETATM   12  C3  UNL     1      24.962   0.707  52.875  1.00  0.00     0.031 A 
HETATM   13  C4  UNL     1      24.047  -0.242  53.296  1.00  0.00     0.021 A 
HETATM   14  C5  UNL     1      22.697   0.000  53.443  1.00  0.00     0.011 A 
HETATM   15 BR1  UNL     1      21.469  -1.344  54.029  1.00  0.00    -0.051 Br
HETATM   16  C6  UNL     1      22.285   1.301  53.132  1.00  0.00     0.021 A 
HETATM   17  C7  UNL     1      23.158   2.281  52.709  1.00  0.00     0.031 A 
ENDBRANCH   9  11
ENDBRANCH   1   7
BRANCH   4  18
HETATM   18  N2  UNL     1      27.785   7.411  47.794  1.00  0.00    -0.379 N 
BRANCH  18  19
HETATM   19  C12 UNL     1      27.193   8.225  46.781  1.00  0.00     0.138 C 
BRANCH  19  20
HETATM   20  C13 UNL     1      28.104   8.412  45.570  1.00  0.00     0.134 C 
HETATM   21 CL1  UNL     1      26.972   8.516  44.170  1.00  0.00    -0.129 Cl
ENDBRANCH  19  20
ENDBRANCH  18  19
BRANCH  18  22
HETATM   22  C14 UNL     1      29.179   7.717  48.006  1.00  0.00     0.138 C 
BRANCH  22  23
HETATM   23  C15 UNL     1      29.378   8.841  49.020  1.00  0.00     0.134 C 
HETATM   24 CL2  UNL     1      30.321  10.161  48.342  1.00  0.00    -0.129 Cl
ENDBRANCH  22  23
ENDBRANCH  18  22
ENDBRANCH   4  18
TORSDOF 7
ENDMDL
MODEL 8
REMARK VINA RESULT:      -6.3      8.533     10.926
REMARK  7 active torsions:
REMARK  status: ('A' for Active; 'I' for Inactive)
REMARK       I    between atoms: C1_2  and  N1_3 
REMARK    1  A    between atoms: C1_2  and  C8_11 
REMARK    2  A    between atoms: N1_3  and  C2_4 
REMARK    3  A    between atoms: C11_14  and  N2_15 
REMARK    4  A    between atoms: N2_15  and  C12_16 
REMARK    5  A    between atoms: N2_15  and  C14_19 
REMARK    6  A    between atoms: C12_16  and  C13_17 
REMARK    7  A    between atoms: C14_19  and  C15_20 
ROOT
HETATM    1  C8  UNL     1      26.758   5.256  49.190  1.00  0.00     0.032 A 
HETATM    2  C9  UNL     1      26.327   6.566  49.203  1.00  0.00     0.019 A 
HETATM    3  C10 UNL     1      27.079   7.557  48.609  1.00  0.00     0.030 A 
HETATM    4  C11 UNL     1      28.278   7.328  47.976  1.00  0.00     0.030 A 
HETATM    5  C16 UNL     1      28.674   6.010  47.985  1.00  0.00     0.030 A 
HETATM    6  C17 UNL     1      27.945   4.978  48.573  1.00  0.00     0.019 A 
ENDROOT
BRANCH   1   7
HETATM    7  C1  UNL     1      25.923   4.251  49.836  1.00  0.00     0.256 C 
HETATM    8  O1  UNL     1      26.109   3.033  49.596  1.00  0.00    -0.267 OA
HETATM    9  N1  UNL     1      24.881   4.567  50.745  1.00  0.00    -0.323 N 
HETATM   10  H1  UNL     1      24.670   5.537  50.992  1.00  0.00     0.169 HD
BRANCH   9  11
HETATM   11  C2  UNL     1      24.250   3.351  51.201  1.00  0.00     0.035 A 
HETATM   12  C3  UNL     1      23.296   2.655  50.486  1.00  0.00     0.031 A 
HETATM   13  C4  UNL     1      22.772   1.502  51.045  1.00  0.00     0.021 A 
HETATM   14  C5  UNL     1      23.145   1.003  52.275  1.00  0.00     0.011 A 
HETATM   15 BR1  UNL     1      22.392  -0.596  53.008  1.00  0.00    -0.051 Br
HETATM   16  C6  UNL     1      24.114   1.750  52.955  1.00  0.00     0.021 A 
HETATM   17  C7  UNL     1      24.666   2.904  52.441  1.00  0.00     0.031 A 
ENDBRANCH   9  11
ENDBRANCH   1   7
BRANCH   4  18
HETATM   18  N2  UNL     1      29.088   8.337  47.358  1.00  0.00    -0.379 N 
BRANCH  18  19
HETATM   19  C12 UNL     1      30.467   8.576  47.646  1.00  0.00     0.138 C 
BRANCH  19  20
HETATM   20  C13 UNL     1      30.715   8.881  49.122  1.00  0.00     0.134 C 
HETATM   21 CL1  UNL     1      31.712   7.496  49.704  1.00  0.00    -0.129 Cl
ENDBRANCH  19  20
ENDBRANCH  18  19
BRANCH  18  22
HETATM   22  C14 UNL     1      28.564   9.243  46.365  1.00  0.00     0.138 C 
BRANCH  22  23
HETATM   23  C15 UNL     1      28.097   8.517  45.106  1.00  0.00     0.134 C 
HETATM   24 CL2  UNL     1      26.344   8.495  44.988  1.00  0.00    -0.129 Cl
ENDBRANCH  22  23
ENDBRANCH  18  22
ENDBRANCH   4  18
TORSDOF 7
ENDMDL
MODEL 9
REMARK VINA RESULT:      -6.3      8.214      9.546
REMARK  7 active torsions:
REMARK  status: ('A' for Active; 'I' for Inactive)
REMARK       I    between atoms: C1_2  and  N1_3 
REMARK    1  A    between atoms: C1_2  and  C8_11 
REMARK    2  A    between atoms: N1_3  and  C2_4 
REMARK    3  A    between atoms: C11_14  and  N2_15 
REMARK    4  A    between atoms: N2_15  and  C12_16 
REMARK    5  A    between atoms: N2_15  and  C14_19 
REMARK    6  A    between atoms: C12_16  and  C13_17 
REMARK    7  A    between atoms: C14_19  and  C15_20 
ROOT
HETATM    1  C8  UNL     1      27.285   5.741  48.605  1.00  0.00     0.032 A 
HETATM    2  C9  UNL     1      27.181   4.446  49.068  1.00  0.00     0.019 A 
HETATM    3  C10 UNL     1      25.955   3.926  49.424  1.00  0.00     0.030 A 
HETATM    4  C11 UNL     1      24.777   4.630  49.348  1.00  0.00     0.030 A 
HETATM    5  C16 UNL     1      24.922   5.918  48.882  1.00  0.00     0.030 A 
HETATM    6  C17 UNL     1      26.141   6.482  48.512  1.00  0.00     0.019 A 
ENDROOT
BRANCH   1   7
HETATM    7  C1  UNL     1      28.608   6.238  48.247  1.00  0.00     0.256 C 
HETATM    8  O1  UNL     1      28.750   6.964  47.232  1.00  0.00    -0.267 OA
HETATM    9  N1  UNL     1      29.781   5.948  48.990  1.00  0.00    -0.323 N 
HETATM   10  H1  UNL     1      29.745   5.366  49.829  1.00  0.00     0.169 HD
BRANCH   9  11
HETATM   11  C2  UNL     1      30.917   6.588  48.371  1.00  0.00     0.035 A 
HETATM   12  C3  UNL     1      31.619   6.064  47.304  1.00  0.00     0.031 A 
HETATM   13  C4  UNL     1      32.692   6.783  46.809  1.00  0.00     0.021 A 
HETATM   14  C5  UNL     1      33.106   7.997  47.317  1.00  0.00     0.011 A 
HETATM   15 BR1  UNL     1      34.597   8.957  46.600  1.00  0.00    -0.051 Br
HETATM   16  C6  UNL     1      32.359   8.480  48.398  1.00  0.00     0.021 A 
HETATM   17  C7  UNL     1      31.283   7.800  48.926  1.00  0.00     0.031 A 
ENDBRANCH   9  11
ENDBRANCH   1   7
BRANCH   4  18
HETATM   18  N2  UNL     1      23.488   4.122  49.719  1.00  0.00    -0.379 N 
BRANCH  18  19
HETATM   19  C12 UNL     1      22.287   4.892  49.784  1.00  0.00     0.138 C 
BRANCH  19  20
HETATM   20  C13 UNL     1      22.046   5.490  51.168  1.00  0.00     0.134 C 
HETATM   21 CL1  UNL     1      21.732   7.238  50.853  1.00  0.00    -0.129 Cl
ENDBRANCH  19  20
ENDBRANCH  18  19
BRANCH  18  22
HETATM   22  C14 UNL     1      23.283   2.742  50.087  1.00  0.00     0.138 C 
BRANCH  22  23
HETATM   23  C15 UNL     1      22.195   2.074  49.250  1.00  0.00     0.134 C 
HETATM   24 CL2  UNL     1      22.632   2.021  47.549  1.00  0.00    -0.129 Cl
ENDBRANCH  22  23
ENDBRANCH  18  22
ENDBRANCH   4  18
TORSDOF 7
ENDMDL
