MODEL 1
REMARK VINA RESULT:      -8.8      0.000      0.000
REMARK  4 active torsions:
REMARK  status: ('A' for Active; 'I' for Inactive)
REMARK    1  A    between atoms: C4_5  and  C5_6 
REMARK    2  A    between atoms: C5_6  and  N1_7 
REMARK    3  A    between atoms: C10_12  and  N2_13 
REMARK    4  A    between atoms: N2_13  and  C11_14 
ROOT
HETATM    1  N1  UNL     1      25.011   2.540  51.734  1.00  0.00    -0.353 N 
HETATM    2  C6  UNL     1      23.621   2.258  51.466  1.00  0.00     0.089 C 
HETATM    3  C7  UNL     1      23.288   2.890  50.324  1.00  0.00     0.028 C 
HETATM    4  C8  UNL     1      24.481   3.609  49.819  1.00  0.00    -0.005 C 
HETATM    5  C9  UNL     1      25.008   4.607  49.084  1.00  0.00     0.040 C 
HETATM    6  C10 UNL     1      26.510   4.514  49.197  1.00  0.00     0.347 C 
HETATM    7  N3  UNL     1      26.653   3.780  50.451  1.00  0.00     0.137 N 
HETATM    8  C17 UNL     1      25.589   2.801  50.456  1.00  0.00     0.358 C 
HETATM    9  H14 UNL     1      26.526   4.399  51.262  1.00  0.00     0.322 HD
ENDROOT
BRANCH   1  10
HETATM   10  C5  UNL     1      25.547   2.521  53.078  1.00  0.00     0.163 C 
BRANCH  10  11
HETATM   11  C4  UNL     1      26.647   1.533  53.219  1.00  0.00    -0.039 A 
HETATM   12  C3  UNL     1      27.887   1.917  53.665  1.00  0.00     0.010 A 
HETATM   13  C2  UNL     1      28.954   1.038  53.818  1.00  0.00     0.026 A 
HETATM   14  C1  UNL     1      28.778  -0.285  53.513  1.00  0.00     0.055 A 
HETATM   15 CL1  UNL     1      30.134  -1.385  53.710  1.00  0.00    -0.083 Cl
HETATM   16  C19 UNL     1      27.539  -0.700  53.061  1.00  0.00     0.056 A 
HETATM   17  C18 UNL     1      26.492   0.203  52.920  1.00  0.00     0.034 A 
HETATM   18 CL2  UNL     1      27.347  -2.399  52.680  1.00  0.00    -0.083 Cl
ENDBRANCH  10  11
ENDBRANCH   1  10
BRANCH   6  19
HETATM   19  N2  UNL     1      26.983   5.872  49.356  1.00  0.00    -0.357 N 
HETATM   20  H9  UNL     1      26.690   6.401  50.206  1.00  0.00     0.162 HD
BRANCH  19  21
HETATM   21  C11 UNL     1      27.825   6.530  48.423  1.00  0.00     0.031 A 
HETATM   22  C12 UNL     1      27.430   7.581  47.626  1.00  0.00     0.029 A 
HETATM   23  C13 UNL     1      28.251   8.222  46.723  1.00  0.00     0.004 A 
HETATM   24  C14 UNL     1      29.551   7.807  46.588  1.00  0.00     0.019 A 
HETATM   25  C15 UNL     1      29.998   6.758  47.361  1.00  0.00     0.013 A 
HETATM   26 BR1  UNL     1      31.793   6.180  47.179  1.00  0.00    -0.051 Br
HETATM   27  C16 UNL     1      29.130   6.156  48.247  1.00  0.00     0.048 A 
ENDBRANCH  19  21
ENDBRANCH   6  19
TORSDOF 4
ENDMDL
MODEL 2
REMARK VINA RESULT:      -8.6      4.240      7.395
REMARK  4 active torsions:
REMARK  status: ('A' for Active; 'I' for Inactive)
REMARK    1  A    between atoms: C4_5  and  C5_6 
REMARK    2  A    between atoms: C5_6  and  N1_7 
REMARK    3  A    between atoms: C10_12  and  N2_13 
REMARK    4  A    between atoms: N2_13  and  C11_14 
ROOT
HETATM    1  N1  UNL     1      24.313   3.451  51.573  1.00  0.00    -0.353 N 
HETATM    2  C6  UNL     1      25.388   3.791  50.670  1.00  0.00     0.089 C 
HETATM    3  C7  UNL     1      24.960   3.550  49.416  1.00  0.00     0.028 C 
HETATM    4  C8  UNL     1      23.572   3.039  49.482  1.00  0.00    -0.005 C 
HETATM    5  C9  UNL     1      22.570   2.329  48.927  1.00  0.00     0.040 C 
HETATM    6  C10 UNL     1      21.389   2.395  49.865  1.00  0.00     0.347 C 
HETATM    7  N3  UNL     1      22.051   2.696  51.131  1.00  0.00     0.137 N 
HETATM    8  C17 UNL     1      23.121   3.613  50.806  1.00  0.00     0.358 C 
HETATM    9  H14 UNL     1      22.466   1.851  51.545  1.00  0.00     0.322 HD
ENDROOT
BRANCH   1  10
HETATM   10  C5  UNL     1      24.564   3.049  52.939  1.00  0.00     0.163 C 
BRANCH  10  11
HETATM   11  C4  UNL     1      25.568   1.957  53.019  1.00  0.00    -0.039 A 
HETATM   12  C3  UNL     1      25.313   0.724  52.474  1.00  0.00     0.010 A 
HETATM   13  C2  UNL     1      26.214  -0.336  52.517  1.00  0.00     0.026 A 
HETATM   14  C1  UNL     1      27.425  -0.158  53.132  1.00  0.00     0.055 A 
HETATM   15 CL1  UNL     1      28.553  -1.503  53.180  1.00  0.00    -0.083 Cl
HETATM   16  C19 UNL     1      27.708   1.076  53.689  1.00  0.00     0.056 A 
HETATM   17  C18 UNL     1      26.787   2.115  53.629  1.00  0.00     0.034 A 
HETATM   18 CL2  UNL     1      29.266   1.270  54.467  1.00  0.00    -0.083 Cl
ENDBRANCH  10  11
ENDBRANCH   1  10
BRANCH   6  19
HETATM   19  N2  UNL     1      20.830   1.061  49.898  1.00  0.00    -0.357 N 
HETATM   20  H9  UNL     1      20.811   0.512  49.011  1.00  0.00     0.162 HD
BRANCH  19  21
HETATM   21  C11 UNL     1      20.306   0.453  51.067  1.00  0.00     0.031 A 
HETATM   22  C12 UNL     1      18.969   0.205  51.282  1.00  0.00     0.029 A 
HETATM   23  C13 UNL     1      18.463  -0.391  52.417  1.00  0.00     0.004 A 
HETATM   24  C14 UNL     1      19.323  -0.771  53.415  1.00  0.00     0.019 A 
HETATM   25  C15 UNL     1      20.672  -0.546  53.252  1.00  0.00     0.013 A 
HETATM   26 BR1  UNL     1      21.866  -1.069  54.627  1.00  0.00    -0.051 Br
HETATM   27  C16 UNL     1      21.120   0.054  52.094  1.00  0.00     0.048 A 
ENDBRANCH  19  21
ENDBRANCH   6  19
TORSDOF 4
ENDMDL
MODEL 3
REMARK VINA RESULT:      -8.5      1.596      2.152
REMARK  4 active torsions:
REMARK  status: ('A' for Active; 'I' for Inactive)
REMARK    1  A    between atoms: C4_5  and  C5_6 
REMARK    2  A    between atoms: C5_6  and  N1_7 
REMARK    3  A    between atoms: C10_12  and  N2_13 
REMARK    4  A    between atoms: N2_13  and  C11_14 
ROOT
HETATM    1  N1  UNL     1      24.483   2.666  51.016  1.00  0.00    -0.353 N 
HETATM    2  C6  UNL     1      23.302   2.264  50.288  1.00  0.00     0.089 C 
HETATM    3  C7  UNL     1      23.161   3.102  49.243  1.00  0.00     0.028 C 
HETATM    4  C8  UNL     1      24.269   4.084  49.274  1.00  0.00    -0.005 C 
HETATM    5  C9  UNL     1      24.754   5.296  48.942  1.00  0.00     0.040 C 
HETATM    6  C10 UNL     1      26.159   5.393  49.487  1.00  0.00     0.347 C 
HETATM    7  N3  UNL     1      26.113   4.402  50.559  1.00  0.00     0.137 N 
HETATM    8  C17 UNL     1      25.311   3.311  50.050  1.00  0.00     0.358 C 
HETATM    9  H14 UNL     1      25.650   4.779  51.396  1.00  0.00     0.322 HD
ENDROOT
BRANCH   1  10
HETATM   10  C5  UNL     1      24.635   2.394  52.429  1.00  0.00     0.163 C 
BRANCH  10  11
HETATM   11  C4  UNL     1      25.831   1.558  52.705  1.00  0.00    -0.039 A 
HETATM   12  C3  UNL     1      25.899   0.259  52.271  1.00  0.00     0.010 A 
HETATM   13  C2  UNL     1      26.992  -0.572  52.499  1.00  0.00     0.026 A 
HETATM   14  C1  UNL     1      28.068  -0.084  53.191  1.00  0.00     0.055 A 
HETATM   15 CL1  UNL     1      29.441  -1.141  53.473  1.00  0.00    -0.083 Cl
HETATM   16  C19 UNL     1      28.026   1.223  53.641  1.00  0.00     0.056 A 
HETATM   17  C18 UNL     1      26.920   2.028  53.396  1.00  0.00     0.034 A 
HETATM   18 CL2  UNL     1      29.419   1.817  54.523  1.00  0.00    -0.083 Cl
ENDBRANCH  10  11
ENDBRANCH   1  10
BRANCH   6  19
HETATM   19  N2  UNL     1      26.281   6.723  50.041  1.00  0.00    -0.357 N 
HETATM   20  H9  UNL     1      25.844   6.914  50.969  1.00  0.00     0.162 HD
BRANCH  19  21
HETATM   21  C11 UNL     1      26.963   7.787  49.398  1.00  0.00     0.031 A 
HETATM   22  C12 UNL     1      27.074   9.061  49.908  1.00  0.00     0.029 A 
HETATM   23  C13 UNL     1      27.742  10.092  49.283  1.00  0.00     0.004 A 
HETATM   24  C14 UNL     1      28.343   9.864  48.072  1.00  0.00     0.019 A 
HETATM   25  C15 UNL     1      28.262   8.607  47.515  1.00  0.00     0.013 A 
HETATM   26 BR1  UNL     1      29.092   8.285  45.842  1.00  0.00    -0.051 Br
HETATM   27  C16 UNL     1      27.581   7.615  48.188  1.00  0.00     0.048 A 
ENDBRANCH  19  21
ENDBRANCH   6  19
TORSDOF 4
ENDMDL
MODEL 4
REMARK VINA RESULT:      -8.5      4.051      7.366
REMARK  4 active torsions:
REMARK  status: ('A' for Active; 'I' for Inactive)
REMARK    1  A    between atoms: C4_5  and  C5_6 
REMARK    2  A    between atoms: C5_6  and  N1_7 
REMARK    3  A    between atoms: C10_12  and  N2_13 
REMARK    4  A    between atoms: N2_13  and  C11_14 
ROOT
HETATM    1  N1  UNL     1      22.495   1.781  51.152  1.00  0.00    -0.353 N 
HETATM    2  C6  UNL     1      21.102   1.507  51.419  1.00  0.00     0.089 C 
HETATM    3  C7  UNL     1      21.047   0.641  52.449  1.00  0.00     0.028 C 
HETATM    4  C8  UNL     1      22.430   0.331  52.878  1.00  0.00    -0.005 C 
HETATM    5  C9  UNL     1      23.298  -0.509  53.476  1.00  0.00     0.040 C 
HETATM    6  C10 UNL     1      24.665   0.129  53.419  1.00  0.00     0.347 C 
HETATM    7  N3  UNL     1      24.504   1.039  52.288  1.00  0.00     0.137 N 
HETATM    8  C17 UNL     1      23.160   1.563  52.394  1.00  0.00     0.358 C 
HETATM    9  H14 UNL     1      24.585   0.539  51.393  1.00  0.00     0.322 HD
ENDROOT
BRANCH   1  10
HETATM   10  C5  UNL     1      22.953   2.184  49.840  1.00  0.00     0.163 C 
BRANCH  10  11
HETATM   11  C4  UNL     1      23.756   3.433  49.894  1.00  0.00    -0.039 A 
HETATM   12  C3  UNL     1      23.249   4.573  50.464  1.00  0.00     0.010 A 
HETATM   13  C2  UNL     1      23.953   5.771  50.544  1.00  0.00     0.026 A 
HETATM   14  C1  UNL     1      25.222   5.834  50.032  1.00  0.00     0.055 A 
HETATM   15 CL1  UNL     1      26.101   7.351  50.138  1.00  0.00    -0.083 Cl
HETATM   16  C19 UNL     1      25.758   4.699  49.452  1.00  0.00     0.056 A 
HETATM   17  C18 UNL     1      25.029   3.517  49.388  1.00  0.00     0.034 A 
HETATM   18 CL2  UNL     1      27.383   4.814  48.807  1.00  0.00    -0.083 Cl
ENDBRANCH  10  11
ENDBRANCH   1  10
BRANCH   6  19
HETATM   19  N2  UNL     1      25.587  -0.932  53.080  1.00  0.00    -0.357 N 
HETATM   20  H9  UNL     1      25.199  -1.816  52.684  1.00  0.00     0.162 HD
BRANCH  19  21
HETATM   21  C11 UNL     1      26.992  -0.843  53.252  1.00  0.00     0.031 A 
HETATM   22  C12 UNL     1      27.872  -1.874  53.012  1.00  0.00     0.029 A 
HETATM   23  C13 UNL     1      29.238  -1.783  53.176  1.00  0.00     0.004 A 
HETATM   24  C14 UNL     1      29.784  -0.601  53.607  1.00  0.00     0.019 A 
HETATM   25  C15 UNL     1      28.948   0.463  53.863  1.00  0.00     0.013 A 
HETATM   26 BR1  UNL     1      29.697   2.099  54.458  1.00  0.00    -0.051 Br
HETATM   27  C16 UNL     1      27.590   0.312  53.680  1.00  0.00     0.048 A 
ENDBRANCH  19  21
ENDBRANCH   6  19
TORSDOF 4
ENDMDL
MODEL 5
REMARK VINA RESULT:      -8.3      1.688      2.252
REMARK  4 active torsions:
REMARK  status: ('A' for Active; 'I' for Inactive)
REMARK    1  A    between atoms: C4_5  and  C5_6 
REMARK    2  A    between atoms: C5_6  and  N1_7 
REMARK    3  A    between atoms: C10_12  and  N2_13 
REMARK    4  A    between atoms: N2_13  and  C11_14 
ROOT
HETATM    1  N1  UNL     1      23.230   2.796  51.282  1.00  0.00    -0.353 N 
HETATM    2  C6  UNL     1      22.545   3.525  52.324  1.00  0.00     0.089 C 
HETATM    3  C7  UNL     1      22.955   4.807  52.263  1.00  0.00     0.028 C 
HETATM    4  C8  UNL     1      23.935   4.936  51.160  1.00  0.00    -0.005 C 
HETATM    5  C9  UNL     1      24.974   5.587  50.602  1.00  0.00     0.040 C 
HETATM    6  C10 UNL     1      25.319   4.880  49.314  1.00  0.00     0.347 C 
HETATM    7  N3  UNL     1      24.767   3.552  49.565  1.00  0.00     0.137 N 
HETATM    8  C17 UNL     1      23.532   3.771  50.285  1.00  0.00     0.358 C 
HETATM    9  H14 UNL     1      25.392   2.995  50.162  1.00  0.00     0.322 HD
ENDROOT
BRANCH   1  10
HETATM   10  C5  UNL     1      23.479   1.375  51.386  1.00  0.00     0.163 C 
BRANCH  10  11
HETATM   11  C4  UNL     1      24.616   1.078  52.294  1.00  0.00    -0.039 A 
HETATM   12  C3  UNL     1      24.572   0.010  53.154  1.00  0.00     0.010 A 
HETATM   13  C2  UNL     1      25.605  -0.318  54.026  1.00  0.00     0.026 A 
HETATM   14  C1  UNL     1      26.736   0.455  54.041  1.00  0.00     0.055 A 
HETATM   15 CL1  UNL     1      28.034   0.032  55.147  1.00  0.00    -0.083 Cl
HETATM   16  C19 UNL     1      26.807   1.538  53.184  1.00  0.00     0.056 A 
HETATM   17  C18 UNL     1      25.758   1.839  52.324  1.00  0.00     0.034 A 
HETATM   18 CL2  UNL     1      28.268   2.506  53.229  1.00  0.00    -0.083 Cl
ENDBRANCH  10  11
ENDBRANCH   1  10
BRANCH   6  19
HETATM   19  N2  UNL     1      26.763   4.820  49.266  1.00  0.00    -0.357 N 
HETATM   20  H9  UNL     1      27.244   4.067  49.805  1.00  0.00     0.162 HD
BRANCH  19  21
HETATM   21  C11 UNL     1      27.568   5.725  48.529  1.00  0.00     0.031 A 
HETATM   22  C12 UNL     1      27.111   6.901  47.979  1.00  0.00     0.029 A 
HETATM   23  C13 UNL     1      27.897   7.783  47.267  1.00  0.00     0.004 A 
HETATM   24  C14 UNL     1      29.224   7.494  47.076  1.00  0.00     0.019 A 
HETATM   25  C15 UNL     1      29.733   6.328  47.604  1.00  0.00     0.013 A 
HETATM   26 BR1  UNL     1      31.566   5.924  47.345  1.00  0.00    -0.051 Br
HETATM   27  C16 UNL     1      28.898   5.486  48.308  1.00  0.00     0.048 A 
ENDBRANCH  19  21
ENDBRANCH   6  19
TORSDOF 4
ENDMDL
MODEL 6
REMARK VINA RESULT:      -8.2      4.271      7.667
REMARK  4 active torsions:
REMARK  status: ('A' for Active; 'I' for Inactive)
REMARK    1  A    between atoms: C4_5  and  C5_6 
REMARK    2  A    between atoms: C5_6  and  N1_7 
REMARK    3  A    between atoms: C10_12  and  N2_13 
REMARK    4  A    between atoms: N2_13  and  C11_14 
ROOT
HETATM    1  N1  UNL     1      24.096   6.389  49.142  1.00  0.00    -0.353 N 
HETATM    2  C6  UNL     1      23.412   5.959  47.945  1.00  0.00     0.089 C 
HETATM    3  C7  UNL     1      23.033   4.679  48.128  1.00  0.00     0.028 C 
HETATM    4  C8  UNL     1      23.473   4.246  49.474  1.00  0.00    -0.005 C 
HETATM    5  C9  UNL     1      23.815   3.253  50.319  1.00  0.00     0.040 C 
HETATM    6  C10 UNL     1      24.152   3.881  51.650  1.00  0.00     0.347 C 
HETATM    7  N3  UNL     1      24.490   5.242  51.241  1.00  0.00     0.137 N 
HETATM    8  C17 UNL     1      23.561   5.577  50.185  1.00  0.00     0.358 C 
HETATM    9  H14 UNL     1      25.443   5.290  50.859  1.00  0.00     0.322 HD
ENDROOT
BRANCH   1  10
HETATM   10  C5  UNL     1      25.091   7.439  49.115  1.00  0.00     0.163 C 
BRANCH  10  11
HETATM   11  C4  UNL     1      26.439   6.915  48.776  1.00  0.00    -0.039 A 
HETATM   12  C3  UNL     1      26.709   5.571  48.835  1.00  0.00     0.010 A 
HETATM   13  C2  UNL     1      27.950   5.022  48.529  1.00  0.00     0.026 A 
HETATM   14  C1  UNL     1      28.970   5.852  48.146  1.00  0.00     0.055 A 
HETATM   15 CL1  UNL     1      30.533   5.148  47.763  1.00  0.00    -0.083 Cl
HETATM   16  C19 UNL     1      28.726   7.211  48.078  1.00  0.00     0.056 A 
HETATM   17  C18 UNL     1      27.474   7.729  48.389  1.00  0.00     0.034 A 
HETATM   18 CL2  UNL     1      30.052   8.245  47.584  1.00  0.00    -0.083 Cl
ENDBRANCH  10  11
ENDBRANCH   1  10
BRANCH   6  19
HETATM   19  N2  UNL     1      25.332   3.195  52.127  1.00  0.00    -0.357 N 
HETATM   20  H9  UNL     1      26.213   3.743  52.234  1.00  0.00     0.162 HD
BRANCH  19  21
HETATM   21  C11 UNL     1      25.364   1.816  52.460  1.00  0.00     0.031 A 
HETATM   22  C12 UNL     1      26.420   0.976  52.190  1.00  0.00     0.029 A 
HETATM   23  C13 UNL     1      26.451  -0.363  52.519  1.00  0.00     0.004 A 
HETATM   24  C14 UNL     1      25.372  -0.921  53.156  1.00  0.00     0.019 A 
HETATM   25  C15 UNL     1      24.288  -0.124  53.450  1.00  0.00     0.013 A 
HETATM   26 BR1  UNL     1      22.795  -0.889  54.331  1.00  0.00    -0.051 Br
HETATM   27  C16 UNL     1      24.315   1.208  53.096  1.00  0.00     0.048 A 
ENDBRANCH  19  21
ENDBRANCH   6  19
TORSDOF 4
ENDMDL
MODEL 7
REMARK VINA RESULT:      -8.1      4.922      7.268
REMARK  4 active torsions:
REMARK  status: ('A' for Active; 'I' for Inactive)
REMARK    1  A    between atoms: C4_5  and  C5_6 
REMARK    2  A    between atoms: C5_6  and  N1_7 
REMARK    3  A    between atoms: C10_12  and  N2_13 
REMARK    4  A    between atoms: N2_13  and  C11_14 
ROOT
HETATM    1  N1  UNL     1      21.981   2.948  51.003  1.00  0.00    -0.353 N 
HETATM    2  C6  UNL     1      21.676   3.683  49.797  1.00  0.00     0.089 C 
HETATM    3  C7  UNL     1      22.829   3.858  49.123  1.00  0.00     0.028 C 
HETATM    4  C8  UNL     1      23.926   3.227  49.894  1.00  0.00    -0.005 C 
HETATM    5  C9  UNL     1      25.237   3.151  50.196  1.00  0.00     0.040 C 
HETATM    6  C10 UNL     1      25.407   2.059  51.223  1.00  0.00     0.347 C 
HETATM    7  N3  UNL     1      24.067   2.003  51.800  1.00  0.00     0.137 N 
HETATM    8  C17 UNL     1      23.156   2.201  50.694  1.00  0.00     0.358 C 
HETATM    9  H14 UNL     1      23.920   2.762  52.477  1.00  0.00     0.322 HD
ENDROOT
BRANCH   1  10
HETATM   10  C5  UNL     1      21.161   3.059  52.189  1.00  0.00     0.163 C 
BRANCH  10  11
HETATM   11  C4  UNL     1      20.446   1.792  52.488  1.00  0.00    -0.039 A 
HETATM   12  C3  UNL     1      20.832   0.993  53.533  1.00  0.00     0.010 A 
HETATM   13  C2  UNL     1      20.201  -0.203  53.861  1.00  0.00     0.026 A 
HETATM   14  C1  UNL     1      19.134  -0.622  53.111  1.00  0.00     0.055 A 
HETATM   15 CL1  UNL     1      18.346  -2.133  53.534  1.00  0.00    -0.083 Cl
HETATM   16  C19 UNL     1      18.723   0.165  52.051  1.00  0.00     0.056 A 
HETATM   17  C18 UNL     1      19.374   1.355  51.749  1.00  0.00     0.034 A 
HETATM   18 CL2  UNL     1      17.355  -0.399  51.112  1.00  0.00    -0.083 Cl
ENDBRANCH  10  11
ENDBRANCH   1  10
BRANCH   6  19
HETATM   19  N2  UNL     1      26.348   2.570  52.196  1.00  0.00    -0.357 N 
HETATM   20  H9  UNL     1      26.294   3.579  52.453  1.00  0.00     0.162 HD
BRANCH  19  21
HETATM   21  C11 UNL     1      27.343   1.778  52.824  1.00  0.00     0.031 A 
HETATM   22  C12 UNL     1      28.340   2.277  53.631  1.00  0.00     0.029 A 
HETATM   23  C13 UNL     1      29.303   1.504  54.245  1.00  0.00     0.004 A 
HETATM   24  C14 UNL     1      29.292   0.146  54.056  1.00  0.00     0.019 A 
HETATM   25  C15 UNL     1      28.316  -0.407  53.257  1.00  0.00     0.013 A 
HETATM   26 BR1  UNL     1      28.296  -2.282  52.992  1.00  0.00    -0.051 Br
HETATM   27  C16 UNL     1      27.379   0.418  52.670  1.00  0.00     0.048 A 
ENDBRANCH  19  21
ENDBRANCH   6  19
TORSDOF 4
ENDMDL
MODEL 8
REMARK VINA RESULT:      -8.1      4.007      7.467
REMARK  4 active torsions:
REMARK  status: ('A' for Active; 'I' for Inactive)
REMARK    1  A    between atoms: C4_5  and  C5_6 
REMARK    2  A    between atoms: C5_6  and  N1_7 
REMARK    3  A    between atoms: C10_12  and  N2_13 
REMARK    4  A    between atoms: N2_13  and  C11_14 
ROOT
HETATM    1  N1  UNL     1      24.704   3.179  49.856  1.00  0.00    -0.353 N 
HETATM    2  C6  UNL     1      23.748   3.031  48.783  1.00  0.00     0.089 C 
HETATM    3  C7  UNL     1      22.681   2.372  49.275  1.00  0.00     0.028 C 
HETATM    4  C8  UNL     1      22.930   2.074  50.704  1.00  0.00    -0.005 C 
HETATM    5  C9  UNL     1      22.685   1.314  51.790  1.00  0.00     0.040 C 
HETATM    6  C10 UNL     1      23.516   1.860  52.926  1.00  0.00     0.347 C 
HETATM    7  N3  UNL     1      24.572   2.554  52.195  1.00  0.00     0.137 N 
HETATM    8  C17 UNL     1      23.925   3.158  51.051  1.00  0.00     0.358 C 
HETATM    9  H14 UNL     1      25.284   1.895  51.852  1.00  0.00     0.322 HD
ENDROOT
BRANCH   1  10
HETATM   10  C5  UNL     1      26.121   3.311  49.599  1.00  0.00     0.163 C 
BRANCH  10  11
HETATM   11  C4  UNL     1      26.502   4.717  49.307  1.00  0.00    -0.039 A 
HETATM   12  C3  UNL     1      27.619   5.007  48.565  1.00  0.00     0.010 A 
HETATM   13  C2  UNL     1      28.024   6.302  48.260  1.00  0.00     0.026 A 
HETATM   14  C1  UNL     1      27.280   7.359  48.714  1.00  0.00     0.055 A 
HETATM   15 CL1  UNL     1      27.802   8.989  48.323  1.00  0.00    -0.083 Cl
HETATM   16  C19 UNL     1      26.149   7.096  49.465  1.00  0.00     0.056 A 
HETATM   17  C18 UNL     1      25.770   5.790  49.753  1.00  0.00     0.034 A 
HETATM   18 CL2  UNL     1      25.220   8.470  50.031  1.00  0.00    -0.083 Cl
ENDBRANCH  10  11
ENDBRANCH   1  10
BRANCH   6  19
HETATM   19  N2  UNL     1      24.058   0.708  53.613  1.00  0.00    -0.357 N 
HETATM   20  H9  UNL     1      23.440   0.193  54.277  1.00  0.00     0.162 HD
BRANCH  19  21
HETATM   21  C11 UNL     1      25.384   0.235  53.438  1.00  0.00     0.031 A 
HETATM   22  C12 UNL     1      25.712  -0.944  52.808  1.00  0.00     0.029 A 
HETATM   23  C13 UNL     1      27.002  -1.399  52.634  1.00  0.00     0.004 A 
HETATM   24  C14 UNL     1      28.047  -0.649  53.111  1.00  0.00     0.019 A 
HETATM   25  C15 UNL     1      27.775   0.540  53.750  1.00  0.00     0.013 A 
HETATM   26 BR1  UNL     1      29.213   1.581  54.411  1.00  0.00    -0.051 Br
HETATM   27  C16 UNL     1      26.464   0.943  53.894  1.00  0.00     0.048 A 
ENDBRANCH  19  21
ENDBRANCH   6  19
TORSDOF 4
ENDMDL
MODEL 9
REMARK VINA RESULT:      -8.0      4.874      8.094
REMARK  4 active torsions:
REMARK  status: ('A' for Active; 'I' for Inactive)
REMARK    1  A    between atoms: C4_5  and  C5_6 
REMARK    2  A    between atoms: C5_6  and  N1_7 
REMARK    3  A    between atoms: C10_12  and  N2_13 
REMARK    4  A    between atoms: N2_13  and  C11_14 
ROOT
HETATM    1  N1  UNL     1      24.386   3.011  52.159  1.00  0.00    -0.353 N 
HETATM    2  C6  UNL     1      25.272   3.412  51.092  1.00  0.00     0.089 C 
HETATM    3  C7  UNL     1      24.666   3.120  49.925  1.00  0.00     0.028 C 
HETATM    4  C8  UNL     1      23.348   2.510  50.220  1.00  0.00    -0.005 C 
HETATM    5  C9  UNL     1      22.325   1.720  49.840  1.00  0.00     0.040 C 
HETATM    6  C10 UNL     1      21.310   1.717  50.958  1.00  0.00     0.347 C 
HETATM    7  N3  UNL     1      22.145   2.087  52.097  1.00  0.00     0.137 N 
HETATM    8  C17 UNL     1      23.077   3.073  51.596  1.00  0.00     0.358 C 
HETATM    9  H14 UNL     1      22.684   1.282  52.442  1.00  0.00     0.322 HD
ENDROOT
BRANCH   1  10
HETATM   10  C5  UNL     1      24.886   2.653  53.469  1.00  0.00     0.163 C 
BRANCH  10  11
HETATM   11  C4  UNL     1      26.017   1.694  53.386  1.00  0.00    -0.039 A 
HETATM   12  C3  UNL     1      27.289   2.071  53.736  1.00  0.00     0.010 A 
HETATM   13  C2  UNL     1      28.386   1.217  53.678  1.00  0.00     0.026 A 
HETATM   14  C1  UNL     1      28.207  -0.072  53.253  1.00  0.00     0.055 A 
HETATM   15 CL1  UNL     1      29.600  -1.140  53.185  1.00  0.00    -0.083 Cl
HETATM   16  C19 UNL     1      26.935  -0.479  52.894  1.00  0.00     0.056 A 
HETATM   17  C18 UNL     1      25.859   0.398  52.962  1.00  0.00     0.034 A 
HETATM   18 CL2  UNL     1      26.741  -2.135  52.354  1.00  0.00    -0.083 Cl
ENDBRANCH  10  11
ENDBRANCH   1  10
BRANCH   6  19
HETATM   19  N2  UNL     1      20.865   0.347  51.089  1.00  0.00    -0.357 N 
HETATM   20  H9  UNL     1      21.516  -0.414  50.795  1.00  0.00     0.162 HD
BRANCH  19  21
HETATM   21  C11 UNL     1      19.593  -0.026  51.595  1.00  0.00     0.031 A 
HETATM   22  C12 UNL     1      19.390  -0.648  52.805  1.00  0.00     0.029 A 
HETATM   23  C13 UNL     1      18.152  -1.004  53.297  1.00  0.00     0.004 A 
HETATM   24  C14 UNL     1      17.033  -0.736  52.552  1.00  0.00     0.019 A 
HETATM   25  C15 UNL     1      17.179  -0.115  51.331  1.00  0.00     0.013 A 
HETATM   26 BR1  UNL     1      15.637   0.259  50.297  1.00  0.00    -0.051 Br
HETATM   27  C16 UNL     1      18.444   0.218  50.892  1.00  0.00     0.048 A 
ENDBRANCH  19  21
ENDBRANCH   6  19
TORSDOF 4
ENDMDL
