MODEL 1
REMARK VINA RESULT:      -8.0      0.000      0.000
REMARK  3 active torsions:
REMARK  status: ('A' for Active; 'I' for Inactive)
REMARK    1  A    between atoms: C2_2  and  C3_3 
REMARK    2  A    between atoms: C3_3  and  C4_4 
REMARK    3  A    between atoms: C4_4  and  C5_5 
ROOT
HETATM    1  C5  UNL     1      25.143  -0.317  54.073  1.00  0.00    -0.016 C 
HETATM    2  C6  UNL     1      25.668  -0.589  55.428  1.00  0.00     0.020 C 
HETATM    3  C7  UNL     1      25.341   1.217  53.824  1.00  0.00    -0.007 C 
HETATM    4  C8  UNL     1      25.269   2.489  53.314  1.00  0.00     0.047 C 
HETATM    5  C9  UNL     1      24.544   3.136  52.168  1.00  0.00     0.007 C 
HETATM    6  C10 UNL     1      23.763   3.325  51.083  1.00  0.00     0.245 C 
HETATM    7  N1  UNL     1      22.934   2.448  50.223  1.00  0.00     0.144 N 
HETATM    8  C11 UNL     1      22.950   2.805  48.818  1.00  0.00     0.330 C 
HETATM    9  C12 UNL     1      22.136   1.266  50.639  1.00  0.00     0.390 A 
HETATM   10  O1  UNL     1      22.868   1.888  51.327  1.00  0.00    -0.099 OA
HETATM   11  N2  UNL     1      21.453   0.192  51.135  1.00  0.00    -0.312 N 
HETATM   12  C13 UNL     1      21.608  -0.310  52.497  1.00  0.00     0.035 A 
HETATM   13  C14 UNL     1      20.775  -0.737  53.485  1.00  0.00     0.029 A 
HETATM   14  C15 UNL     1      21.373  -1.061  54.685  1.00  0.00     0.003 A 
HETATM   15  C16 UNL     1      22.731  -0.970  54.911  1.00  0.00     0.008 A 
HETATM   16  C17 UNL     1      23.686  -0.555  54.001  1.00  0.00    -0.048 A 
HETATM   17  C18 UNL     1      22.920  -0.288  52.904  1.00  0.00     0.037 A 
HETATM   18  H20 UNL     1      20.797  -0.332  50.667  1.00  0.00     0.169 HD
ENDROOT
BRANCH   1  19
HETATM   19  C4  UNL     1      25.838  -0.977  52.946  1.00  0.00     0.014 C 
BRANCH  19  20
HETATM   20  C3  UNL     1      27.159  -0.533  52.498  1.00  0.00     0.001 C 
BRANCH  20  21
HETATM   21  C2  UNL     1      28.336  -1.182  53.119  1.00  0.00    -0.005 C 
HETATM   22  C1  UNL     1      29.198  -0.114  53.844  1.00  0.00     0.005 C 
ENDBRANCH  20  21
ENDBRANCH  19  20
ENDBRANCH   1  19
TORSDOF 3
ENDMDL
MODEL 2
REMARK VINA RESULT:      -7.4      1.840      3.042
REMARK  3 active torsions:
REMARK  status: ('A' for Active; 'I' for Inactive)
REMARK    1  A    between atoms: C2_2  and  C3_3 
REMARK    2  A    between atoms: C3_3  and  C4_4 
REMARK    3  A    between atoms: C4_4  and  C5_5 
ROOT
HETATM    1  C5  UNL     1      25.202   1.832  52.829  1.00  0.00    -0.016 C 
HETATM    2  C6  UNL     1      26.280   1.748  53.837  1.00  0.00     0.020 C 
HETATM    3  C7  UNL     1      24.524   3.230  53.028  1.00  0.00    -0.007 C 
HETATM    4  C8  UNL     1      23.655   4.292  52.979  1.00  0.00     0.047 C 
HETATM    5  C9  UNL     1      22.323   4.548  52.333  1.00  0.00     0.007 C 
HETATM    6  C10 UNL     1      21.191   4.389  51.613  1.00  0.00     0.245 C 
HETATM    7  N1  UNL     1      20.622   3.304  50.780  1.00  0.00     0.144 N 
HETATM    8  C11 UNL     1      19.907   3.769  49.607  1.00  0.00     0.330 C 
HETATM    9  C12 UNL     1      20.729   1.840  51.005  1.00  0.00     0.390 A 
HETATM   10  O1  UNL     1      21.277   2.681  51.628  1.00  0.00    -0.099 OA
HETATM   11  N2  UNL     1      20.906   0.519  51.305  1.00  0.00    -0.312 N 
HETATM   12  C13 UNL     1      21.807   0.038  52.348  1.00  0.00     0.035 A 
HETATM   13  C14 UNL     1      21.750  -0.892  53.339  1.00  0.00     0.029 A 
HETATM   14  C15 UNL     1      22.850  -0.961  54.171  1.00  0.00     0.003 A 
HETATM   15  C16 UNL     1      23.959  -0.152  54.039  1.00  0.00     0.008 A 
HETATM   16  C17 UNL     1      24.147   0.829  53.082  1.00  0.00    -0.048 A 
HETATM   17  C18 UNL     1      22.985   0.745  52.372  1.00  0.00     0.037 A 
HETATM   18  H20 UNL     1      20.459  -0.224  50.892  1.00  0.00     0.169 HD
ENDROOT
BRANCH   1  19
HETATM   19  C4  UNL     1      25.617   1.811  51.409  1.00  0.00     0.014 C 
BRANCH  19  20
HETATM   20  C3  UNL     1      26.419   2.891  50.831  1.00  0.00     0.001 C 
BRANCH  20  21
HETATM   21  C2  UNL     1      25.912   3.516  49.588  1.00  0.00    -0.005 C 
HETATM   22  C1  UNL     1      24.393   3.233  49.444  1.00  0.00     0.005 C 
ENDBRANCH  20  21
ENDBRANCH  19  20
ENDBRANCH   1  19
TORSDOF 3
ENDMDL
MODEL 3
REMARK VINA RESULT:      -7.3      1.851      4.910
REMARK  3 active torsions:
REMARK  status: ('A' for Active; 'I' for Inactive)
REMARK    1  A    between atoms: C2_2  and  C3_3 
REMARK    2  A    between atoms: C3_3  and  C4_4 
REMARK    3  A    between atoms: C4_4  and  C5_5 
ROOT
HETATM    1  C5  UNL     1      21.852   0.278  52.860  1.00  0.00    -0.016 C 
HETATM    2  C6  UNL     1      21.382  -1.018  53.393  1.00  0.00     0.020 C 
HETATM    3  C7  UNL     1      21.472   0.292  51.340  1.00  0.00    -0.007 C 
HETATM    4  C8  UNL     1      21.388   0.603  50.006  1.00  0.00     0.047 C 
HETATM    5  C9  UNL     1      22.015   1.636  49.113  1.00  0.00     0.007 C 
HETATM    6  C10 UNL     1      22.753   2.678  48.673  1.00  0.00     0.245 C 
HETATM    7  N1  UNL     1      23.665   3.658  49.307  1.00  0.00     0.144 N 
HETATM    8  C11 UNL     1      23.586   4.993  48.745  1.00  0.00     0.330 C 
HETATM    9  C12 UNL     1      24.601   3.425  50.436  1.00  0.00     0.390 A 
HETATM   10  O1  UNL     1      23.812   2.652  50.015  1.00  0.00    -0.099 OA
HETATM   11  N2  UNL     1      25.412   3.096  51.485  1.00  0.00    -0.312 N 
HETATM   12  C13 UNL     1      25.337   1.826  52.201  1.00  0.00     0.035 A 
HETATM   13  C14 UNL     1      26.229   0.912  52.671  1.00  0.00     0.029 A 
HETATM   14  C15 UNL     1      25.691  -0.224  53.241  1.00  0.00     0.003 A 
HETATM   15  C16 UNL     1      24.336  -0.457  53.345  1.00  0.00     0.008 A 
HETATM   16  C17 UNL     1      23.325   0.381  52.912  1.00  0.00    -0.048 A 
HETATM   17  C18 UNL     1      24.038   1.424  52.395  1.00  0.00     0.037 A 
HETATM   18  H20 UNL     1      26.117   3.636  51.852  1.00  0.00     0.169 HD
ENDROOT
BRANCH   1  19
HETATM   19  C4  UNL     1      21.221   1.494  53.419  1.00  0.00     0.014 C 
BRANCH  19  20
HETATM   20  C3  UNL     1      20.486   2.433  52.570  1.00  0.00     0.001 C 
BRANCH  20  21
HETATM   21  C2  UNL     1      21.141   3.727  52.270  1.00  0.00    -0.005 C 
HETATM   22  C1  UNL     1      20.416   4.414  51.082  1.00  0.00     0.005 C 
ENDBRANCH  20  21
ENDBRANCH  19  20
ENDBRANCH   1  19
TORSDOF 3
ENDMDL
MODEL 4
REMARK VINA RESULT:      -7.2      1.865      5.597
REMARK  3 active torsions:
REMARK  status: ('A' for Active; 'I' for Inactive)
REMARK    1  A    between atoms: C2_2  and  C3_3 
REMARK    2  A    between atoms: C3_3  and  C4_4 
REMARK    3  A    between atoms: C4_4  and  C5_5 
ROOT
HETATM    1  C5  UNL     1      24.515   3.410  50.698  1.00  0.00    -0.016 C 
HETATM    2  C6  UNL     1      25.432   4.080  49.751  1.00  0.00     0.020 C 
HETATM    3  C7  UNL     1      25.358   2.303  51.418  1.00  0.00    -0.007 C 
HETATM    4  C8  UNL     1      25.744   1.210  52.153  1.00  0.00     0.047 C 
HETATM    5  C9  UNL     1      25.026   0.144  52.931  1.00  0.00     0.007 C 
HETATM    6  C10 UNL     1      24.049  -0.590  53.507  1.00  0.00     0.245 C 
HETATM    7  N1  UNL     1      22.572  -0.495  53.582  1.00  0.00     0.144 N 
HETATM    8  C11 UNL     1      22.015  -0.906  54.856  1.00  0.00     0.330 C 
HETATM    9  C12 UNL     1      21.642  -0.015  52.529  1.00  0.00     0.390 A 
HETATM   10  O1  UNL     1      22.822   0.014  52.480  1.00  0.00    -0.099 OA
HETATM   11  N2  UNL     1      20.886   0.460  51.495  1.00  0.00    -0.312 N 
HETATM   12  C13 UNL     1      21.447   1.084  50.300  1.00  0.00     0.035 A 
HETATM   13  C14 UNL     1      21.228   1.008  48.960  1.00  0.00     0.029 A 
HETATM   14  C15 UNL     1      22.077   1.748  48.162  1.00  0.00     0.003 A 
HETATM   15  C16 UNL     1      23.100   2.530  48.656  1.00  0.00     0.008 A 
HETATM   16  C17 UNL     1      23.432   2.698  49.988  1.00  0.00    -0.048 A 
HETATM   17  C18 UNL     1      22.503   1.911  50.603  1.00  0.00     0.037 A 
HETATM   18  H20 UNL     1      19.929   0.423  51.424  1.00  0.00     0.169 HD
ENDROOT
BRANCH   1  19
HETATM   19  C4  UNL     1      23.967   4.240  51.793  1.00  0.00     0.014 C 
BRANCH  19  20
HETATM   20  C3  UNL     1      23.323   5.528  51.527  1.00  0.00     0.001 C 
BRANCH  20  21
HETATM   21  C2  UNL     1      21.843   5.549  51.497  1.00  0.00    -0.005 C 
HETATM   22  C1  UNL     1      21.354   5.743  50.037  1.00  0.00     0.005 C 
ENDBRANCH  20  21
ENDBRANCH  19  20
ENDBRANCH   1  19
TORSDOF 3
ENDMDL
MODEL 5
REMARK VINA RESULT:      -7.0      2.585      5.547
REMARK  3 active torsions:
REMARK  status: ('A' for Active; 'I' for Inactive)
REMARK    1  A    between atoms: C2_2  and  C3_3 
REMARK    2  A    between atoms: C3_3  and  C4_4 
REMARK    3  A    between atoms: C4_4  and  C5_5 
ROOT
HETATM    1  C5  UNL     1      22.569   1.125  52.052  1.00  0.00    -0.016 C 
HETATM    2  C6  UNL     1      22.560  -0.157  52.788  1.00  0.00     0.020 C 
HETATM    3  C7  UNL     1      21.884   0.845  50.672  1.00  0.00    -0.007 C 
HETATM    4  C8  UNL     1      21.444   0.943  49.375  1.00  0.00     0.047 C 
HETATM    5  C9  UNL     1      21.590   1.956  48.276  1.00  0.00     0.007 C 
HETATM    6  C10 UNL     1      21.935   3.066  47.587  1.00  0.00     0.245 C 
HETATM    7  N1  UNL     1      22.689   4.302  47.901  1.00  0.00     0.144 N 
HETATM    8  C11 UNL     1      22.164   5.495  47.266  1.00  0.00     0.330 C 
HETATM    9  C12 UNL     1      23.872   4.440  48.788  1.00  0.00     0.390 A 
HETATM   10  O1  UNL     1      23.228   3.461  48.634  1.00  0.00    -0.099 OA
HETATM   11  N2  UNL     1      24.943   4.447  49.636  1.00  0.00    -0.312 N 
HETATM   12  C13 UNL     1      25.340   3.303  50.452  1.00  0.00     0.035 A 
HETATM   13  C14 UNL     1      26.509   2.684  50.769  1.00  0.00     0.029 A 
HETATM   14  C15 UNL     1      26.403   1.546  51.543  1.00  0.00     0.003 A 
HETATM   15  C16 UNL     1      25.202   1.034  51.988  1.00  0.00     0.008 A 
HETATM   16  C17 UNL     1      23.947   1.559  51.741  1.00  0.00    -0.048 A 
HETATM   17  C18 UNL     1      24.252   2.653  50.984  1.00  0.00     0.037 A 
HETATM   18  H20 UNL     1      25.553   5.175  49.778  1.00  0.00     0.169 HD
ENDROOT
BRANCH   1  19
HETATM   19  C4  UNL     1      21.790   2.235  52.643  1.00  0.00     0.014 C 
BRANCH  19  20
HETATM   20  C3  UNL     1      20.326   2.245  52.609  1.00  0.00     0.001 C 
BRANCH  20  21
HETATM   21  C2  UNL     1      19.677   3.294  51.789  1.00  0.00    -0.005 C 
HETATM   22  C1  UNL     1      20.739   4.328  51.332  1.00  0.00     0.005 C 
ENDBRANCH  20  21
ENDBRANCH  19  20
ENDBRANCH   1  19
TORSDOF 3
ENDMDL
MODEL 6
REMARK VINA RESULT:      -7.0      2.157      3.489
REMARK  3 active torsions:
REMARK  status: ('A' for Active; 'I' for Inactive)
REMARK    1  A    between atoms: C2_2  and  C3_3 
REMARK    2  A    between atoms: C3_3  and  C4_4 
REMARK    3  A    between atoms: C4_4  and  C5_5 
ROOT
HETATM    1  C5  UNL     1      23.840   1.386  52.309  1.00  0.00    -0.016 C 
HETATM    2  C6  UNL     1      23.488   0.526  53.459  1.00  0.00     0.020 C 
HETATM    3  C7  UNL     1      23.757   2.864  52.823  1.00  0.00    -0.007 C 
HETATM    4  C8  UNL     1      23.693   4.233  52.892  1.00  0.00     0.047 C 
HETATM    5  C9  UNL     1      23.674   5.349  51.886  1.00  0.00     0.007 C 
HETATM    6  C10 UNL     1      23.691   6.029  50.719  1.00  0.00     0.245 C 
HETATM    7  N1  UNL     1      23.802   5.655  49.290  1.00  0.00     0.144 N 
HETATM    8  C11 UNL     1      24.573   6.587  48.490  1.00  0.00     0.330 C 
HETATM    9  C12 UNL     1      23.242   4.452  48.623  1.00  0.00     0.390 A 
HETATM   10  O1  UNL     1      23.226   4.675  49.784  1.00  0.00    -0.099 OA
HETATM   11  N2  UNL     1      22.694   3.304  48.124  1.00  0.00    -0.312 N 
HETATM   12  C13 UNL     1      22.114   2.253  48.955  1.00  0.00     0.035 A 
HETATM   13  C14 UNL     1      20.994   1.482  48.919  1.00  0.00     0.029 A 
HETATM   14  C15 UNL     1      20.803   0.639  49.996  1.00  0.00     0.003 A 
HETATM   15  C16 UNL     1      21.672   0.555  51.063  1.00  0.00     0.008 A 
HETATM   16  C17 UNL     1      22.840   1.276  51.227  1.00  0.00    -0.048 A 
HETATM   17  C18 UNL     1      22.857   2.031  50.090  1.00  0.00     0.037 A 
HETATM   18  H20 UNL     1      22.611   3.069  47.196  1.00  0.00     0.169 HD
ENDROOT
BRANCH   1  19
HETATM   19  C4  UNL     1      25.212   1.248  51.772  1.00  0.00     0.014 C 
BRANCH  19  20
HETATM   20  C3  UNL     1      26.385   1.603  52.572  1.00  0.00     0.001 C 
BRANCH  20  21
HETATM   21  C2  UNL     1      27.376   0.533  52.829  1.00  0.00    -0.005 C 
HETATM   22  C1  UNL     1      26.795  -0.833  52.379  1.00  0.00     0.005 C 
ENDBRANCH  20  21
ENDBRANCH  19  20
ENDBRANCH   1  19
TORSDOF 3
ENDMDL
MODEL 7
REMARK VINA RESULT:      -6.9      1.976      5.118
REMARK  3 active torsions:
REMARK  status: ('A' for Active; 'I' for Inactive)
REMARK    1  A    between atoms: C2_2  and  C3_3 
REMARK    2  A    between atoms: C3_3  and  C4_4 
REMARK    3  A    between atoms: C4_4  and  C5_5 
ROOT
HETATM    1  C5  UNL     1      24.341   3.242  50.607  1.00  0.00    -0.016 C 
HETATM    2  C6  UNL     1      25.327   4.334  50.459  1.00  0.00     0.020 C 
HETATM    3  C7  UNL     1      23.030   3.905  51.150  1.00  0.00    -0.007 C 
HETATM    4  C8  UNL     1      21.789   4.115  51.699  1.00  0.00     0.047 C 
HETATM    5  C9  UNL     1      20.712   3.233  52.262  1.00  0.00     0.007 C 
HETATM    6  C10 UNL     1      20.017   2.144  52.656  1.00  0.00     0.245 C 
HETATM    7  N1  UNL     1      20.250   0.681  52.617  1.00  0.00     0.144 N 
HETATM    8  C11 UNL     1      19.058  -0.104  52.358  1.00  0.00     0.330 C 
HETATM    9  C12 UNL     1      21.540  -0.035  52.787  1.00  0.00     0.390 A 
HETATM   10  O1  UNL     1      21.398   1.137  52.723  1.00  0.00    -0.099 OA
HETATM   11  N2  UNL     1      22.782  -0.581  52.943  1.00  0.00    -0.312 N 
HETATM   12  C13 UNL     1      24.014   0.201  52.979  1.00  0.00     0.035 A 
HETATM   13  C14 UNL     1      25.145   0.214  53.735  1.00  0.00     0.029 A 
HETATM   14  C15 UNL     1      26.052   1.216  53.454  1.00  0.00     0.003 A 
HETATM   15  C16 UNL     1      25.859   2.168  52.475  1.00  0.00     0.008 A 
HETATM   16  C17 UNL     1      24.763   2.271  51.639  1.00  0.00    -0.048 A 
HETATM   17  C18 UNL     1      24.000   1.220  52.056  1.00  0.00     0.037 A 
HETATM   18  H20 UNL     1      22.984  -1.513  53.063  1.00  0.00     0.169 HD
ENDROOT
BRANCH   1  19
HETATM   19  C4  UNL     1      23.929   2.546  49.369  1.00  0.00     0.014 C 
BRANCH  19  20
HETATM   20  C3  UNL     1      22.839   3.053  48.533  1.00  0.00     0.001 C 
BRANCH  20  21
HETATM   21  C2  UNL     1      21.863   2.063  48.022  1.00  0.00    -0.005 C 
HETATM   22  C1  UNL     1      21.474   1.082  49.160  1.00  0.00     0.005 C 
ENDBRANCH  20  21
ENDBRANCH  19  20
ENDBRANCH   1  19
TORSDOF 3
ENDMDL
MODEL 8
REMARK VINA RESULT:      -6.5      2.460      5.102
REMARK  3 active torsions:
REMARK  status: ('A' for Active; 'I' for Inactive)
REMARK    1  A    between atoms: C2_2  and  C3_3 
REMARK    2  A    between atoms: C3_3  and  C4_4 
REMARK    3  A    between atoms: C4_4  and  C5_5 
ROOT
HETATM    1  C5  UNL     1      22.975   2.517  51.678  1.00  0.00    -0.016 C 
HETATM    2  C6  UNL     1      22.070   2.903  50.574  1.00  0.00     0.020 C 
HETATM    3  C7  UNL     1      24.387   2.304  51.035  1.00  0.00    -0.007 C 
HETATM    4  C8  UNL     1      25.693   1.945  50.813  1.00  0.00     0.047 C 
HETATM    5  C9  UNL     1      26.751   1.234  51.609  1.00  0.00     0.007 C 
HETATM    6  C10 UNL     1      27.394   0.591  52.607  1.00  0.00     0.245 C 
HETATM    7  N1  UNL     1      27.040   0.174  53.984  1.00  0.00     0.144 N 
HETATM    8  C11 UNL     1      28.129   0.284  54.936  1.00  0.00     0.330 C 
HETATM    9  C12 UNL     1      25.723  -0.305  54.475  1.00  0.00     0.390 A 
HETATM   10  O1  UNL     1      25.952   0.117  53.395  1.00  0.00    -0.099 OA
HETATM   11  N2  UNL     1      24.465  -0.716  54.813  1.00  0.00    -0.312 N 
HETATM   12  C13 UNL     1      23.312  -0.617  53.923  1.00  0.00     0.035 A 
HETATM   13  C14 UNL     1      22.275  -1.424  53.569  1.00  0.00     0.029 A 
HETATM   14  C15 UNL     1      21.428  -0.932  52.597  1.00  0.00     0.003 A 
HETATM   15  C16 UNL     1      21.588   0.298  51.995  1.00  0.00     0.008 A 
HETATM   16  C17 UNL     1      22.591   1.213  52.258  1.00  0.00    -0.048 A 
HETATM   17  C18 UNL     1      23.307   0.565  53.222  1.00  0.00     0.037 A 
HETATM   18  H20 UNL     1      24.202  -1.124  55.643  1.00  0.00     0.169 HD
ENDROOT
BRANCH   1  19
HETATM   19  C4  UNL     1      23.191   3.522  52.742  1.00  0.00     0.014 C 
BRANCH  19  20
HETATM   20  C3  UNL     1      23.929   4.760  52.487  1.00  0.00     0.001 C 
BRANCH  20  21
HETATM   21  C2  UNL     1      23.242   5.804  51.693  1.00  0.00    -0.005 C 
HETATM   22  C1  UNL     1      24.286   6.817  51.151  1.00  0.00     0.005 C 
ENDBRANCH  20  21
ENDBRANCH  19  20
ENDBRANCH   1  19
TORSDOF 3
ENDMDL
MODEL 9
REMARK VINA RESULT:      -6.4      3.137      6.130
REMARK  3 active torsions:
REMARK  status: ('A' for Active; 'I' for Inactive)
REMARK    1  A    between atoms: C2_2  and  C3_3 
REMARK    2  A    between atoms: C3_3  and  C4_4 
REMARK    3  A    between atoms: C4_4  and  C5_5 
ROOT
HETATM    1  C5  UNL     1      25.804   4.083  49.914  1.00  0.00    -0.016 C 
HETATM    2  C6  UNL     1      27.040   4.064  49.102  1.00  0.00     0.020 C 
HETATM    3  C7  UNL     1      24.707   3.359  49.061  1.00  0.00    -0.007 C 
HETATM    4  C8  UNL     1      23.511   2.891  48.576  1.00  0.00     0.047 C 
HETATM    5  C9  UNL     1      22.071   3.033  48.979  1.00  0.00     0.007 C 
HETATM    6  C10 UNL     1      20.951   3.385  49.648  1.00  0.00     0.245 C 
HETATM    7  N1  UNL     1      20.664   4.172  50.870  1.00  0.00     0.144 N 
HETATM    8  C11 UNL     1      19.565   3.657  51.663  1.00  0.00     0.330 C 
HETATM    9  C12 UNL     1      21.380   5.378  51.359  1.00  0.00     0.390 A 
HETATM   10  O1  UNL     1      21.692   4.710  50.435  1.00  0.00    -0.099 OA
HETATM   11  N2  UNL     1      22.121   6.468  51.717  1.00  0.00    -0.312 N 
HETATM   12  C13 UNL     1      23.361   6.860  51.053  1.00  0.00     0.035 A 
HETATM   13  C14 UNL     1      23.910   8.023  50.610  1.00  0.00     0.029 A 
HETATM   14  C15 UNL     1      25.115   7.911  49.947  1.00  0.00     0.003 A 
HETATM   15  C16 UNL     1      25.757   6.711  49.726  1.00  0.00     0.008 A 
HETATM   16  C17 UNL     1      25.314   5.462  50.120  1.00  0.00    -0.048 A 
HETATM   17  C18 UNL     1      24.142   5.772  50.745  1.00  0.00     0.037 A 
HETATM   18  H20 UNL     1      21.911   7.096  52.412  1.00  0.00     0.169 HD
ENDROOT
BRANCH   1  19
HETATM   19  C4  UNL     1      25.839   3.341  51.194  1.00  0.00     0.014 C 
BRANCH  19  20
HETATM   20  C3  UNL     1      26.514   2.047  51.309  1.00  0.00     0.001 C 
BRANCH  20  21
HETATM   21  C2  UNL     1      25.782   0.964  52.005  1.00  0.00    -0.005 C 
HETATM   22  C1  UNL     1      26.712  -0.268  52.172  1.00  0.00     0.005 C 
ENDBRANCH  20  21
ENDBRANCH  19  20
ENDBRANCH   1  19
TORSDOF 3
ENDMDL
