MODEL 1
REMARK VINA RESULT:      -7.8      0.000      0.000
REMARK  2 active torsions:
REMARK  status: ('A' for Active; 'I' for Inactive)
REMARK    1  A    between atoms: O1_2  and  C2_3 
REMARK       I    between atoms: N1_11  and  C10_12 
REMARK       I    between atoms: C10_12  and  N2_14 
REMARK    2  A    between atoms: N2_14  and  C11_15 
ROOT
HETATM    1  C2  UNL     1      23.710   0.118  53.406  1.00  0.00     0.084 C 
HETATM    2  C3  UNL     1      24.969   0.617  53.215  1.00  0.00    -0.042 C 
HETATM    3  C4  UNL     1      26.012  -0.300  53.802  1.00  0.00     0.047 C 
HETATM    4  C5  UNL     1      25.701   1.829  52.749  1.00  0.00     0.035 C 
HETATM    5  C6  UNL     1      26.917   2.193  53.544  1.00  0.00     0.019 C 
HETATM    6  C7  UNL     1      24.821   3.001  52.551  1.00  0.00    -0.020 C 
HETATM    7  C8  UNL     1      24.149   4.129  52.452  1.00  0.00    -0.010 C 
HETATM    8  C9  UNL     1      23.037   4.970  52.078  1.00  0.00     0.155 C 
HETATM    9  N1  UNL     1      21.848   4.379  51.531  1.00  0.00    -0.326 N 
HETATM   10  C10 UNL     1      21.693   4.225  50.102  1.00  0.00     0.323 C 
HETATM   11  O2  UNL     1      20.681   3.711  49.504  1.00  0.00    -0.247 OA
HETATM   12  N2  UNL     1      22.676   4.639  49.162  1.00  0.00    -0.312 N 
HETATM   13  C16 UNL     1      20.625   3.871  52.259  1.00  0.00     0.166 C 
HETATM   14  C17 UNL     1      20.699   2.387  52.322  1.00  0.00    -0.039 A 
HETATM   15  C18 UNL     1      19.878   1.372  51.811  1.00  0.00     0.012 A 
HETATM   16  C19 UNL     1      20.277   0.049  51.875  1.00  0.00     0.044 A 
HETATM   17  C20 UNL     1      21.507  -0.309  52.449  1.00  0.00     0.129 A 
HETATM   18  F1  UNL     1      21.734  -1.658  52.423  1.00  0.00    -0.205 F 
HETATM   19  C21 UNL     1      22.413   0.618  52.995  1.00  0.00     0.037 A 
HETATM   20  C22 UNL     1      21.792   1.792  52.813  1.00  0.00     0.026 A 
HETATM   21  H15 UNL     1      23.560   5.078  49.502  1.00  0.00     0.170 HD
ENDROOT
BRANCH  12  22
HETATM   22  C11 UNL     1      22.366   4.410  47.797  1.00  0.00     0.017 A 
HETATM   23  C12 UNL     1      22.166   5.425  47.004  1.00  0.00     0.025 A 
HETATM   24  C13 UNL     1      21.861   4.931  45.646  1.00  0.00    -0.002 A 
HETATM   25  C14 UNL     1      21.880   3.593  45.636  1.00  0.00    -0.021 A 
HETATM   26  C15 UNL     1      22.205   3.144  47.010  1.00  0.00     0.084 A 
ENDBRANCH  12  22
BRANCH   1  27
HETATM   27  O1  UNL     1      23.574  -1.076  54.087  1.00  0.00    -0.355 OA
HETATM   28  C1  UNL     1      23.038  -1.187  55.391  1.00  0.00     0.210 C 
ENDBRANCH   1  27
TORSDOF 2
ENDMDL
MODEL 2
REMARK VINA RESULT:      -7.5      2.568      4.488
REMARK  2 active torsions:
REMARK  status: ('A' for Active; 'I' for Inactive)
REMARK    1  A    between atoms: O1_2  and  C2_3 
REMARK       I    between atoms: N1_11  and  C10_12 
REMARK       I    between atoms: C10_12  and  N2_14 
REMARK    2  A    between atoms: N2_14  and  C11_15 
ROOT
HETATM    1  C2  UNL     1      22.932   0.894  52.957  1.00  0.00     0.084 C 
HETATM    2  C3  UNL     1      21.625   0.664  53.284  1.00  0.00    -0.042 C 
HETATM    3  C4  UNL     1      21.516  -0.137  54.556  1.00  0.00     0.047 C 
HETATM    4  C5  UNL     1      20.235   0.801  52.762  1.00  0.00     0.035 C 
HETATM    5  C6  UNL     1      19.318  -0.345  53.063  1.00  0.00     0.019 C 
HETATM    6  C7  UNL     1      20.184   1.164  51.330  1.00  0.00    -0.020 C 
HETATM    7  C8  UNL     1      20.025   1.376  50.040  1.00  0.00    -0.010 C 
HETATM    8  C9  UNL     1      20.291   2.001  48.766  1.00  0.00     0.155 C 
HETATM    9  N1  UNL     1      21.388   2.920  48.638  1.00  0.00    -0.326 N 
HETATM   10  C10 UNL     1      21.189   4.337  48.839  1.00  0.00     0.323 C 
HETATM   11  O2  UNL     1      22.091   5.245  48.753  1.00  0.00    -0.247 OA
HETATM   12  N2  UNL     1      19.928   4.908  49.165  1.00  0.00    -0.312 N 
HETATM   13  C16 UNL     1      22.826   2.628  48.277  1.00  0.00     0.166 C 
HETATM   14  C17 UNL     1      23.638   2.655  49.523  1.00  0.00    -0.039 A 
HETATM   15  C18 UNL     1      24.704   3.461  49.945  1.00  0.00     0.012 A 
HETATM   16  C19 UNL     1      25.174   3.379  51.244  1.00  0.00     0.044 A 
HETATM   17  C20 UNL     1      24.597   2.492  52.167  1.00  0.00     0.129 A 
HETATM   18  F1  UNL     1      25.188   2.549  53.399  1.00  0.00    -0.205 F 
HETATM   19  C21 UNL     1      23.526   1.635  51.861  1.00  0.00     0.037 A 
HETATM   20  C22 UNL     1      23.278   1.907  50.572  1.00  0.00     0.026 A 
HETATM   21  H15 UNL     1      19.094   4.289  49.268  1.00  0.00     0.170 HD
ENDROOT
BRANCH  12  22
HETATM   22  C11 UNL     1      19.909   6.317  49.331  1.00  0.00     0.017 A 
HETATM   23  C12 UNL     1      19.153   7.046  48.559  1.00  0.00     0.025 A 
HETATM   24  C13 UNL     1      19.307   8.468  48.926  1.00  0.00    -0.002 A 
HETATM   25  C14 UNL     1      20.176   8.583  49.938  1.00  0.00    -0.021 A 
HETATM   26  C15 UNL     1      20.635   7.217  50.285  1.00  0.00     0.084 A 
ENDBRANCH  12  22
BRANCH   1  27
HETATM   27  O1  UNL     1      23.914   0.374  53.777  1.00  0.00    -0.355 OA
HETATM   28  C1  UNL     1      24.802  -0.658  53.394  1.00  0.00     0.210 C 
ENDBRANCH   1  27
TORSDOF 2
ENDMDL
MODEL 3
REMARK VINA RESULT:      -7.4      9.867     11.902
REMARK  2 active torsions:
REMARK  status: ('A' for Active; 'I' for Inactive)
REMARK    1  A    between atoms: O1_2  and  C2_3 
REMARK       I    between atoms: N1_11  and  C10_12 
REMARK       I    between atoms: C10_12  and  N2_14 
REMARK    2  A    between atoms: N2_14  and  C11_15 
ROOT
HETATM    1  C2  UNL     1      28.333   8.277  48.601  1.00  0.00     0.084 C 
HETATM    2  C3  UNL     1      27.843   7.017  48.391  1.00  0.00    -0.042 C 
HETATM    3  C4  UNL     1      26.375   6.943  48.725  1.00  0.00     0.047 C 
HETATM    4  C5  UNL     1      28.267   5.623  48.076  1.00  0.00     0.035 C 
HETATM    5  C6  UNL     1      27.534   4.544  48.815  1.00  0.00     0.019 C 
HETATM    6  C7  UNL     1      29.730   5.426  48.154  1.00  0.00    -0.020 C 
HETATM    7  C8  UNL     1      31.000   5.116  48.304  1.00  0.00    -0.010 C 
HETATM    8  C9  UNL     1      32.426   5.305  48.173  1.00  0.00     0.155 C 
HETATM    9  N1  UNL     1      32.935   6.536  47.637  1.00  0.00    -0.326 N 
HETATM   10  C10 UNL     1      33.192   6.672  46.220  1.00  0.00     0.323 C 
HETATM   11  O2  UNL     1      33.643   7.720  45.633  1.00  0.00    -0.247 OA
HETATM   12  N2  UNL     1      32.968   5.626  45.284  1.00  0.00    -0.312 N 
HETATM   13  C16 UNL     1      33.298   7.807  48.370  1.00  0.00     0.166 C 
HETATM   14  C17 UNL     1      32.199   8.790  48.175  1.00  0.00    -0.039 A 
HETATM   15  C18 UNL     1      32.152  10.054  47.572  1.00  0.00     0.012 A 
HETATM   16  C19 UNL     1      30.940  10.694  47.378  1.00  0.00     0.044 A 
HETATM   17  C20 UNL     1      29.735  10.095  47.776  1.00  0.00     0.129 A 
HETATM   18  F1  UNL     1      28.640  10.870  47.504  1.00  0.00    -0.205 F 
HETATM   19  C21 UNL     1      29.656   8.833  48.392  1.00  0.00     0.037 A 
HETATM   20  C22 UNL     1      30.938   8.450  48.464  1.00  0.00     0.026 A 
HETATM   21  H15 UNL     1      32.602   4.707  45.617  1.00  0.00     0.170 HD
ENDROOT
BRANCH  12  22
HETATM   22  C11 UNL     1      33.270   5.928  43.931  1.00  0.00     0.017 A 
HETATM   23  C12 UNL     1      34.360   5.458  43.394  1.00  0.00     0.025 A 
HETATM   24  C13 UNL     1      34.448   5.909  41.991  1.00  0.00    -0.002 A 
HETATM   25  C14 UNL     1      33.384   6.665  41.691  1.00  0.00    -0.021 A 
HETATM   26  C15 UNL     1      32.539   6.742  42.906  1.00  0.00     0.084 A 
ENDBRANCH  12  22
BRANCH   1  27
HETATM   27  O1  UNL     1      27.472   9.243  49.080  1.00  0.00    -0.355 OA
HETATM   28  C1  UNL     1      27.319   9.561  50.450  1.00  0.00     0.210 C 
ENDBRANCH   1  27
TORSDOF 2
ENDMDL
MODEL 4
REMARK VINA RESULT:      -7.4      4.213      6.791
REMARK  2 active torsions:
REMARK  status: ('A' for Active; 'I' for Inactive)
REMARK    1  A    between atoms: O1_2  and  C2_3 
REMARK       I    between atoms: N1_11  and  C10_12 
REMARK       I    between atoms: C10_12  and  N2_14 
REMARK    2  A    between atoms: N2_14  and  C11_15 
ROOT
HETATM    1  C2  UNL     1      21.504   1.652  52.506  1.00  0.00     0.084 C 
HETATM    2  C3  UNL     1      21.171   0.635  53.357  1.00  0.00    -0.042 C 
HETATM    3  C4  UNL     1      22.354   0.217  54.192  1.00  0.00     0.047 C 
HETATM    4  C5  UNL     1      20.079  -0.329  53.676  1.00  0.00     0.035 C 
HETATM    5  C6  UNL     1      20.525  -1.715  54.027  1.00  0.00     0.019 C 
HETATM    6  C7  UNL     1      19.008  -0.354  52.656  1.00  0.00    -0.020 C 
HETATM    7  C8  UNL     1      18.062  -0.536  51.759  1.00  0.00    -0.010 C 
HETATM    8  C9  UNL     1      17.072  -0.131  50.789  1.00  0.00     0.155 C 
HETATM    9  N1  UNL     1      16.963   1.252  50.417  1.00  0.00    -0.326 N 
HETATM   10  C10 UNL     1      16.055   2.133  51.116  1.00  0.00     0.323 C 
HETATM   11  O2  UNL     1      15.877   3.380  50.872  1.00  0.00    -0.247 OA
HETATM   12  N2  UNL     1      15.226   1.705  52.188  1.00  0.00    -0.312 N 
HETATM   13  C16 UNL     1      17.682   1.991  49.312  1.00  0.00     0.166 C 
HETATM   14  C17 UNL     1      18.782   2.788  49.919  1.00  0.00    -0.039 A 
HETATM   15  C18 UNL     1      19.041   4.165  49.971  1.00  0.00     0.012 A 
HETATM   16  C19 UNL     1      20.067   4.655  50.759  1.00  0.00     0.044 A 
HETATM   17  C20 UNL     1      20.869   3.793  51.522  1.00  0.00     0.129 A 
HETATM   18  F1  UNL     1      21.829   4.453  52.238  1.00  0.00    -0.205 F 
HETATM   19  C21 UNL     1      20.707   2.396  51.550  1.00  0.00     0.037 A 
HETATM   20  C22 UNL     1      19.676   2.194  50.717  1.00  0.00     0.026 A 
HETATM   21  H15 UNL     1      15.260   0.710  52.500  1.00  0.00     0.170 HD
ENDROOT
BRANCH  12  22
HETATM   22  C11 UNL     1      14.395   2.700  52.766  1.00  0.00     0.017 A 
HETATM   23  C12 UNL     1      13.100   2.582  52.687  1.00  0.00     0.025 A 
HETATM   24  C13 UNL     1      12.463   3.734  53.357  1.00  0.00    -0.002 A 
HETATM   25  C14 UNL     1      13.404   4.553  53.843  1.00  0.00    -0.021 A 
HETATM   26  C15 UNL     1      14.721   3.963  53.507  1.00  0.00     0.084 A 
ENDBRANCH  12  22
BRANCH   1  27
HETATM   27  O1  UNL     1      22.805   2.115  52.514  1.00  0.00    -0.355 OA
HETATM   28  C1  UNL     1      23.758   1.818  51.512  1.00  0.00     0.210 C 
ENDBRANCH   1  27
TORSDOF 2
ENDMDL
MODEL 5
REMARK VINA RESULT:      -7.0      5.326      8.210
REMARK  2 active torsions:
REMARK  status: ('A' for Active; 'I' for Inactive)
REMARK    1  A    between atoms: O1_2  and  C2_3 
REMARK       I    between atoms: N1_11  and  C10_12 
REMARK       I    between atoms: C10_12  and  N2_14 
REMARK    2  A    between atoms: N2_14  and  C11_15 
ROOT
HETATM    1  C2  UNL     1      19.860   1.031  50.852  1.00  0.00     0.084 C 
HETATM    2  C3  UNL     1      20.205   0.681  52.128  1.00  0.00    -0.042 C 
HETATM    3  C4  UNL     1      21.641   1.036  52.419  1.00  0.00     0.047 C 
HETATM    4  C5  UNL     1      19.714  -0.065  53.322  1.00  0.00     0.035 C 
HETATM    5  C6  UNL     1      20.745  -0.878  54.043  1.00  0.00     0.019 C 
HETATM    6  C7  UNL     1      18.498  -0.860  53.052  1.00  0.00    -0.020 C 
HETATM    7  C8  UNL     1      17.486  -1.687  52.892  1.00  0.00    -0.010 C 
HETATM    8  C9  UNL     1      16.187  -2.102  52.418  1.00  0.00     0.155 C 
HETATM    9  N1  UNL     1      15.447  -1.250  51.530  1.00  0.00    -0.326 N 
HETATM   10  C10 UNL     1      14.504  -0.285  52.051  1.00  0.00     0.323 C 
HETATM   11  O2  UNL     1      13.794   0.526  51.355  1.00  0.00    -0.247 OA
HETATM   12  N2  UNL     1      14.247  -0.118  53.439  1.00  0.00    -0.312 N 
HETATM   13  C16 UNL     1      15.476  -1.207  50.019  1.00  0.00     0.166 C 
HETATM   14  C17 UNL     1      16.301  -0.043  49.599  1.00  0.00    -0.039 A 
HETATM   15  C18 UNL     1      16.006   1.116  48.867  1.00  0.00     0.012 A 
HETATM   16  C19 UNL     1      16.936   2.134  48.761  1.00  0.00     0.044 A 
HETATM   17  C20 UNL     1      18.191   2.035  49.382  1.00  0.00     0.129 A 
HETATM   18  F1  UNL     1      18.977   3.134  49.171  1.00  0.00    -0.205 F 
HETATM   19  C21 UNL     1      18.601   0.923  50.140  1.00  0.00     0.037 A 
HETATM   20  C22 UNL     1      17.542   0.105  50.076  1.00  0.00     0.026 A 
HETATM   21  H15 UNL     1      14.754  -0.713  54.131  1.00  0.00     0.170 HD
ENDROOT
BRANCH  12  22
HETATM   22  C11 UNL     1      13.294   0.876  53.779  1.00  0.00     0.017 A 
HETATM   23  C12 UNL     1      13.522   2.120  53.463  1.00  0.00     0.025 A 
HETATM   24  C13 UNL     1      12.393   2.954  53.920  1.00  0.00    -0.002 A 
HETATM   25  C14 UNL     1      11.476   2.186  54.522  1.00  0.00    -0.021 A 
HETATM   26  C15 UNL     1      11.973   0.791  54.483  1.00  0.00     0.084 A 
ENDBRANCH  12  22
BRANCH   1  27
HETATM   27  O1  UNL     1      20.822   1.609  50.048  1.00  0.00    -0.355 OA
HETATM   28  C1  UNL     1      21.469   0.942  48.982  1.00  0.00     0.210 C 
ENDBRANCH   1  27
TORSDOF 2
ENDMDL
MODEL 6
REMARK VINA RESULT:      -6.8      5.201      8.048
REMARK  2 active torsions:
REMARK  status: ('A' for Active; 'I' for Inactive)
REMARK    1  A    between atoms: O1_2  and  C2_3 
REMARK       I    between atoms: N1_11  and  C10_12 
REMARK       I    between atoms: C10_12  and  N2_14 
REMARK    2  A    between atoms: N2_14  and  C11_15 
ROOT
HETATM    1  C2  UNL     1      19.716   0.274  52.616  1.00  0.00     0.084 C 
HETATM    2  C3  UNL     1      19.218  -0.783  53.327  1.00  0.00    -0.042 C 
HETATM    3  C4  UNL     1      20.319  -1.531  54.033  1.00  0.00     0.047 C 
HETATM    4  C5  UNL     1      17.972  -1.569  53.556  1.00  0.00     0.035 C 
HETATM    5  C6  UNL     1      18.158  -3.051  53.681  1.00  0.00     0.019 C 
HETATM    6  C7  UNL     1      16.894  -1.245  52.598  1.00  0.00    -0.020 C 
HETATM    7  C8  UNL     1      15.911  -1.114  51.732  1.00  0.00    -0.010 C 
HETATM    8  C9  UNL     1      14.994  -0.394  50.880  1.00  0.00     0.155 C 
HETATM    9  N1  UNL     1      15.137   1.026  50.718  1.00  0.00    -0.326 N 
HETATM   10  C10 UNL     1      14.425   1.942  51.581  1.00  0.00     0.323 C 
HETATM   11  O2  UNL     1      14.479   3.222  51.530  1.00  0.00    -0.247 OA
HETATM   12  N2  UNL     1      13.554   1.514  52.620  1.00  0.00    -0.312 N 
HETATM   13  C16 UNL     1      15.958   1.782  49.698  1.00  0.00     0.166 C 
HETATM   14  C17 UNL     1      17.200   2.264  50.359  1.00  0.00    -0.039 A 
HETATM   15  C18 UNL     1      17.713   3.546  50.598  1.00  0.00     0.012 A 
HETATM   16  C19 UNL     1      18.830   3.717  51.397  1.00  0.00     0.044 A 
HETATM   17  C20 UNL     1      19.472   2.618  51.986  1.00  0.00     0.129 A 
HETATM   18  F1  UNL     1      20.555   2.977  52.742  1.00  0.00    -0.205 F 
HETATM   19  C21 UNL     1      19.052   1.286  51.819  1.00  0.00     0.037 A 
HETATM   20  C22 UNL     1      17.985   1.403  51.017  1.00  0.00     0.026 A 
HETATM   21  H15 UNL     1      13.408   0.494  52.782  1.00  0.00     0.170 HD
ENDROOT
BRANCH  12  22
HETATM   22  C11 UNL     1      12.937   2.545  53.376  1.00  0.00     0.017 A 
HETATM   23  C12 UNL     1      11.915   2.263  54.134  1.00  0.00     0.025 A 
HETATM   24  C13 UNL     1      11.455   3.492  54.811  1.00  0.00    -0.002 A 
HETATM   25  C14 UNL     1      12.223   4.525  54.443  1.00  0.00    -0.021 A 
HETATM   26  C15 UNL     1      13.237   4.009  53.494  1.00  0.00     0.084 A 
ENDBRANCH  12  22
BRANCH   1  27
HETATM   27  O1  UNL     1      21.081   0.485  52.628  1.00  0.00    -0.355 OA
HETATM   28  C1  UNL     1      21.924   0.280  51.511  1.00  0.00     0.210 C 
ENDBRANCH   1  27
TORSDOF 2
ENDMDL
MODEL 7
REMARK VINA RESULT:      -6.7      7.171     10.373
REMARK  2 active torsions:
REMARK  status: ('A' for Active; 'I' for Inactive)
REMARK    1  A    between atoms: O1_2  and  C2_3 
REMARK       I    between atoms: N1_11  and  C10_12 
REMARK       I    between atoms: C10_12  and  N2_14 
REMARK    2  A    between atoms: N2_14  and  C11_15 
ROOT
HETATM    1  C2  UNL     1      24.375   8.225  46.963  1.00  0.00     0.084 C 
HETATM    2  C3  UNL     1      24.152   7.676  48.195  1.00  0.00    -0.042 C 
HETATM    3  C4  UNL     1      22.712   7.259  48.352  1.00  0.00     0.047 C 
HETATM    4  C5  UNL     1      24.792   7.458  49.524  1.00  0.00     0.035 C 
HETATM    5  C6  UNL     1      23.895   7.641  50.710  1.00  0.00     0.019 C 
HETATM    6  C7  UNL     1      26.058   8.203  49.690  1.00  0.00    -0.020 C 
HETATM    7  C8  UNL     1      27.131   8.907  49.984  1.00  0.00    -0.010 C 
HETATM    8  C9  UNL     1      28.428   9.492  49.742  1.00  0.00     0.155 C 
HETATM    9  N1  UNL     1      29.021   9.396  48.437  1.00  0.00    -0.326 N 
HETATM   10  C10 UNL     1      29.901   8.296  48.108  1.00  0.00     0.323 C 
HETATM   11  O2  UNL     1      30.482   8.108  46.980  1.00  0.00    -0.247 OA
HETATM   12  N2  UNL     1      30.234   7.264  49.026  1.00  0.00    -0.312 N 
HETATM   13  C16 UNL     1      28.885  10.342  47.266  1.00  0.00     0.166 C 
HETATM   14  C17 UNL     1      27.926   9.750  46.295  1.00  0.00    -0.039 A 
HETATM   15  C18 UNL     1      28.060   9.332  44.963  1.00  0.00     0.012 A 
HETATM   16  C19 UNL     1      27.031   8.652  44.336  1.00  0.00     0.044 A 
HETATM   17  C20 UNL     1      25.836   8.363  45.014  1.00  0.00     0.129 A 
HETATM   18  F1  UNL     1      24.936   7.684  44.239  1.00  0.00    -0.205 F 
HETATM   19  C21 UNL     1      25.587   8.731  46.348  1.00  0.00     0.037 A 
HETATM   20  C22 UNL     1      26.713   9.365  46.703  1.00  0.00     0.026 A 
HETATM   21  H15 UNL     1      29.835   7.284  49.990  1.00  0.00     0.170 HD
ENDROOT
BRANCH  12  22
HETATM   22  C11 UNL     1      31.109   6.258  48.539  1.00  0.00     0.017 A 
HETATM   23  C12 UNL     1      30.626   5.269  47.842  1.00  0.00     0.025 A 
HETATM   24  C13 UNL     1      31.726   4.363  47.454  1.00  0.00    -0.002 A 
HETATM   25  C14 UNL     1      32.886   4.827  47.934  1.00  0.00    -0.021 A 
HETATM   26  C15 UNL     1      32.592   6.080  48.669  1.00  0.00     0.084 A 
ENDBRANCH  12  22
BRANCH   1  27
HETATM   27  O1  UNL     1      23.309   8.333  46.091  1.00  0.00    -0.355 OA
HETATM   28  C1  UNL     1      22.647   9.547  45.796  1.00  0.00     0.210 C 
ENDBRANCH   1  27
TORSDOF 2
ENDMDL
MODEL 8
REMARK VINA RESULT:      -6.5     10.251     12.971
REMARK  2 active torsions:
REMARK  status: ('A' for Active; 'I' for Inactive)
REMARK    1  A    between atoms: O1_2  and  C2_3 
REMARK       I    between atoms: N1_11  and  C10_12 
REMARK       I    between atoms: C10_12  and  N2_14 
REMARK    2  A    between atoms: N2_14  and  C11_15 
ROOT
HETATM    1  C2  UNL     1      28.496  10.857  46.599  1.00  0.00     0.084 C 
HETATM    2  C3  UNL     1      27.566   9.897  46.311  1.00  0.00    -0.042 C 
HETATM    3  C4  UNL     1      26.257  10.517  45.895  1.00  0.00     0.047 C 
HETATM    4  C5  UNL     1      27.322   8.428  46.388  1.00  0.00     0.035 C 
HETATM    5  C6  UNL     1      25.936   8.025  46.788  1.00  0.00     0.019 C 
HETATM    6  C7  UNL     1      28.338   7.710  47.187  1.00  0.00    -0.020 C 
HETATM    7  C8  UNL     1      29.121   6.993  47.966  1.00  0.00    -0.010 C 
HETATM    8  C9  UNL     1      30.378   6.554  48.524  1.00  0.00     0.155 C 
HETATM    9  N1  UNL     1      31.591   7.242  48.177  1.00  0.00    -0.326 N 
HETATM   10  C10 UNL     1      32.393   6.800  47.057  1.00  0.00     0.323 C 
HETATM   11  O2  UNL     1      33.487   7.336  46.656  1.00  0.00    -0.247 OA
HETATM   12  N2  UNL     1      32.050   5.684  46.246  1.00  0.00    -0.312 N 
HETATM   13  C16 UNL     1      32.229   8.431  48.856  1.00  0.00     0.166 C 
HETATM   14  C17 UNL     1      31.933   9.646  48.051  1.00  0.00    -0.039 A 
HETATM   15  C18 UNL     1      32.753  10.558  47.371  1.00  0.00     0.012 A 
HETATM   16  C19 UNL     1      32.197  11.521  46.547  1.00  0.00     0.044 A 
HETATM   17  C20 UNL     1      30.807  11.607  46.372  1.00  0.00     0.129 A 
HETATM   18  F1  UNL     1      30.440  12.616  45.523  1.00  0.00    -0.205 F 
HETATM   19  C21 UNL     1      29.886  10.751  47.000  1.00  0.00     0.037 A 
HETATM   20  C22 UNL     1      30.670   9.941  47.725  1.00  0.00     0.026 A 
HETATM   21  H15 UNL     1      31.181   5.144  46.454  1.00  0.00     0.170 HD
ENDROOT
BRANCH  12  22
HETATM   22  C11 UNL     1      32.946   5.389  45.186  1.00  0.00     0.017 A 
HETATM   23  C12 UNL     1      33.906   4.528  45.376  1.00  0.00     0.025 A 
HETATM   24  C13 UNL     1      34.695   4.395  44.134  1.00  0.00    -0.002 A 
HETATM   25  C14 UNL     1      34.190   5.197  43.189  1.00  0.00    -0.021 A 
HETATM   26  C15 UNL     1      33.028   5.902  43.779  1.00  0.00     0.084 A 
ENDBRANCH  12  22
BRANCH   1  27
HETATM   27  O1  UNL     1      28.124  12.183  46.495  1.00  0.00    -0.355 OA
HETATM   28  C1  UNL     1      27.861  13.021  47.603  1.00  0.00     0.210 C 
ENDBRANCH   1  27
TORSDOF 2
ENDMDL
MODEL 9
REMARK VINA RESULT:      -6.5      2.448      3.374
REMARK  2 active torsions:
REMARK  status: ('A' for Active; 'I' for Inactive)
REMARK    1  A    between atoms: O1_2  and  C2_3 
REMARK       I    between atoms: N1_11  and  C10_12 
REMARK       I    between atoms: C10_12  and  N2_14 
REMARK    2  A    between atoms: N2_14  and  C11_15 
ROOT
HETATM    1  C2  UNL     1      24.535   2.840  51.472  1.00  0.00     0.084 C 
HETATM    2  C3  UNL     1      25.450   3.037  50.475  1.00  0.00    -0.042 C 
HETATM    3  C4  UNL     1      26.704   2.239  50.723  1.00  0.00     0.047 C 
HETATM    4  C5  UNL     1      25.724   3.876  49.273  1.00  0.00     0.035 C 
HETATM    5  C6  UNL     1      27.149   4.305  49.099  1.00  0.00     0.019 C 
HETATM    6  C7  UNL     1      24.800   5.022  49.139  1.00  0.00    -0.020 C 
HETATM    7  C8  UNL     1      24.106   6.130  48.985  1.00  0.00    -0.010 C 
HETATM    8  C9  UNL     1      22.915   6.945  48.964  1.00  0.00     0.155 C 
HETATM    9  N1  UNL     1      21.663   6.389  49.399  1.00  0.00    -0.326 N 
HETATM   10  C10 UNL     1      20.768   5.763  48.453  1.00  0.00     0.323 C 
HETATM   11  O2  UNL     1      19.632   5.234  48.727  1.00  0.00    -0.247 OA
HETATM   12  N2  UNL     1      21.051   5.658  47.064  1.00  0.00    -0.312 N 
HETATM   13  C16 UNL     1      21.072   6.370  50.789  1.00  0.00     0.166 C 
HETATM   14  C17 UNL     1      21.270   5.013  51.365  1.00  0.00    -0.039 A 
HETATM   15  C18 UNL     1      20.376   4.023  51.795  1.00  0.00     0.012 A 
HETATM   16  C19 UNL     1      20.836   2.764  52.139  1.00  0.00     0.044 A 
HETATM   17  C20 UNL     1      22.201   2.448  52.065  1.00  0.00     0.129 A 
HETATM   18  F1  UNL     1      22.470   1.160  52.441  1.00  0.00    -0.205 F 
HETATM   19  C21 UNL     1      23.192   3.356  51.651  1.00  0.00     0.037 A 
HETATM   20  C22 UNL     1      22.492   4.469  51.391  1.00  0.00     0.026 A 
HETATM   21  H15 UNL     1      21.944   6.048  46.690  1.00  0.00     0.170 HD
ENDROOT
BRANCH  12  22
HETATM   22  C11 UNL     1      20.065   5.010  46.276  1.00  0.00     0.017 A 
HETATM   23  C12 UNL     1      19.223   5.725  45.583  1.00  0.00     0.025 A 
HETATM   24  C13 UNL     1      18.304   4.827  44.855  1.00  0.00    -0.002 A 
HETATM   25  C14 UNL     1      18.610   3.551  45.124  1.00  0.00    -0.021 A 
HETATM   26  C15 UNL     1      19.762   3.559  46.055  1.00  0.00     0.084 A 
ENDBRANCH  12  22
BRANCH   1  27
HETATM   27  O1  UNL     1      24.874   2.003  52.517  1.00  0.00    -0.355 OA
HETATM   28  C1  UNL     1      25.343   2.454  53.773  1.00  0.00     0.210 C 
ENDBRANCH   1  27
TORSDOF 2
ENDMDL
