MODEL 1
REMARK VINA RESULT:      -7.3      0.000      0.000
REMARK  4 active torsions:
REMARK  status: ('A' for Active; 'I' for Inactive)
REMARK    1  A    between atoms: O1_2  and  C2_3 
REMARK    2  A    between atoms: C5_6  and  S1_7 
REMARK    3  A    between atoms: S1_7  and  C6_8 
REMARK    4  A    between atoms: C14_19  and  O3_20 
ROOT
HETATM    1  S1  UNL     1      23.682   1.050  52.388  1.00  0.00    -0.070 SA
ENDROOT
BRANCH   1   2
HETATM    2  C5  UNL     1      25.401   0.718  52.657  1.00  0.00     0.009 A 
HETATM    3  C4  UNL     1      26.154  -0.384  52.402  1.00  0.00     0.022 A 
HETATM    4  C3  UNL     1      27.498  -0.421  52.700  1.00  0.00     0.041 A 
HETATM    5  C2  UNL     1      28.136   0.643  53.262  1.00  0.00     0.101 A 
HETATM    6  C14 UNL     1      27.405   1.772  53.533  1.00  0.00     0.100 A 
HETATM    7  C13 UNL     1      26.038   1.819  53.233  1.00  0.00     0.058 A 
BRANCH   5   8
HETATM    8  O1  UNL     1      29.488   0.603  53.560  1.00  0.00    -0.353 OA
HETATM    9  C1  UNL     1      30.204  -0.611  53.691  1.00  0.00     0.210 C 
ENDBRANCH   5   8
BRANCH   6  10
HETATM   10  O3  UNL     1      28.088   2.845  54.109  1.00  0.00    -0.358 OA
HETATM   11  H14 UNL     1      28.203   3.742  53.672  1.00  0.00     0.217 HD
ENDBRANCH   6  10
ENDBRANCH   1   2
BRANCH   1  12
HETATM   12  C6  UNL     1      22.649  -0.044  53.336  1.00  0.00     0.110 A 
HETATM   13  N1  UNL     1      22.972  -0.778  54.342  1.00  0.00    -0.234 NA
HETATM   14  C7  UNL     1      21.970  -1.579  54.948  1.00  0.00     0.228 A 
HETATM   15  N2  UNL     1      20.738  -1.661  54.599  1.00  0.00    -0.278 NA
HETATM   16  C8  UNL     1      20.173  -0.922  53.496  1.00  0.00     0.194 A 
HETATM   17  C9  UNL     1      21.257  -0.103  52.900  1.00  0.00     0.027 A 
HETATM   18  C10 UNL     1      20.718   0.584  51.872  1.00  0.00     0.059 C 
HETATM   19  C11 UNL     1      19.467   0.864  51.077  1.00  0.00     0.092 C 
HETATM   20  O2  UNL     1      21.374   1.478  51.027  1.00  0.00    -0.354 OA
HETATM   21  C12 UNL     1      20.492   1.108  50.002  1.00  0.00     0.181 C 
ENDBRANCH   1  12
TORSDOF 4
ENDMDL
MODEL 2
REMARK VINA RESULT:      -7.2      2.159      3.003
REMARK  4 active torsions:
REMARK  status: ('A' for Active; 'I' for Inactive)
REMARK    1  A    between atoms: O1_2  and  C2_3 
REMARK    2  A    between atoms: C5_6  and  S1_7 
REMARK    3  A    between atoms: S1_7  and  C6_8 
REMARK    4  A    between atoms: C14_19  and  O3_20 
ROOT
HETATM    1  S1  UNL     1      23.986   2.261  52.927  1.00  0.00    -0.070 SA
ENDROOT
BRANCH   1   2
HETATM    2  C5  UNL     1      25.549   1.429  52.978  1.00  0.00     0.009 A 
HETATM    3  C4  UNL     1      25.923   0.194  52.552  1.00  0.00     0.022 A 
HETATM    4  C3  UNL     1      27.217  -0.256  52.697  1.00  0.00     0.041 A 
HETATM    5  C2  UNL     1      28.182   0.515  53.272  1.00  0.00     0.101 A 
HETATM    6  C14 UNL     1      27.838   1.767  53.714  1.00  0.00     0.100 A 
HETATM    7  C13 UNL     1      26.525   2.233  53.571  1.00  0.00     0.058 A 
BRANCH   5   8
HETATM    8  O1  UNL     1      29.482   0.060  53.416  1.00  0.00    -0.353 OA
HETATM    9  C1  UNL     1      29.797  -1.309  53.587  1.00  0.00     0.210 C 
ENDBRANCH   5   8
BRANCH   6  10
HETATM   10  O3  UNL     1      28.848   2.532  54.300  1.00  0.00    -0.358 OA
HETATM   11  H14 UNL     1      29.579   2.991  53.786  1.00  0.00     0.217 HD
ENDBRANCH   6  10
ENDBRANCH   1   2
BRANCH   1  12
HETATM   12  C6  UNL     1      23.097   1.891  51.432  1.00  0.00     0.110 A 
HETATM   13  N1  UNL     1      23.271   2.382  50.256  1.00  0.00    -0.234 NA
HETATM   14  C7  UNL     1      22.435   1.933  49.202  1.00  0.00     0.228 A 
HETATM   15  N2  UNL     1      21.493   1.065  49.286  1.00  0.00    -0.278 NA
HETATM   16  C8  UNL     1      21.135   0.396  50.514  1.00  0.00     0.194 A 
HETATM   17  C9  UNL     1      22.036   0.899  51.579  1.00  0.00     0.027 A 
HETATM   18  C10 UNL     1      21.694   0.268  52.721  1.00  0.00     0.059 C 
HETATM   19  C11 UNL     1      20.773  -0.739  53.363  1.00  0.00     0.092 C 
HETATM   20  O2  UNL     1      22.277   0.434  53.977  1.00  0.00    -0.354 OA
HETATM   21  C12 UNL     1      21.036   0.138  54.558  1.00  0.00     0.181 C 
ENDBRANCH   1  12
TORSDOF 4
ENDMDL
MODEL 3
REMARK VINA RESULT:      -7.0      3.142      4.154
REMARK  4 active torsions:
REMARK  status: ('A' for Active; 'I' for Inactive)
REMARK    1  A    between atoms: O1_2  and  C2_3 
REMARK    2  A    between atoms: C5_6  and  S1_7 
REMARK    3  A    between atoms: S1_7  and  C6_8 
REMARK    4  A    between atoms: C14_19  and  O3_20 
ROOT
HETATM    1  S1  UNL     1      22.897   2.581  52.324  1.00  0.00    -0.070 SA
ENDROOT
BRANCH   1   2
HETATM    2  C5  UNL     1      24.213   1.601  52.993  1.00  0.00     0.009 A 
HETATM    3  C4  UNL     1      24.305   0.267  53.234  1.00  0.00     0.022 A 
HETATM    4  C3  UNL     1      25.446  -0.289  53.769  1.00  0.00     0.041 A 
HETATM    5  C2  UNL     1      26.533   0.470  54.082  1.00  0.00     0.101 A 
HETATM    6  C14 UNL     1      26.473   1.822  53.851  1.00  0.00     0.100 A 
HETATM    7  C13 UNL     1      25.317   2.396  53.307  1.00  0.00     0.058 A 
BRANCH   5   8
HETATM    8  O1  UNL     1      27.679  -0.092  54.620  1.00  0.00    -0.353 OA
HETATM    9  C1  UNL     1      28.704  -0.649  53.818  1.00  0.00     0.210 C 
ENDBRANCH   5   8
BRANCH   6  10
HETATM   10  O3  UNL     1      27.602   2.572  54.182  1.00  0.00    -0.358 OA
HETATM   11  H14 UNL     1      28.152   3.089  53.519  1.00  0.00     0.217 HD
ENDBRANCH   6  10
ENDBRANCH   1   2
BRANCH   1  12
HETATM   12  C6  UNL     1      22.395   1.997  50.721  1.00  0.00     0.110 A 
HETATM   13  N1  UNL     1      21.655   0.984  50.434  1.00  0.00    -0.234 NA
HETATM   14  C7  UNL     1      21.384   0.706  49.071  1.00  0.00     0.228 A 
HETATM   15  N2  UNL     1      21.805   1.367  48.054  1.00  0.00    -0.278 NA
HETATM   16  C8  UNL     1      22.647   2.533  48.157  1.00  0.00     0.194 A 
HETATM   17  C9  UNL     1      22.899   2.781  49.598  1.00  0.00     0.027 A 
HETATM   18  C10 UNL     1      23.686   3.873  49.683  1.00  0.00     0.059 C 
HETATM   19  C11 UNL     1      24.417   4.947  48.917  1.00  0.00     0.092 C 
HETATM   20  O2  UNL     1      24.172   4.466  50.847  1.00  0.00    -0.354 OA
HETATM   21  C12 UNL     1      25.307   4.872  50.129  1.00  0.00     0.181 C 
ENDBRANCH   1  12
TORSDOF 4
ENDMDL
MODEL 4
REMARK VINA RESULT:      -6.9      2.513      3.192
REMARK  4 active torsions:
REMARK  status: ('A' for Active; 'I' for Inactive)
REMARK    1  A    between atoms: O1_2  and  C2_3 
REMARK    2  A    between atoms: C5_6  and  S1_7 
REMARK    3  A    between atoms: S1_7  and  C6_8 
REMARK    4  A    between atoms: C14_19  and  O3_20 
ROOT
HETATM    1  S1  UNL     1      24.452   2.488  53.073  1.00  0.00    -0.070 SA
ENDROOT
BRANCH   1   2
HETATM    2  C5  UNL     1      25.966   1.569  53.097  1.00  0.00     0.009 A 
HETATM    3  C4  UNL     1      26.258   0.310  52.677  1.00  0.00     0.022 A 
HETATM    4  C3  UNL     1      27.528  -0.211  52.796  1.00  0.00     0.041 A 
HETATM    5  C2  UNL     1      28.549   0.510  53.338  1.00  0.00     0.101 A 
HETATM    6  C14 UNL     1      28.288   1.785  53.772  1.00  0.00     0.100 A 
HETATM    7  C13 UNL     1      27.000   2.323  53.655  1.00  0.00     0.058 A 
BRANCH   5   8
HETATM    8  O1  UNL     1      29.825  -0.016  53.456  1.00  0.00    -0.353 OA
HETATM    9  C1  UNL     1      30.063  -1.373  53.780  1.00  0.00     0.210 C 
ENDBRANCH   5   8
BRANCH   6  10
HETATM   10  O3  UNL     1      29.354   2.497  54.322  1.00  0.00    -0.358 OA
HETATM   11  H14 UNL     1      29.566   2.530  55.304  1.00  0.00     0.217 HD
ENDBRANCH   6  10
ENDBRANCH   1   2
BRANCH   1  12
HETATM   12  C6  UNL     1      23.207   1.674  52.097  1.00  0.00     0.110 A 
HETATM   13  N1  UNL     1      22.437   0.701  52.434  1.00  0.00    -0.234 NA
HETATM   14  C7  UNL     1      21.510   0.209  51.481  1.00  0.00     0.228 A 
HETATM   15  N2  UNL     1      21.342   0.634  50.281  1.00  0.00    -0.278 NA
HETATM   16  C8  UNL     1      22.105   1.716  49.708  1.00  0.00     0.194 A 
HETATM   17  C9  UNL     1      23.056   2.194  50.741  1.00  0.00     0.027 A 
HETATM   18  C10 UNL     1      23.762   3.205  50.196  1.00  0.00     0.059 C 
HETATM   19  C11 UNL     1      23.985   4.051  48.968  1.00  0.00     0.092 C 
HETATM   20  O2  UNL     1      24.769   3.949  50.810  1.00  0.00    -0.354 OA
HETATM   21  C12 UNL     1      25.371   4.112  49.553  1.00  0.00     0.181 C 
ENDBRANCH   1  12
TORSDOF 4
ENDMDL
MODEL 5
REMARK VINA RESULT:      -6.8      3.529      4.591
REMARK  4 active torsions:
REMARK  status: ('A' for Active; 'I' for Inactive)
REMARK    1  A    between atoms: O1_2  and  C2_3 
REMARK    2  A    between atoms: C5_6  and  S1_7 
REMARK    3  A    between atoms: S1_7  and  C6_8 
REMARK    4  A    between atoms: C14_19  and  O3_20 
ROOT
HETATM    1  S1  UNL     1      23.193   2.292  52.169  1.00  0.00    -0.070 SA
ENDROOT
BRANCH   1   2
HETATM    2  C5  UNL     1      24.635   1.291  52.406  1.00  0.00     0.009 A 
HETATM    3  C4  UNL     1      25.788   1.194  51.692  1.00  0.00     0.022 A 
HETATM    4  C3  UNL     1      26.794   0.332  52.066  1.00  0.00     0.041 A 
HETATM    5  C2  UNL     1      26.683  -0.463  53.167  1.00  0.00     0.101 A 
HETATM    6  C14 UNL     1      25.532  -0.390  53.911  1.00  0.00     0.100 A 
HETATM    7  C13 UNL     1      24.504   0.484  53.538  1.00  0.00     0.058 A 
BRANCH   5   8
HETATM    8  O1  UNL     1      27.698  -1.329  53.541  1.00  0.00    -0.353 OA
HETATM    9  C1  UNL     1      29.046  -0.916  53.662  1.00  0.00     0.210 C 
ENDBRANCH   5   8
BRANCH   6  10
HETATM   10  O3  UNL     1      25.449  -1.216  55.032  1.00  0.00    -0.358 OA
HETATM   11  H14 UNL     1      25.980  -1.082  55.874  1.00  0.00     0.217 HD
ENDBRANCH   6  10
ENDBRANCH   1   2
BRANCH   1  12
HETATM   12  C6  UNL     1      23.555   3.744  51.208  1.00  0.00     0.110 A 
HETATM   13  N1  UNL     1      24.039   4.867  51.606  1.00  0.00    -0.234 NA
HETATM   14  C7  UNL     1      24.246   5.894  50.651  1.00  0.00     0.228 A 
HETATM   15  N2  UNL     1      24.001   5.833  49.392  1.00  0.00    -0.278 NA
HETATM   16  C8  UNL     1      23.455   4.665  48.745  1.00  0.00     0.194 A 
HETATM   17  C9  UNL     1      23.258   3.625  49.783  1.00  0.00     0.027 A 
HETATM   18  C10 UNL     1      22.749   2.539  49.168  1.00  0.00     0.059 C 
HETATM   19  C11 UNL     1      22.296   1.943  47.858  1.00  0.00     0.092 C 
HETATM   20  O2  UNL     1      22.407   1.324  49.760  1.00  0.00    -0.354 OA
HETATM   21  C12 UNL     1      21.405   1.169  48.791  1.00  0.00     0.181 C 
ENDBRANCH   1  12
TORSDOF 4
ENDMDL
MODEL 6
REMARK VINA RESULT:      -6.6      1.939      2.413
REMARK  4 active torsions:
REMARK  status: ('A' for Active; 'I' for Inactive)
REMARK    1  A    between atoms: O1_2  and  C2_3 
REMARK    2  A    between atoms: C5_6  and  S1_7 
REMARK    3  A    between atoms: S1_7  and  C6_8 
REMARK    4  A    between atoms: C14_19  and  O3_20 
ROOT
HETATM    1  S1  UNL     1      23.156   2.194  52.353  1.00  0.00    -0.070 SA
ENDROOT
BRANCH   1   2
HETATM    2  C5  UNL     1      24.603   1.185  52.516  1.00  0.00     0.009 A 
HETATM    3  C4  UNL     1      25.705   1.064  51.731  1.00  0.00     0.022 A 
HETATM    4  C3  UNL     1      26.727   0.200  52.057  1.00  0.00     0.041 A 
HETATM    5  C2  UNL     1      26.682  -0.572  53.178  1.00  0.00     0.101 A 
HETATM    6  C14 UNL     1      25.582  -0.474  53.992  1.00  0.00     0.100 A 
HETATM    7  C13 UNL     1      24.538   0.402  53.670  1.00  0.00     0.058 A 
BRANCH   5   8
HETATM    8  O1  UNL     1      27.712  -1.440  53.503  1.00  0.00    -0.353 OA
HETATM    9  C1  UNL     1      29.070  -1.043  53.509  1.00  0.00     0.210 C 
ENDBRANCH   5   8
BRANCH   6  10
HETATM   10  O3  UNL     1      25.565  -1.278  55.133  1.00  0.00    -0.358 OA
HETATM   11  H14 UNL     1      24.735  -1.687  55.525  1.00  0.00     0.217 HD
ENDBRANCH   6  10
ENDBRANCH   1   2
BRANCH   1  12
HETATM   12  C6  UNL     1      21.667   1.237  52.530  1.00  0.00     0.110 A 
HETATM   13  N1  UNL     1      21.206   0.663  53.585  1.00  0.00    -0.234 NA
HETATM   14  C7  UNL     1      19.986  -0.053  53.490  1.00  0.00     0.228 A 
HETATM   15  N2  UNL     1      19.263  -0.202  52.440  1.00  0.00    -0.278 NA
HETATM   16  C8  UNL     1      19.602   0.360  51.155  1.00  0.00     0.194 A 
HETATM   17  C9  UNL     1      20.880   1.097  51.309  1.00  0.00     0.027 A 
HETATM   18  C10 UNL     1      21.187   1.618  50.103  1.00  0.00     0.059 C 
HETATM   19  C11 UNL     1      20.766   1.762  48.662  1.00  0.00     0.092 C 
HETATM   20  O2  UNL     1      22.305   2.388  49.784  1.00  0.00    -0.354 OA
HETATM   21  C12 UNL     1      22.258   1.860  48.485  1.00  0.00     0.181 C 
ENDBRANCH   1  12
TORSDOF 4
ENDMDL
MODEL 7
REMARK VINA RESULT:      -6.4      2.989      3.700
REMARK  4 active torsions:
REMARK  status: ('A' for Active; 'I' for Inactive)
REMARK    1  A    between atoms: O1_2  and  C2_3 
REMARK    2  A    between atoms: C5_6  and  S1_7 
REMARK    3  A    between atoms: S1_7  and  C6_8 
REMARK    4  A    between atoms: C14_19  and  O3_20 
ROOT
HETATM    1  S1  UNL     1      23.433   1.287  51.737  1.00  0.00    -0.070 SA
ENDROOT
BRANCH   1   2
HETATM    2  C5  UNL     1      25.047   0.959  52.389  1.00  0.00     0.009 A 
HETATM    3  C4  UNL     1      26.286   1.221  51.894  1.00  0.00     0.022 A 
HETATM    4  C3  UNL     1      27.424   0.870  52.584  1.00  0.00     0.041 A 
HETATM    5  C2  UNL     1      27.364   0.246  53.793  1.00  0.00     0.101 A 
HETATM    6  C14 UNL     1      26.129  -0.033  54.322  1.00  0.00     0.100 A 
HETATM    7  C13 UNL     1      24.966   0.320  53.627  1.00  0.00     0.058 A 
BRANCH   5   8
HETATM    8  O1  UNL     1      28.512  -0.105  54.485  1.00  0.00    -0.353 OA
HETATM    9  C1  UNL     1      29.598  -0.773  53.871  1.00  0.00     0.210 C 
ENDBRANCH   5   8
BRANCH   6  10
HETATM   10  O3  UNL     1      26.101  -0.674  55.562  1.00  0.00    -0.358 OA
HETATM   11  H14 UNL     1      26.199  -1.665  55.688  1.00  0.00     0.217 HD
ENDBRANCH   6  10
ENDBRANCH   1   2
BRANCH   1  12
HETATM   12  C6  UNL     1      23.114   3.033  51.628  1.00  0.00     0.110 A 
HETATM   13  N1  UNL     1      23.960   4.002  51.617  1.00  0.00    -0.234 NA
HETATM   14  C7  UNL     1      23.471   5.330  51.522  1.00  0.00     0.228 A 
HETATM   15  N2  UNL     1      22.242   5.692  51.443  1.00  0.00    -0.278 NA
HETATM   16  C8  UNL     1      21.138   4.763  51.441  1.00  0.00     0.194 A 
HETATM   17  C9  UNL     1      21.702   3.394  51.541  1.00  0.00     0.027 A 
HETATM   18  C10 UNL     1      20.663   2.534  51.537  1.00  0.00     0.059 C 
HETATM   19  C11 UNL     1      19.163   2.389  51.474  1.00  0.00     0.092 C 
HETATM   20  O2  UNL     1      20.726   1.143  51.616  1.00  0.00    -0.354 OA
HETATM   21  C12 UNL     1      19.487   1.155  52.273  1.00  0.00     0.181 C 
ENDBRANCH   1  12
TORSDOF 4
ENDMDL
MODEL 8
REMARK VINA RESULT:      -6.3      2.730      6.771
REMARK  4 active torsions:
REMARK  status: ('A' for Active; 'I' for Inactive)
REMARK    1  A    between atoms: O1_2  and  C2_3 
REMARK    2  A    between atoms: C5_6  and  S1_7 
REMARK    3  A    between atoms: S1_7  and  C6_8 
REMARK    4  A    between atoms: C14_19  and  O3_20 
ROOT
HETATM    1  S1  UNL     1      23.180   2.198  52.673  1.00  0.00    -0.070 SA
ENDROOT
BRANCH   1   2
HETATM    2  C5  UNL     1      21.717   1.198  52.670  1.00  0.00     0.009 A 
HETATM    3  C4  UNL     1      20.633   1.195  51.851  1.00  0.00     0.022 A 
HETATM    4  C3  UNL     1      19.592   0.313  52.039  1.00  0.00     0.041 A 
HETATM    5  C2  UNL     1      19.600  -0.597  53.053  1.00  0.00     0.101 A 
HETATM    6  C14 UNL     1      20.680  -0.621  53.899  1.00  0.00     0.100 A 
HETATM    7  C13 UNL     1      21.743   0.272  53.715  1.00  0.00     0.058 A 
BRANCH   5   8
HETATM    8  O1  UNL     1      18.552  -1.483  53.240  1.00  0.00    -0.353 OA
HETATM    9  C1  UNL     1      17.197  -1.106  53.080  1.00  0.00     0.210 C 
ENDBRANCH   5   8
BRANCH   6  10
HETATM   10  O3  UNL     1      20.658  -1.564  54.928  1.00  0.00    -0.358 OA
HETATM   11  H14 UNL     1      21.169  -2.428  54.914  1.00  0.00     0.217 HD
ENDBRANCH   6  10
ENDBRANCH   1   2
BRANCH   1  12
HETATM   12  C6  UNL     1      24.650   1.206  52.812  1.00  0.00     0.110 A 
HETATM   13  N1  UNL     1      24.891   0.245  53.633  1.00  0.00    -0.234 NA
HETATM   14  C7  UNL     1      26.147  -0.410  53.559  1.00  0.00     0.228 A 
HETATM   15  N2  UNL     1      27.103  -0.149  52.743  1.00  0.00    -0.278 NA
HETATM   16  C8  UNL     1      27.034   0.890  51.745  1.00  0.00     0.194 A 
HETATM   17  C9  UNL     1      25.707   1.542  51.863  1.00  0.00     0.027 A 
HETATM   18  C10 UNL     1      25.654   2.510  50.926  1.00  0.00     0.059 C 
HETATM   19  C11 UNL     1      26.387   3.206  49.807  1.00  0.00     0.092 C 
HETATM   20  O2  UNL     1      24.590   3.377  50.678  1.00  0.00    -0.354 OA
HETATM   21  C12 UNL     1      25.517   4.345  50.265  1.00  0.00     0.181 C 
ENDBRANCH   1  12
TORSDOF 4
ENDMDL
MODEL 9
REMARK VINA RESULT:      -6.3      6.457      7.496
REMARK  4 active torsions:
REMARK  status: ('A' for Active; 'I' for Inactive)
REMARK    1  A    between atoms: O1_2  and  C2_3 
REMARK    2  A    between atoms: C5_6  and  S1_7 
REMARK    3  A    between atoms: S1_7  and  C6_8 
REMARK    4  A    between atoms: C14_19  and  O3_20 
ROOT
HETATM    1  S1  UNL     1      24.982   5.957  48.956  1.00  0.00    -0.070 SA
ENDROOT
BRANCH   1   2
HETATM    2  C5  UNL     1      26.339   7.089  48.835  1.00  0.00     0.009 A 
HETATM    3  C4  UNL     1      27.278   7.265  47.868  1.00  0.00     0.022 A 
HETATM    4  C3  UNL     1      28.259   8.224  47.985  1.00  0.00     0.041 A 
HETATM    5  C2  UNL     1      28.335   9.040  49.073  1.00  0.00     0.101 A 
HETATM    6  C14 UNL     1      27.403   8.889  50.068  1.00  0.00     0.100 A 
HETATM    7  C13 UNL     1      26.401   7.917  49.957  1.00  0.00     0.058 A 
BRANCH   5   8
HETATM    8  O1  UNL     1      29.323  10.005  49.188  1.00  0.00    -0.353 OA
HETATM    9  C1  UNL     1      30.667   9.686  49.497  1.00  0.00     0.210 C 
ENDBRANCH   5   8
BRANCH   6  10
HETATM   10  O3  UNL     1      27.508   9.741  51.169  1.00  0.00    -0.358 OA
HETATM   11  H14 UNL     1      27.242   9.490  52.105  1.00  0.00     0.217 HD
ENDBRANCH   6  10
ENDBRANCH   1   2
BRANCH   1  12
HETATM   12  C6  UNL     1      25.405   4.531  49.933  1.00  0.00     0.110 A 
HETATM   13  N1  UNL     1      26.429   3.762  49.823  1.00  0.00    -0.234 NA
HETATM   14  C7  UNL     1      26.561   2.674  50.723  1.00  0.00     0.228 A 
HETATM   15  N2  UNL     1      25.751   2.355  51.666  1.00  0.00    -0.278 NA
HETATM   16  C8  UNL     1      24.542   3.087  51.957  1.00  0.00     0.194 A 
HETATM   17  C9  UNL     1      24.453   4.210  50.992  1.00  0.00     0.027 A 
HETATM   18  C10 UNL     1      23.321   4.888  51.273  1.00  0.00     0.059 C 
HETATM   19  C11 UNL     1      22.107   4.976  52.164  1.00  0.00     0.092 C 
HETATM   20  O2  UNL     1      22.837   6.018  50.616  1.00  0.00    -0.354 OA
HETATM   21  C12 UNL     1      21.533   5.598  50.919  1.00  0.00     0.181 C 
ENDBRANCH   1  12
TORSDOF 4
ENDMDL
