MODEL 1
REMARK VINA RESULT:      -8.1      0.000      0.000
REMARK  5 active torsions:
REMARK  status: ('A' for Active; 'I' for Inactive)
REMARK    1  A    between atoms: C2_2  and  C3_3 
REMARK    2  A    between atoms: C8_8  and  C9_9 
REMARK    3  A    between atoms: C15_17  and  S1_18 
REMARK    4  A    between atoms: S1_18  and  C16_19 
REMARK    5  A    between atoms: C17_20  and  O1_21 
ROOT
HETATM    1  C3  UNL     1      23.001   0.931  53.327  1.00  0.00     0.022 A 
HETATM    2  C4  UNL     1      21.657   0.913  53.634  1.00  0.00     0.012 A 
HETATM    3  C5  UNL     1      21.069  -0.107  54.354  1.00  0.00     0.001 A 
HETATM    4  C6  UNL     1      21.845  -1.175  54.801  1.00  0.00     0.001 A 
HETATM    5  C7  UNL     1      23.195  -1.127  54.475  1.00  0.00     0.013 A 
HETATM    6  C8  UNL     1      23.793  -0.089  53.743  1.00  0.00    -0.015 A 
ENDROOT
BRANCH   1   7
HETATM    7  C2  UNL     1      23.564   2.036  52.559  1.00  0.00     0.380 C 
HETATM    8  C1  UNL     1      24.456   3.023  53.262  1.00  0.00     0.090 C 
HETATM    9  N1  UNL     1      24.032   1.631  51.218  1.00  0.00     0.172 N 
HETATM   10  C15 UNL     1      22.606   1.747  50.860  1.00  0.00     0.525 C 
HETATM   11  H12 UNL     1      24.539   2.464  50.819  1.00  0.00     0.323 HD
HETATM   12  N2  UNL     1      22.577   2.816  51.802  1.00  0.00     0.172 N 
HETATM   13  H17 UNL     1      21.729   3.097  52.268  1.00  0.00     0.323 HD
BRANCH  10  14
HETATM   14  S1  UNL     1      22.291   2.129  49.147  1.00  0.00    -0.073 SA
BRANCH  14  15
HETATM   15  C16 UNL     1      20.634   1.782  48.634  1.00  0.00     0.072 C 
HETATM   16  C17 UNL     1      19.752   1.454  49.567  1.00  0.00     0.138 C 
BRANCH  16  17
HETATM   17  O1  UNL     1      18.428   1.160  49.298  1.00  0.00    -0.372 OA
HETATM   18  H16 UNL     1      18.030   0.311  49.692  1.00  0.00     0.216 HD
ENDBRANCH  16  17
ENDBRANCH  14  15
ENDBRANCH  10  14
ENDBRANCH   1   7
BRANCH   6  19
HETATM   19  C9  UNL     1      25.216  -0.292  53.561  1.00  0.00    -0.025 A 
HETATM   20  C10 UNL     1      25.969   0.190  54.648  1.00  0.00     0.013 A 
HETATM   21  C11 UNL     1      27.351   0.148  54.746  1.00  0.00     0.020 A 
HETATM   22  C12 UNL     1      28.065  -0.403  53.716  1.00  0.00     0.011 A 
HETATM   23 BR1  UNL     1      29.956  -0.564  53.637  1.00  0.00    -0.051 Br
HETATM   24  C13 UNL     1      27.369  -0.886  52.630  1.00  0.00     0.020 A 
HETATM   25  C14 UNL     1      25.996  -0.830  52.563  1.00  0.00     0.013 A 
ENDBRANCH   6  19
TORSDOF 5
ENDMDL
MODEL 2
REMARK VINA RESULT:      -7.7      4.380      6.330
REMARK  5 active torsions:
REMARK  status: ('A' for Active; 'I' for Inactive)
REMARK    1  A    between atoms: C2_2  and  C3_3 
REMARK    2  A    between atoms: C8_8  and  C9_9 
REMARK    3  A    between atoms: C15_17  and  S1_18 
REMARK    4  A    between atoms: S1_18  and  C16_19 
REMARK    5  A    between atoms: C17_20  and  O1_21 
ROOT
HETATM    1  C3  UNL     1      23.342   2.425  50.970  1.00  0.00     0.022 A 
HETATM    2  C4  UNL     1      22.239   1.599  51.025  1.00  0.00     0.012 A 
HETATM    3  C5  UNL     1      21.563   1.179  49.897  1.00  0.00     0.001 A 
HETATM    4  C6  UNL     1      21.994   1.595  48.638  1.00  0.00     0.001 A 
HETATM    5  C7  UNL     1      23.107   2.426  48.618  1.00  0.00     0.013 A 
HETATM    6  C8  UNL     1      23.795   2.852  49.765  1.00  0.00    -0.015 A 
ENDROOT
BRANCH   1   7
HETATM    7  C2  UNL     1      24.012   2.836  52.198  1.00  0.00     0.380 C 
HETATM    8  C1  UNL     1      23.733   4.209  52.748  1.00  0.00     0.090 C 
HETATM    9  N1  UNL     1      24.068   1.767  53.215  1.00  0.00     0.172 N 
HETATM   10  C15 UNL     1      25.217   1.291  52.422  1.00  0.00     0.525 C 
HETATM   11  H12 UNL     1      24.439   2.214  54.094  1.00  0.00     0.323 HD
HETATM   12  N2  UNL     1      25.471   2.672  52.180  1.00  0.00     0.172 N 
HETATM   13  H17 UNL     1      25.979   2.989  51.369  1.00  0.00     0.323 HD
BRANCH  10  14
HETATM   14  S1  UNL     1      26.430   0.362  53.341  1.00  0.00    -0.073 SA
BRANCH  14  15
HETATM   15  C16 UNL     1      26.671  -1.284  52.738  1.00  0.00     0.072 C 
HETATM   16  C17 UNL     1      27.780  -1.916  53.090  1.00  0.00     0.138 C 
BRANCH  16  17
HETATM   17  O1  UNL     1      28.088  -3.203  52.687  1.00  0.00    -0.372 OA
HETATM   18  H16 UNL     1      27.887  -3.971  53.323  1.00  0.00     0.216 HD
ENDBRANCH  16  17
ENDBRANCH  14  15
ENDBRANCH  10  14
ENDBRANCH   1   7
BRANCH   6  19
HETATM   19  C9  UNL     1      24.924   3.702  49.446  1.00  0.00    -0.025 A 
HETATM   20  C10 UNL     1      24.534   5.020  49.144  1.00  0.00     0.013 A 
HETATM   21  C11 UNL     1      25.394   6.048  48.788  1.00  0.00     0.020 A 
HETATM   22  C12 UNL     1      26.736   5.785  48.718  1.00  0.00     0.011 A 
HETATM   23 BR1  UNL     1      28.089   7.034  48.252  1.00  0.00    -0.051 Br
HETATM   24  C13 UNL     1      27.163   4.506  49.005  1.00  0.00     0.020 A 
HETATM   25  C14 UNL     1      26.284   3.509  49.355  1.00  0.00     0.013 A 
ENDBRANCH   6  19
TORSDOF 5
ENDMDL
MODEL 3
REMARK VINA RESULT:      -7.7      1.750      2.103
REMARK  5 active torsions:
REMARK  status: ('A' for Active; 'I' for Inactive)
REMARK    1  A    between atoms: C2_2  and  C3_3 
REMARK    2  A    between atoms: C8_8  and  C9_9 
REMARK    3  A    between atoms: C15_17  and  S1_18 
REMARK    4  A    between atoms: S1_18  and  C16_19 
REMARK    5  A    between atoms: C17_20  and  O1_21 
ROOT
HETATM    1  C3  UNL     1      22.933   1.007  53.167  1.00  0.00     0.022 A 
HETATM    2  C4  UNL     1      21.560   0.889  53.233  1.00  0.00     0.012 A 
HETATM    3  C5  UNL     1      20.931  -0.157  53.876  1.00  0.00     0.001 A 
HETATM    4  C6  UNL     1      21.692  -1.150  54.491  1.00  0.00     0.001 A 
HETATM    5  C7  UNL     1      23.071  -1.001  54.406  1.00  0.00     0.013 A 
HETATM    6  C8  UNL     1      23.711   0.063  53.753  1.00  0.00    -0.015 A 
ENDROOT
BRANCH   1   7
HETATM    7  C2  UNL     1      23.539   2.135  52.470  1.00  0.00     0.380 C 
HETATM    8  C1  UNL     1      24.348   3.125  53.264  1.00  0.00     0.090 C 
HETATM    9  N1  UNL     1      24.130   1.763  51.168  1.00  0.00     0.172 N 
HETATM   10  C15 UNL     1      22.739   1.861  50.688  1.00  0.00     0.525 C 
HETATM   11  H12 UNL     1      24.655   2.612  50.828  1.00  0.00     0.323 HD
HETATM   12  N2  UNL     1      22.608   2.912  51.642  1.00  0.00     0.172 N 
HETATM   13  H17 UNL     1      21.717   3.170  52.036  1.00  0.00     0.323 HD
BRANCH  10  14
HETATM   14  S1  UNL     1      22.567   2.269  48.961  1.00  0.00    -0.073 SA
BRANCH  14  15
HETATM   15  C16 UNL     1      22.925   3.962  48.591  1.00  0.00     0.072 C 
HETATM   16  C17 UNL     1      22.409   4.476  47.485  1.00  0.00     0.138 C 
BRANCH  16  17
HETATM   17  O1  UNL     1      22.612   5.784  47.083  1.00  0.00    -0.372 OA
HETATM   18  H16 UNL     1      22.974   5.953  46.147  1.00  0.00     0.216 HD
ENDBRANCH  16  17
ENDBRANCH  14  15
ENDBRANCH  10  14
ENDBRANCH   1   7
BRANCH   6  19
HETATM   19  C9  UNL     1      25.155  -0.029  53.832  1.00  0.00    -0.025 A 
HETATM   20  C10 UNL     1      25.693  -0.868  52.838  1.00  0.00     0.013 A 
HETATM   21  C11 UNL     1      27.039  -1.158  52.678  1.00  0.00     0.020 A 
HETATM   22  C12 UNL     1      27.939  -0.597  53.544  1.00  0.00     0.011 A 
HETATM   23 BR1  UNL     1      29.820  -0.855  53.512  1.00  0.00    -0.051 Br
HETATM   24  C13 UNL     1      27.456   0.231  54.535  1.00  0.00     0.020 A 
HETATM   25  C14 UNL     1      26.113   0.499  54.666  1.00  0.00     0.013 A 
ENDBRANCH   6  19
TORSDOF 5
ENDMDL
MODEL 4
REMARK VINA RESULT:      -7.3      3.236      3.891
REMARK  5 active torsions:
REMARK  status: ('A' for Active; 'I' for Inactive)
REMARK    1  A    between atoms: C2_2  and  C3_3 
REMARK    2  A    between atoms: C8_8  and  C9_9 
REMARK    3  A    between atoms: C15_17  and  S1_18 
REMARK    4  A    between atoms: S1_18  and  C16_19 
REMARK    5  A    between atoms: C17_20  and  O1_21 
ROOT
HETATM    1  C3  UNL     1      22.997   2.539  52.437  1.00  0.00     0.022 A 
HETATM    2  C4  UNL     1      21.650   2.522  52.141  1.00  0.00     0.012 A 
HETATM    3  C5  UNL     1      20.902   1.362  52.139  1.00  0.00     0.001 A 
HETATM    4  C6  UNL     1      21.510   0.145  52.443  1.00  0.00     0.001 A 
HETATM    5  C7  UNL     1      22.867   0.198  52.735  1.00  0.00     0.013 A 
HETATM    6  C8  UNL     1      23.629   1.377  52.739  1.00  0.00    -0.015 A 
ENDROOT
BRANCH   1   7
HETATM    7  C2  UNL     1      23.736   3.797  52.421  1.00  0.00     0.380 C 
HETATM    8  C1  UNL     1      23.911   4.547  53.712  1.00  0.00     0.090 C 
HETATM    9  N1  UNL     1      24.940   3.751  51.568  1.00  0.00     0.172 N 
HETATM   10  C15 UNL     1      23.980   3.983  50.473  1.00  0.00     0.525 C 
HETATM   11  H12 UNL     1      25.461   4.650  51.744  1.00  0.00     0.323 HD
HETATM   12  N2  UNL     1      23.265   4.767  51.424  1.00  0.00     0.172 N 
HETATM   13  H17 UNL     1      22.273   4.930  51.346  1.00  0.00     0.323 HD
BRANCH  10  14
HETATM   14  S1  UNL     1      24.657   4.808  49.044  1.00  0.00    -0.073 SA
BRANCH  14  15
HETATM   15  C16 UNL     1      26.267   5.491  49.314  1.00  0.00     0.072 C 
HETATM   16  C17 UNL     1      27.308   4.832  48.828  1.00  0.00     0.138 C 
BRANCH  16  17
HETATM   17  O1  UNL     1      28.617   5.257  48.970  1.00  0.00    -0.372 OA
HETATM   18  H16 UNL     1      28.907   5.642  49.865  1.00  0.00     0.216 HD
ENDBRANCH  16  17
ENDBRANCH  14  15
ENDBRANCH  10  14
ENDBRANCH   1   7
BRANCH   6  19
HETATM   19  C9  UNL     1      25.014   1.138  53.091  1.00  0.00    -0.025 A 
HETATM   20  C10 UNL     1      25.662   0.295  52.171  1.00  0.00     0.013 A 
HETATM   21  C11 UNL     1      26.983  -0.121  52.258  1.00  0.00     0.020 A 
HETATM   22  C12 UNL     1      27.737   0.310  53.316  1.00  0.00     0.011 A 
HETATM   23 BR1  UNL     1      29.556  -0.131  53.634  1.00  0.00    -0.051 Br
HETATM   24  C13 UNL     1      27.141   1.138  54.243  1.00  0.00     0.020 A 
HETATM   25  C14 UNL     1      25.829   1.532  54.127  1.00  0.00     0.013 A 
ENDBRANCH   6  19
TORSDOF 5
ENDMDL
MODEL 5
REMARK VINA RESULT:      -7.2      4.185      6.421
REMARK  5 active torsions:
REMARK  status: ('A' for Active; 'I' for Inactive)
REMARK    1  A    between atoms: C2_2  and  C3_3 
REMARK    2  A    between atoms: C8_8  and  C9_9 
REMARK    3  A    between atoms: C15_17  and  S1_18 
REMARK    4  A    between atoms: S1_18  and  C16_19 
REMARK    5  A    between atoms: C17_20  and  O1_21 
ROOT
HETATM    1  C3  UNL     1      22.541   0.549  53.195  1.00  0.00     0.022 A 
HETATM    2  C4  UNL     1      22.604  -0.154  54.381  1.00  0.00     0.012 A 
HETATM    3  C5  UNL     1      21.613  -1.027  54.783  1.00  0.00     0.001 A 
HETATM    4  C6  UNL     1      20.494  -1.224  53.976  1.00  0.00     0.001 A 
HETATM    5  C7  UNL     1      20.462  -0.501  52.791  1.00  0.00     0.013 A 
HETATM    6  C8  UNL     1      21.469   0.387  52.380  1.00  0.00    -0.015 A 
ENDROOT
BRANCH   1   7
HETATM    7  C2  UNL     1      23.618   1.460  52.825  1.00  0.00     0.380 C 
HETATM    8  C1  UNL     1      23.294   2.913  52.614  1.00  0.00     0.090 C 
HETATM    9  N1  UNL     1      24.869   1.211  53.570  1.00  0.00     0.172 N 
HETATM   10  C15 UNL     1      25.063   0.141  52.574  1.00  0.00     0.525 C 
HETATM   11  H12 UNL     1      25.519   2.005  53.328  1.00  0.00     0.323 HD
HETATM   12  N2  UNL     1      24.412   1.027  51.668  1.00  0.00     0.172 N 
HETATM   13  H17 UNL     1      23.924   0.695  50.850  1.00  0.00     0.323 HD
BRANCH  10  14
HETATM   14  S1  UNL     1      26.763  -0.288  52.254  1.00  0.00    -0.073 SA
BRANCH  14  15
HETATM   15  C16 UNL     1      27.137  -1.990  52.561  1.00  0.00     0.072 C 
HETATM   16  C17 UNL     1      28.327  -2.282  53.064  1.00  0.00     0.138 C 
BRANCH  16  17
HETATM   17  O1  UNL     1      28.742  -3.570  53.349  1.00  0.00    -0.372 OA
HETATM   18  H16 UNL     1      28.219  -4.347  52.954  1.00  0.00     0.216 HD
ENDBRANCH  16  17
ENDBRANCH  14  15
ENDBRANCH  10  14
ENDBRANCH   1   7
BRANCH   6  19
HETATM   19  C9  UNL     1      21.180   0.992  51.096  1.00  0.00    -0.025 A 
HETATM   20  C10 UNL     1      20.194   1.992  51.185  1.00  0.00     0.013 A 
HETATM   21  C11 UNL     1      19.704   2.731  50.119  1.00  0.00     0.020 A 
HETATM   22  C12 UNL     1      20.204   2.487  48.868  1.00  0.00     0.011 A 
HETATM   23 BR1  UNL     1      19.681   3.374  47.272  1.00  0.00    -0.051 Br
HETATM   24  C13 UNL     1      21.171   1.515  48.734  1.00  0.00     0.020 A 
HETATM   25  C14 UNL     1      21.637   0.799  49.812  1.00  0.00     0.013 A 
ENDBRANCH   6  19
TORSDOF 5
ENDMDL
MODEL 6
REMARK VINA RESULT:      -7.1      4.389      5.990
REMARK  5 active torsions:
REMARK  status: ('A' for Active; 'I' for Inactive)
REMARK    1  A    between atoms: C2_2  and  C3_3 
REMARK    2  A    between atoms: C8_8  and  C9_9 
REMARK    3  A    between atoms: C15_17  and  S1_18 
REMARK    4  A    between atoms: S1_18  and  C16_19 
REMARK    5  A    between atoms: C17_20  and  O1_21 
ROOT
HETATM    1  C3  UNL     1      24.192   2.292  52.797  1.00  0.00     0.022 A 
HETATM    2  C4  UNL     1      25.462   2.353  53.331  1.00  0.00     0.012 A 
HETATM    3  C5  UNL     1      26.075   1.267  53.922  1.00  0.00     0.001 A 
HETATM    4  C6  UNL     1      25.403   0.047  53.995  1.00  0.00     0.001 A 
HETATM    5  C7  UNL     1      24.127   0.021  53.448  1.00  0.00     0.013 A 
HETATM    6  C8  UNL     1      23.502   1.125  52.846  1.00  0.00    -0.015 A 
ENDROOT
BRANCH   1   7
HETATM    7  C2  UNL     1      23.595   3.475  52.187  1.00  0.00     0.380 C 
HETATM    8  C1  UNL     1      22.257   3.948  52.685  1.00  0.00     0.090 C 
HETATM    9  N1  UNL     1      24.573   4.553  51.935  1.00  0.00     0.172 N 
HETATM   10  C15 UNL     1      24.899   3.761  50.735  1.00  0.00     0.525 C 
HETATM   11  H12 UNL     1      24.014   5.394  51.632  1.00  0.00     0.323 HD
HETATM   12  N2  UNL     1      23.514   3.429  50.721  1.00  0.00     0.172 N 
HETATM   13  H17 UNL     1      23.168   2.588  50.287  1.00  0.00     0.323 HD
BRANCH  10  14
HETATM   14  S1  UNL     1      25.551   4.703  49.369  1.00  0.00    -0.073 SA
BRANCH  14  15
HETATM   15  C16 UNL     1      27.240   4.337  48.994  1.00  0.00     0.072 C 
HETATM   16  C17 UNL     1      27.990   5.310  48.499  1.00  0.00     0.138 C 
BRANCH  16  17
HETATM   17  O1  UNL     1      29.324   5.154  48.165  1.00  0.00    -0.372 OA
HETATM   18  H16 UNL     1      30.015   5.718  48.653  1.00  0.00     0.216 HD
ENDBRANCH  16  17
ENDBRANCH  14  15
ENDBRANCH  10  14
ENDBRANCH   1   7
BRANCH   6  19
HETATM   19  C9  UNL     1      22.178   0.808  52.351  1.00  0.00    -0.025 A 
HETATM   20  C10 UNL     1      21.269   0.539  53.390  1.00  0.00     0.013 A 
HETATM   21  C11 UNL     1      19.937   0.191  53.218  1.00  0.00     0.020 A 
HETATM   22  C12 UNL     1      19.443   0.095  51.945  1.00  0.00     0.011 A 
HETATM   23 BR1  UNL     1      17.661  -0.364  51.477  1.00  0.00    -0.051 Br
HETATM   24  C13 UNL     1      20.300   0.349  50.896  1.00  0.00     0.020 A 
HETATM   25  C14 UNL     1      21.616   0.692  51.100  1.00  0.00     0.013 A 
ENDBRANCH   6  19
TORSDOF 5
ENDMDL
MODEL 7
REMARK VINA RESULT:      -7.1      4.488      6.665
REMARK  5 active torsions:
REMARK  status: ('A' for Active; 'I' for Inactive)
REMARK    1  A    between atoms: C2_2  and  C3_3 
REMARK    2  A    between atoms: C8_8  and  C9_9 
REMARK    3  A    between atoms: C15_17  and  S1_18 
REMARK    4  A    between atoms: S1_18  and  C16_19 
REMARK    5  A    between atoms: C17_20  and  O1_21 
ROOT
HETATM    1  C3  UNL     1      24.509   1.165  52.513  1.00  0.00     0.022 A 
HETATM    2  C4  UNL     1      24.571  -0.143  52.946  1.00  0.00     0.012 A 
HETATM    3  C5  UNL     1      23.502  -0.785  53.537  1.00  0.00     0.001 A 
HETATM    4  C6  UNL     1      22.299  -0.105  53.715  1.00  0.00     0.001 A 
HETATM    5  C7  UNL     1      22.270   1.210  53.269  1.00  0.00     0.013 A 
HETATM    6  C8  UNL     1      23.357   1.863  52.667  1.00  0.00    -0.015 A 
ENDROOT
BRANCH   1   7
HETATM    7  C2  UNL     1      25.674   1.790  51.898  1.00  0.00     0.380 C 
HETATM    8  C1  UNL     1      25.501   2.508  50.587  1.00  0.00     0.090 C 
HETATM    9  N1  UNL     1      26.539   2.487  52.871  1.00  0.00     0.172 N 
HETATM   10  C15 UNL     1      27.063   1.134  53.135  1.00  0.00     0.525 C 
HETATM   11  H12 UNL     1      27.257   3.012  52.305  1.00  0.00     0.323 HD
HETATM   12  N2  UNL     1      26.834   0.902  51.748  1.00  0.00     0.172 N 
HETATM   13  H17 UNL     1      26.684  -0.023  51.377  1.00  0.00     0.323 HD
BRANCH  10  14
HETATM   14  S1  UNL     1      28.743   1.082  53.730  1.00  0.00    -0.073 SA
BRANCH  14  15
HETATM   15  C16 UNL     1      29.341  -0.556  54.027  1.00  0.00     0.072 C 
HETATM   16  C17 UNL     1      28.838  -1.541  53.299  1.00  0.00     0.138 C 
BRANCH  16  17
HETATM   17  O1  UNL     1      29.220  -2.864  53.433  1.00  0.00    -0.372 OA
HETATM   18  H16 UNL     1      29.794  -3.279  52.703  1.00  0.00     0.216 HD
ENDBRANCH  16  17
ENDBRANCH  14  15
ENDBRANCH  10  14
ENDBRANCH   1   7
BRANCH   6  19
HETATM   19  C9  UNL     1      23.040   3.226  52.288  1.00  0.00    -0.025 A 
HETATM   20  C10 UNL     1      22.050   3.288  51.291  1.00  0.00     0.013 A 
HETATM   21  C11 UNL     1      21.558   4.453  50.723  1.00  0.00     0.020 A 
HETATM   22  C12 UNL     1      22.060   5.654  51.149  1.00  0.00     0.011 A 
HETATM   23 BR1  UNL     1      21.537   7.364  50.513  1.00  0.00    -0.051 Br
HETATM   24  C13 UNL     1      23.034   5.640  52.124  1.00  0.00     0.020 A 
HETATM   25  C14 UNL     1      23.500   4.466  52.669  1.00  0.00     0.013 A 
ENDBRANCH   6  19
TORSDOF 5
ENDMDL
MODEL 8
REMARK VINA RESULT:      -7.0      3.416      4.322
REMARK  5 active torsions:
REMARK  status: ('A' for Active; 'I' for Inactive)
REMARK    1  A    between atoms: C2_2  and  C3_3 
REMARK    2  A    between atoms: C8_8  and  C9_9 
REMARK    3  A    between atoms: C15_17  and  S1_18 
REMARK    4  A    between atoms: S1_18  and  C16_19 
REMARK    5  A    between atoms: C17_20  and  O1_21 
ROOT
HETATM    1  C3  UNL     1      23.940   2.862  50.149  1.00  0.00     0.022 A 
HETATM    2  C4  UNL     1      22.817   2.926  49.351  1.00  0.00     0.012 A 
HETATM    3  C5  UNL     1      21.726   2.101  49.531  1.00  0.00     0.001 A 
HETATM    4  C6  UNL     1      21.734   1.156  50.554  1.00  0.00     0.001 A 
HETATM    5  C7  UNL     1      22.879   1.117  51.339  1.00  0.00     0.013 A 
HETATM    6  C8  UNL     1      23.990   1.956  51.158  1.00  0.00    -0.015 A 
ENDROOT
BRANCH   1   7
HETATM    7  C2  UNL     1      25.064   3.759  49.908  1.00  0.00     0.380 C 
HETATM    8  C1  UNL     1      26.379   3.169  49.476  1.00  0.00     0.090 C 
HETATM    9  N1  UNL     1      24.679   4.992  49.192  1.00  0.00     0.172 N 
HETATM   10  C15 UNL     1      24.249   5.445  50.528  1.00  0.00     0.525 C 
HETATM   11  H12 UNL     1      25.578   5.487  48.951  1.00  0.00     0.323 HD
HETATM   12  N2  UNL     1      25.353   4.684  51.011  1.00  0.00     0.172 N 
HETATM   13  H17 UNL     1      25.381   4.316  51.950  1.00  0.00     0.323 HD
BRANCH  10  14
HETATM   14  S1  UNL     1      24.278   7.211  50.767  1.00  0.00    -0.073 SA
BRANCH  14  15
HETATM   15  C16 UNL     1      22.827   8.032  50.174  1.00  0.00     0.072 C 
HETATM   16  C17 UNL     1      21.649   7.559  50.552  1.00  0.00     0.138 C 
BRANCH  16  17
HETATM   17  O1  UNL     1      20.442   8.108  50.160  1.00  0.00    -0.372 OA
HETATM   18  H16 UNL     1      19.629   7.500  50.101  1.00  0.00     0.216 HD
ENDBRANCH  16  17
ENDBRANCH  14  15
ENDBRANCH  10  14
ENDBRANCH   1   7
BRANCH   6  19
HETATM   19  C9  UNL     1      25.036   1.704  52.128  1.00  0.00    -0.025 A 
HETATM   20  C10 UNL     1      25.852   0.617  51.766  1.00  0.00     0.013 A 
HETATM   21  C11 UNL     1      26.920   0.135  52.508  1.00  0.00     0.020 A 
HETATM   22  C12 UNL     1      27.226   0.751  53.692  1.00  0.00     0.011 A 
HETATM   23 BR1  UNL     1      28.639   0.262  54.863  1.00  0.00    -0.051 Br
HETATM   24  C13 UNL     1      26.452   1.820  54.086  1.00  0.00     0.020 A 
HETATM   25  C14 UNL     1      25.399   2.274  53.327  1.00  0.00     0.013 A 
ENDBRANCH   6  19
TORSDOF 5
ENDMDL
MODEL 9
REMARK VINA RESULT:      -6.9      4.940      6.495
REMARK  5 active torsions:
REMARK  status: ('A' for Active; 'I' for Inactive)
REMARK    1  A    between atoms: C2_2  and  C3_3 
REMARK    2  A    between atoms: C8_8  and  C9_9 
REMARK    3  A    between atoms: C15_17  and  S1_18 
REMARK    4  A    between atoms: S1_18  and  C16_19 
REMARK    5  A    between atoms: C17_20  and  O1_21 
ROOT
HETATM    1  C3  UNL     1      23.804   4.762  49.275  1.00  0.00     0.022 A 
HETATM    2  C4  UNL     1      22.957   5.130  48.251  1.00  0.00     0.012 A 
HETATM    3  C5  UNL     1      22.247   4.212  47.503  1.00  0.00     0.001 A 
HETATM    4  C6  UNL     1      22.376   2.851  47.775  1.00  0.00     0.001 A 
HETATM    5  C7  UNL     1      23.237   2.515  48.812  1.00  0.00     0.013 A 
HETATM    6  C8  UNL     1      23.958   3.448  49.573  1.00  0.00    -0.015 A 
ENDROOT
BRANCH   1   7
HETATM    7  C2  UNL     1      24.529   5.779  50.028  1.00  0.00     0.380 C 
HETATM    8  C1  UNL     1      24.063   6.119  51.417  1.00  0.00     0.090 C 
HETATM    9  N1  UNL     1      25.995   5.675  49.881  1.00  0.00     0.172 N 
HETATM   10  C15 UNL     1      25.759   6.389  48.612  1.00  0.00     0.525 C 
HETATM   11  H12 UNL     1      26.411   6.356  50.569  1.00  0.00     0.323 HD
HETATM   12  N2  UNL     1      24.711   7.050  49.316  1.00  0.00     0.172 N 
HETATM   13  H17 UNL     1      23.917   7.452  48.841  1.00  0.00     0.323 HD
BRANCH  10  14
HETATM   14  S1  UNL     1      27.133   7.369  48.037  1.00  0.00    -0.073 SA
BRANCH  14  15
HETATM   15  C16 UNL     1      27.906   8.326  49.308  1.00  0.00     0.072 C 
HETATM   16  C17 UNL     1      27.124   9.002  50.137  1.00  0.00     0.138 C 
BRANCH  16  17
HETATM   17  O1  UNL     1      27.602   9.786  51.171  1.00  0.00    -0.372 OA
HETATM   18  H16 UNL     1      28.598   9.987  51.207  1.00  0.00     0.216 HD
ENDBRANCH  16  17
ENDBRANCH  14  15
ENDBRANCH  10  14
ENDBRANCH   1   7
BRANCH   6  19
HETATM   19  C9  UNL     1      24.768   2.817  50.596  1.00  0.00    -0.025 A 
HETATM   20  C10 UNL     1      24.002   2.392  51.698  1.00  0.00     0.013 A 
HETATM   21  C11 UNL     1      24.506   1.772  52.831  1.00  0.00     0.020 A 
HETATM   22  C12 UNL     1      25.854   1.544  52.910  1.00  0.00     0.011 A 
HETATM   23 BR1  UNL     1      26.757   0.716  54.361  1.00  0.00    -0.051 Br
HETATM   24  C13 UNL     1      26.642   1.946  51.853  1.00  0.00     0.020 A 
HETATM   25  C14 UNL     1      26.111   2.558  50.742  1.00  0.00     0.013 A 
ENDBRANCH   6  19
TORSDOF 5
ENDMDL
