MODEL 1
REMARK VINA RESULT:      -8.1      0.000      0.000
REMARK  5 active torsions:
REMARK  status: ('A' for Active; 'I' for Inactive)
REMARK       I    between atoms: C2_2  and  N1_4 
REMARK    1  A    between atoms: N1_4  and  C3_5 
REMARK    2  A    between atoms: C8_10  and  N2_11 
REMARK    3  A    between atoms: N3_13  and  C10_14 
REMARK    4  A    between atoms: C10_14  and  N4_15 
REMARK    5  A    between atoms: N4_15  and  C11_16 
ROOT
HETATM    1  N2  UNL     1      23.926   2.595  51.471  1.00  0.00    -0.261 N 
HETATM    2  C9  UNL     1      25.136   2.960  51.397  1.00  0.00     0.202 A 
HETATM    3  N3  UNL     1      24.721   3.013  52.743  1.00  0.00    -0.143 NA
ENDROOT
BRANCH   1   4
HETATM    4  C8  UNL     1      23.082   2.190  50.406  1.00  0.00     0.079 A 
HETATM    5  C3  UNL     1      22.138   1.217  50.639  1.00  0.00     0.063 A 
HETATM    6  C4  UNL     1      21.376   0.895  49.543  1.00  0.00     0.032 A 
HETATM    7  C5  UNL     1      21.495   1.458  48.294  1.00  0.00     0.002 A 
HETATM    8  C6  UNL     1      22.448   2.428  48.094  1.00  0.00     0.002 A 
HETATM    9  C7  UNL     1      23.233   2.779  49.170  1.00  0.00     0.033 A 
BRANCH   5  10
HETATM   10  N1  UNL     1      22.047   0.661  51.937  1.00  0.00    -0.325 N 
HETATM   11  C2  UNL     1      21.122   0.935  52.957  1.00  0.00     0.218 C 
HETATM   12  C1  UNL     1      21.155   0.260  54.293  1.00  0.00     0.117 C 
HETATM   13  O1  UNL     1      20.220   1.778  52.773  1.00  0.00    -0.274 OA
HETATM   14  H4  UNL     1      22.739  -0.062  52.233  1.00  0.00     0.169 HD
ENDBRANCH   5  10
ENDBRANCH   1   4
BRANCH   3  15
HETATM   15  C10 UNL     1      25.296   2.531  53.770  1.00  0.00     0.180 C 
BRANCH  15  16
HETATM   16  N4  UNL     1      26.691   2.478  53.861  1.00  0.00    -0.355 N 
HETATM   17  H11 UNL     1      27.204   3.375  54.056  1.00  0.00     0.166 HD
BRANCH  16  18
HETATM   18  C11 UNL     1      27.379   1.254  53.675  1.00  0.00     0.034 A 
HETATM   19  C12 UNL     1      28.714   1.245  54.046  1.00  0.00     0.032 A 
HETATM   20  C13 UNL     1      29.506   0.136  53.902  1.00  0.00     0.046 A 
HETATM   21  C14 UNL     1      29.027  -1.044  53.377  1.00  0.00     0.138 A 
HETATM   22  F1  UNL     1      29.792  -2.149  53.226  1.00  0.00    -0.204 F 
HETATM   23  C15 UNL     1      27.694  -1.052  53.001  1.00  0.00     0.074 A 
HETATM   24 CL1  UNL     1      26.944  -2.488  52.314  1.00  0.00    -0.081 Cl
HETATM   25  C16 UNL     1      26.913   0.072  53.153  1.00  0.00     0.056 A 
ENDBRANCH  16  18
ENDBRANCH  15  16
ENDBRANCH   3  15
TORSDOF 5
ENDMDL
MODEL 2
REMARK VINA RESULT:      -7.8      1.568      3.211
REMARK  5 active torsions:
REMARK  status: ('A' for Active; 'I' for Inactive)
REMARK       I    between atoms: C2_2  and  N1_4 
REMARK    1  A    between atoms: N1_4  and  C3_5 
REMARK    2  A    between atoms: C8_10  and  N2_11 
REMARK    3  A    between atoms: N3_13  and  C10_14 
REMARK    4  A    between atoms: C10_14  and  N4_15 
REMARK    5  A    between atoms: N4_15  and  C11_16 
ROOT
HETATM    1  N2  UNL     1      23.276   1.599  52.206  1.00  0.00    -0.261 N 
HETATM    2  C9  UNL     1      23.272   1.628  50.940  1.00  0.00     0.202 A 
HETATM    3  N3  UNL     1      24.160   2.612  51.420  1.00  0.00    -0.143 NA
ENDROOT
BRANCH   1   4
HETATM    4  C8  UNL     1      22.529   0.738  53.049  1.00  0.00     0.079 A 
HETATM    5  C3  UNL     1      21.236   1.081  53.371  1.00  0.00     0.063 A 
HETATM    6  C4  UNL     1      20.602   0.184  54.195  1.00  0.00     0.032 A 
HETATM    7  C5  UNL     1      21.154  -0.974  54.689  1.00  0.00     0.002 A 
HETATM    8  C6  UNL     1      22.448  -1.288  54.348  1.00  0.00     0.002 A 
HETATM    9  C7  UNL     1      23.118  -0.413  53.524  1.00  0.00     0.033 A 
BRANCH   5  10
HETATM   10  N1  UNL     1      20.703   2.282  52.843  1.00  0.00    -0.325 N 
HETATM   11  C2  UNL     1      19.714   2.458  51.863  1.00  0.00     0.218 C 
HETATM   12  C1  UNL     1      19.252   3.806  51.402  1.00  0.00     0.117 C 
HETATM   13  O1  UNL     1      19.176   1.465  51.332  1.00  0.00    -0.274 OA
HETATM   14  H4  UNL     1      21.060   3.197  53.196  1.00  0.00     0.169 HD
ENDBRANCH   5  10
ENDBRANCH   1   4
BRANCH   3  15
HETATM   15  C10 UNL     1      25.363   2.834  51.071  1.00  0.00     0.180 C 
BRANCH  15  16
HETATM   16  N4  UNL     1      26.379   2.975  52.022  1.00  0.00    -0.355 N 
HETATM   17  H11 UNL     1      26.611   3.946  52.351  1.00  0.00     0.166 HD
BRANCH  16  18
HETATM   18  C11 UNL     1      27.079   1.841  52.502  1.00  0.00     0.034 A 
HETATM   19  C12 UNL     1      28.237   2.100  53.217  1.00  0.00     0.032 A 
HETATM   20  C13 UNL     1      29.024   1.098  53.723  1.00  0.00     0.046 A 
HETATM   21  C14 UNL     1      28.715  -0.234  53.552  1.00  0.00     0.138 A 
HETATM   22  F1  UNL     1      29.479  -1.236  54.042  1.00  0.00    -0.204 F 
HETATM   23  C15 UNL     1      27.561  -0.509  52.839  1.00  0.00     0.074 A 
HETATM   24 CL1  UNL     1      27.041  -2.164  52.541  1.00  0.00    -0.081 Cl
HETATM   25  C16 UNL     1      26.782   0.510  52.339  1.00  0.00     0.056 A 
ENDBRANCH  16  18
ENDBRANCH  15  16
ENDBRANCH   3  15
TORSDOF 5
ENDMDL
MODEL 3
REMARK VINA RESULT:      -7.7      4.625      6.541
REMARK  5 active torsions:
REMARK  status: ('A' for Active; 'I' for Inactive)
REMARK       I    between atoms: C2_2  and  N1_4 
REMARK    1  A    between atoms: N1_4  and  C3_5 
REMARK    2  A    between atoms: C8_10  and  N2_11 
REMARK    3  A    between atoms: N3_13  and  C10_14 
REMARK    4  A    between atoms: C10_14  and  N4_15 
REMARK    5  A    between atoms: N4_15  and  C11_16 
ROOT
HETATM    1  N2  UNL     1      24.445   1.693  52.297  1.00  0.00    -0.261 N 
HETATM    2  C9  UNL     1      24.085   2.196  51.193  1.00  0.00     0.202 A 
HETATM    3  N3  UNL     1      25.369   2.676  51.518  1.00  0.00    -0.143 NA
ENDROOT
BRANCH   1   4
HETATM    4  C8  UNL     1      23.716   0.791  53.112  1.00  0.00     0.079 A 
HETATM    5  C3  UNL     1      24.381  -0.260  53.701  1.00  0.00     0.063 A 
HETATM    6  C4  UNL     1      23.584  -1.075  54.465  1.00  0.00     0.032 A 
HETATM    7  C5  UNL     1      22.234  -0.912  54.666  1.00  0.00     0.002 A 
HETATM    8  C6  UNL     1      21.599   0.147  54.063  1.00  0.00     0.002 A 
HETATM    9  C7  UNL     1      22.364   0.989  53.288  1.00  0.00     0.033 A 
BRANCH   5  10
HETATM   10  N1  UNL     1      25.771  -0.394  53.470  1.00  0.00    -0.325 N 
HETATM   11  C2  UNL     1      26.847   0.130  54.204  1.00  0.00     0.218 C 
HETATM   12  C1  UNL     1      28.279  -0.100  53.830  1.00  0.00     0.117 C 
HETATM   13  O1  UNL     1      26.633   0.824  55.218  1.00  0.00    -0.274 OA
HETATM   14  H4  UNL     1      26.101  -0.952  52.652  1.00  0.00     0.169 HD
ENDBRANCH   5  10
ENDBRANCH   1   4
BRANCH   3  15
HETATM   15  C10 UNL     1      26.412   2.710  50.790  1.00  0.00     0.180 C 
BRANCH  15  16
HETATM   16  N4  UNL     1      26.366   3.200  49.481  1.00  0.00    -0.355 N 
HETATM   17  H11 UNL     1      26.127   2.522  48.713  1.00  0.00     0.166 HD
BRANCH  16  18
HETATM   18  C11 UNL     1      26.652   4.560  49.210  1.00  0.00     0.034 A 
HETATM   19  C12 UNL     1      27.863   4.813  48.587  1.00  0.00     0.032 A 
HETATM   20  C13 UNL     1      28.279   6.083  48.284  1.00  0.00     0.046 A 
HETATM   21  C14 UNL     1      27.520   7.194  48.581  1.00  0.00     0.138 A 
HETATM   22  F1  UNL     1      27.912   8.455  48.292  1.00  0.00    -0.204 F 
HETATM   23  C15 UNL     1      26.306   6.958  49.205  1.00  0.00     0.074 A 
HETATM   24 CL1  UNL     1      25.230   8.278  49.646  1.00  0.00    -0.081 Cl
HETATM   25  C16 UNL     1      25.905   5.675  49.501  1.00  0.00     0.056 A 
ENDBRANCH  16  18
ENDBRANCH  15  16
ENDBRANCH   3  15
TORSDOF 5
ENDMDL
MODEL 4
REMARK VINA RESULT:      -7.6      1.724      2.420
REMARK  5 active torsions:
REMARK  status: ('A' for Active; 'I' for Inactive)
REMARK       I    between atoms: C2_2  and  N1_4 
REMARK    1  A    between atoms: N1_4  and  C3_5 
REMARK    2  A    between atoms: C8_10  and  N2_11 
REMARK    3  A    between atoms: N3_13  and  C10_14 
REMARK    4  A    between atoms: C10_14  and  N4_15 
REMARK    5  A    between atoms: N4_15  and  C11_16 
ROOT
HETATM    1  N2  UNL     1      22.203   1.908  52.048  1.00  0.00    -0.261 N 
HETATM    2  C9  UNL     1      23.232   1.836  51.314  1.00  0.00     0.202 A 
HETATM    3  N3  UNL     1      23.519   2.651  52.427  1.00  0.00    -0.143 NA
ENDROOT
BRANCH   1   4
HETATM    4  C8  UNL     1      20.946   1.290  51.831  1.00  0.00     0.079 A 
HETATM    5  C3  UNL     1      20.489   0.372  52.749  1.00  0.00     0.063 A 
HETATM    6  C4  UNL     1      19.265  -0.169  52.445  1.00  0.00     0.032 A 
HETATM    7  C5  UNL     1      18.510   0.136  51.337  1.00  0.00     0.002 A 
HETATM    8  C6  UNL     1      18.994   1.057  50.439  1.00  0.00     0.002 A 
HETATM    9  C7  UNL     1      20.220   1.623  50.709  1.00  0.00     0.033 A 
BRANCH   5  10
HETATM   10  N1  UNL     1      21.296   0.085  53.876  1.00  0.00    -0.325 N 
HETATM   11  C2  UNL     1      22.298  -0.887  54.025  1.00  0.00     0.218 C 
HETATM   12  C1  UNL     1      23.072  -1.074  55.293  1.00  0.00     0.117 C 
HETATM   13  O1  UNL     1      22.579  -1.647  53.075  1.00  0.00    -0.274 OA
HETATM   14  H4  UNL     1      21.172   0.644  54.748  1.00  0.00     0.169 HD
ENDBRANCH   5  10
ENDBRANCH   1   4
BRANCH   3  15
HETATM   15  C10 UNL     1      24.512   2.591  53.220  1.00  0.00     0.180 C 
BRANCH  15  16
HETATM   16  N4  UNL     1      25.825   2.657  52.742  1.00  0.00    -0.355 N 
HETATM   17  H11 UNL     1      26.108   3.514  52.204  1.00  0.00     0.166 HD
BRANCH  16  18
HETATM   18  C11 UNL     1      26.728   1.588  52.967  1.00  0.00     0.034 A 
HETATM   19  C12 UNL     1      27.949   1.933  53.523  1.00  0.00     0.032 A 
HETATM   20  C13 UNL     1      28.925   1.004  53.775  1.00  0.00     0.046 A 
HETATM   21  C14 UNL     1      28.757  -0.333  53.491  1.00  0.00     0.138 A 
HETATM   22  F1  UNL     1      29.708  -1.264  53.731  1.00  0.00    -0.204 F 
HETATM   23  C15 UNL     1      27.542  -0.693  52.934  1.00  0.00     0.074 A 
HETATM   24 CL1  UNL     1      27.184  -2.365  52.517  1.00  0.00    -0.081 Cl
HETATM   25  C16 UNL     1      26.572   0.253  52.688  1.00  0.00     0.056 A 
ENDBRANCH  16  18
ENDBRANCH  15  16
ENDBRANCH   3  15
TORSDOF 5
ENDMDL
MODEL 5
REMARK VINA RESULT:      -7.1      3.843      5.681
REMARK  5 active torsions:
REMARK  status: ('A' for Active; 'I' for Inactive)
REMARK       I    between atoms: C2_2  and  N1_4 
REMARK    1  A    between atoms: N1_4  and  C3_5 
REMARK    2  A    between atoms: C8_10  and  N2_11 
REMARK    3  A    between atoms: N3_13  and  C10_14 
REMARK    4  A    between atoms: C10_14  and  N4_15 
REMARK    5  A    between atoms: N4_15  and  C11_16 
ROOT
HETATM    1  N2  UNL     1      22.944   3.991  51.310  1.00  0.00    -0.261 N 
HETATM    2  C9  UNL     1      22.651   4.466  52.447  1.00  0.00     0.202 A 
HETATM    3  N3  UNL     1      21.488   3.929  51.859  1.00  0.00    -0.143 NA
ENDROOT
BRANCH   1   4
HETATM    4  C8  UNL     1      24.216   3.977  50.685  1.00  0.00     0.079 A 
HETATM    5  C3  UNL     1      24.525   4.969  49.784  1.00  0.00     0.063 A 
HETATM    6  C4  UNL     1      25.778   4.863  49.233  1.00  0.00     0.032 A 
HETATM    7  C5  UNL     1      26.693   3.875  49.515  1.00  0.00     0.002 A 
HETATM    8  C6  UNL     1      26.353   2.898  50.421  1.00  0.00     0.002 A 
HETATM    9  C7  UNL     1      25.104   2.971  50.995  1.00  0.00     0.033 A 
BRANCH   5  10
HETATM   10  N1  UNL     1      23.557   5.968  49.520  1.00  0.00    -0.325 N 
HETATM   11  C2  UNL     1      23.423   7.245  50.086  1.00  0.00     0.218 C 
HETATM   12  C1  UNL     1      22.334   8.199  49.701  1.00  0.00     0.117 C 
HETATM   13  O1  UNL     1      24.232   7.633  50.954  1.00  0.00    -0.274 OA
HETATM   14  H4  UNL     1      22.814   5.783  48.811  1.00  0.00     0.169 HD
ENDBRANCH   5  10
ENDBRANCH   1   4
BRANCH   3  15
HETATM   15  C10 UNL     1      20.640   3.127  52.367  1.00  0.00     0.180 C 
BRANCH  15  16
HETATM   16  N4  UNL     1      20.678   1.758  52.083  1.00  0.00    -0.355 N 
HETATM   17  H11 UNL     1      20.118   1.413  51.262  1.00  0.00     0.166 HD
BRANCH  16  18
HETATM   18  C11 UNL     1      21.432   0.875  52.893  1.00  0.00     0.034 A 
HETATM   19  C12 UNL     1      20.751   0.286  53.946  1.00  0.00     0.032 A 
HETATM   20  C13 UNL     1      21.361  -0.573  54.822  1.00  0.00     0.046 A 
HETATM   21  C14 UNL     1      22.693  -0.906  54.715  1.00  0.00     0.138 A 
HETATM   22  F1  UNL     1      23.313  -1.751  55.570  1.00  0.00    -0.204 F 
HETATM   23  C15 UNL     1      23.388  -0.326  53.668  1.00  0.00     0.074 A 
HETATM   24 CL1  UNL     1      25.096  -0.658  53.406  1.00  0.00    -0.081 Cl
HETATM   25  C16 UNL     1      22.759   0.535  52.797  1.00  0.00     0.056 A 
ENDBRANCH  16  18
ENDBRANCH  15  16
ENDBRANCH   3  15
TORSDOF 5
ENDMDL
MODEL 6
REMARK VINA RESULT:      -7.0      2.081      2.191
REMARK  5 active torsions:
REMARK  status: ('A' for Active; 'I' for Inactive)
REMARK       I    between atoms: C2_2  and  N1_4 
REMARK    1  A    between atoms: N1_4  and  C3_5 
REMARK    2  A    between atoms: C8_10  and  N2_11 
REMARK    3  A    between atoms: N3_13  and  C10_14 
REMARK    4  A    between atoms: C10_14  and  N4_15 
REMARK    5  A    between atoms: N4_15  and  C11_16 
ROOT
HETATM    1  N2  UNL     1      22.511   3.491  52.112  1.00  0.00    -0.261 N 
HETATM    2  C9  UNL     1      23.389   4.348  52.427  1.00  0.00     0.202 A 
HETATM    3  N3  UNL     1      23.917   3.056  52.623  1.00  0.00    -0.143 NA
ENDROOT
BRANCH   1   4
HETATM    4  C8  UNL     1      21.199   3.738  51.636  1.00  0.00     0.079 A 
HETATM    5  C3  UNL     1      20.163   2.969  52.113  1.00  0.00     0.063 A 
HETATM    6  C4  UNL     1      18.935   3.286  51.587  1.00  0.00     0.032 A 
HETATM    7  C5  UNL     1      18.694   4.274  50.662  1.00  0.00     0.002 A 
HETATM    8  C6  UNL     1      19.751   5.025  50.205  1.00  0.00     0.002 A 
HETATM    9  C7  UNL     1      20.999   4.737  50.710  1.00  0.00     0.033 A 
BRANCH   5  10
HETATM   10  N1  UNL     1      20.452   1.961  53.064  1.00  0.00    -0.325 N 
HETATM   11  C2  UNL     1      20.632   0.583  52.870  1.00  0.00     0.218 C 
HETATM   12  C1  UNL     1      20.934  -0.367  53.987  1.00  0.00     0.117 C 
HETATM   13  O1  UNL     1      20.540   0.095  51.724  1.00  0.00    -0.274 OA
HETATM   14  H4  UNL     1      20.558   2.223  54.069  1.00  0.00     0.169 HD
ENDBRANCH   5  10
ENDBRANCH   1   4
BRANCH   3  15
HETATM   15  C10 UNL     1      25.028   2.583  52.222  1.00  0.00     0.180 C 
BRANCH  15  16
HETATM   16  N4  UNL     1      26.177   2.660  53.017  1.00  0.00    -0.355 N 
HETATM   17  H11 UNL     1      26.382   3.574  53.493  1.00  0.00     0.166 HD
BRANCH  16  18
HETATM   18  C11 UNL     1      27.036   1.541  53.151  1.00  0.00     0.034 A 
HETATM   19  C12 UNL     1      28.311   1.809  53.622  1.00  0.00     0.032 A 
HETATM   20  C13 UNL     1      29.253   0.826  53.781  1.00  0.00     0.046 A 
HETATM   21  C14 UNL     1      28.994  -0.493  53.481  1.00  0.00     0.138 A 
HETATM   22  F1  UNL     1      29.909  -1.477  53.630  1.00  0.00    -0.204 F 
HETATM   23  C15 UNL     1      27.724  -0.777  53.009  1.00  0.00     0.074 A 
HETATM   24 CL1  UNL     1      27.249  -2.417  52.584  1.00  0.00    -0.081 Cl
HETATM   25  C16 UNL     1      26.790   0.223  52.856  1.00  0.00     0.056 A 
ENDBRANCH  16  18
ENDBRANCH  15  16
ENDBRANCH   3  15
TORSDOF 5
ENDMDL
MODEL 7
REMARK VINA RESULT:      -7.0      3.990      5.888
REMARK  5 active torsions:
REMARK  status: ('A' for Active; 'I' for Inactive)
REMARK       I    between atoms: C2_2  and  N1_4 
REMARK    1  A    between atoms: N1_4  and  C3_5 
REMARK    2  A    between atoms: C8_10  and  N2_11 
REMARK    3  A    between atoms: N3_13  and  C10_14 
REMARK    4  A    between atoms: C10_14  and  N4_15 
REMARK    5  A    between atoms: N4_15  and  C11_16 
ROOT
HETATM    1  N2  UNL     1      23.953   0.763  52.595  1.00  0.00    -0.261 N 
HETATM    2  C9  UNL     1      24.987   1.045  53.269  1.00  0.00     0.202 A 
HETATM    3  N3  UNL     1      25.181   1.458  51.936  1.00  0.00    -0.143 NA
ENDROOT
BRANCH   1   4
HETATM    4  C8  UNL     1      22.769   0.135  53.057  1.00  0.00     0.079 A 
HETATM    5  C3  UNL     1      21.556   0.559  52.565  1.00  0.00     0.063 A 
HETATM    6  C4  UNL     1      20.473  -0.110  53.078  1.00  0.00     0.032 A 
HETATM    7  C5  UNL     1      20.527  -1.124  54.005  1.00  0.00     0.002 A 
HETATM    8  C6  UNL     1      21.754  -1.524  54.477  1.00  0.00     0.002 A 
HETATM    9  C7  UNL     1      22.866  -0.877  53.986  1.00  0.00     0.033 A 
BRANCH   5  10
HETATM   10  N1  UNL     1      21.542   1.606  51.612  1.00  0.00    -0.325 N 
HETATM   11  C2  UNL     1      20.983   2.889  51.712  1.00  0.00     0.218 C 
HETATM   12  C1  UNL     1      21.049   3.897  50.607  1.00  0.00     0.117 C 
HETATM   13  O1  UNL     1      20.396   3.236  52.758  1.00  0.00    -0.274 OA
HETATM   14  H4  UNL     1      21.999   1.458  50.685  1.00  0.00     0.169 HD
ENDBRANCH   5  10
ENDBRANCH   1   4
BRANCH   3  15
HETATM   15  C10 UNL     1      25.584   2.586  51.505  1.00  0.00     0.180 C 
BRANCH  15  16
HETATM   16  N4  UNL     1      24.969   3.205  50.412  1.00  0.00    -0.355 N 
HETATM   17  H11 UNL     1      24.017   2.864  50.127  1.00  0.00     0.166 HD
BRANCH  16  18
HETATM   18  C11 UNL     1      25.628   4.243  49.708  1.00  0.00     0.034 A 
HETATM   19  C12 UNL     1      24.853   5.345  49.387  1.00  0.00     0.032 A 
HETATM   20  C13 UNL     1      25.354   6.414  48.690  1.00  0.00     0.046 A 
HETATM   21  C14 UNL     1      26.662   6.461  48.260  1.00  0.00     0.138 A 
HETATM   22  F1  UNL     1      27.174   7.505  47.570  1.00  0.00    -0.204 F 
HETATM   23  C15 UNL     1      27.450   5.366  48.572  1.00  0.00     0.074 A 
HETATM   24 CL1  UNL     1      29.139   5.284  48.088  1.00  0.00    -0.081 Cl
HETATM   25  C16 UNL     1      26.929   4.301  49.274  1.00  0.00     0.056 A 
ENDBRANCH  16  18
ENDBRANCH  15  16
ENDBRANCH   3  15
TORSDOF 5
ENDMDL
MODEL 8
REMARK VINA RESULT:      -7.0      4.852      6.592
REMARK  5 active torsions:
REMARK  status: ('A' for Active; 'I' for Inactive)
REMARK       I    between atoms: C2_2  and  N1_4 
REMARK    1  A    between atoms: N1_4  and  C3_5 
REMARK    2  A    between atoms: C8_10  and  N2_11 
REMARK    3  A    between atoms: N3_13  and  C10_14 
REMARK    4  A    between atoms: C10_14  and  N4_15 
REMARK    5  A    between atoms: N4_15  and  C11_16 
ROOT
HETATM    1  N2  UNL     1      24.147   2.678  51.095  1.00  0.00    -0.261 N 
HETATM    2  C9  UNL     1      24.069   2.867  49.846  1.00  0.00     0.202 A 
HETATM    3  N3  UNL     1      24.616   4.016  50.452  1.00  0.00    -0.143 NA
ENDROOT
BRANCH   1   4
HETATM    4  C8  UNL     1      23.761   1.520  51.816  1.00  0.00     0.079 A 
HETATM    5  C3  UNL     1      24.725   0.801  52.485  1.00  0.00     0.063 A 
HETATM    6  C4  UNL     1      24.249  -0.303  53.147  1.00  0.00     0.032 A 
HETATM    7  C5  UNL     1      22.936  -0.710  53.180  1.00  0.00     0.002 A 
HETATM    8  C6  UNL     1      21.997   0.030  52.502  1.00  0.00     0.002 A 
HETATM    9  C7  UNL     1      22.435   1.145  51.824  1.00  0.00     0.033 A 
BRANCH   5  10
HETATM   10  N1  UNL     1      26.065   1.251  52.427  1.00  0.00    -0.325 N 
HETATM   11  C2  UNL     1      26.822   1.914  53.406  1.00  0.00     0.218 C 
HETATM   12  C1  UNL     1      28.244   2.333  53.194  1.00  0.00     0.117 C 
HETATM   13  O1  UNL     1      26.314   2.182  54.514  1.00  0.00    -0.274 OA
HETATM   14  H4  UNL     1      26.619   1.095  51.556  1.00  0.00     0.169 HD
ENDBRANCH   5  10
ENDBRANCH   1   4
BRANCH   3  15
HETATM   15  C10 UNL     1      25.664   4.660  50.128  1.00  0.00     0.180 C 
BRANCH  15  16
HETATM   16  N4  UNL     1      25.724   5.398  48.941  1.00  0.00    -0.355 N 
HETATM   17  H11 UNL     1      24.831   5.532  48.402  1.00  0.00     0.166 HD
BRANCH  16  18
HETATM   18  C11 UNL     1      26.957   5.923  48.480  1.00  0.00     0.034 A 
HETATM   19  C12 UNL     1      26.915   7.210  47.970  1.00  0.00     0.032 A 
HETATM   20  C13 UNL     1      28.028   7.835  47.471  1.00  0.00     0.046 A 
HETATM   21  C14 UNL     1      29.261   7.223  47.441  1.00  0.00     0.138 A 
HETATM   22  F1  UNL     1      30.370   7.822  46.952  1.00  0.00    -0.204 F 
HETATM   23  C15 UNL     1      29.320   5.935  47.947  1.00  0.00     0.074 A 
HETATM   24 CL1  UNL     1      30.827   5.029  47.974  1.00  0.00    -0.081 Cl
HETATM   25  C16 UNL     1      28.192   5.323  48.445  1.00  0.00     0.056 A 
ENDBRANCH  16  18
ENDBRANCH  15  16
ENDBRANCH   3  15
TORSDOF 5
ENDMDL
MODEL 9
REMARK VINA RESULT:      -6.9      3.415      4.577
REMARK  5 active torsions:
REMARK  status: ('A' for Active; 'I' for Inactive)
REMARK       I    between atoms: C2_2  and  N1_4 
REMARK    1  A    between atoms: N1_4  and  C3_5 
REMARK    2  A    between atoms: C8_10  and  N2_11 
REMARK    3  A    between atoms: N3_13  and  C10_14 
REMARK    4  A    between atoms: C10_14  and  N4_15 
REMARK    5  A    between atoms: N4_15  and  C11_16 
ROOT
HETATM    1  N2  UNL     1      23.122   4.777  51.207  1.00  0.00    -0.261 N 
HETATM    2  C9  UNL     1      22.578   4.332  52.259  1.00  0.00     0.202 A 
HETATM    3  N3  UNL     1      23.649   3.488  51.904  1.00  0.00    -0.143 NA
ENDROOT
BRANCH   1   4
HETATM    4  C8  UNL     1      22.754   5.929  50.468  1.00  0.00     0.079 A 
HETATM    5  C3  UNL     1      23.521   6.300  49.387  1.00  0.00     0.063 A 
HETATM    6  C4  UNL     1      23.082   7.429  48.743  1.00  0.00     0.032 A 
HETATM    7  C5  UNL     1      21.980   8.173  49.096  1.00  0.00     0.002 A 
HETATM    8  C6  UNL     1      21.235   7.776  50.181  1.00  0.00     0.002 A 
HETATM    9  C7  UNL     1      21.643   6.647  50.854  1.00  0.00     0.033 A 
BRANCH   5  10
HETATM   10  N1  UNL     1      24.647   5.509  49.055  1.00  0.00    -0.325 N 
HETATM   11  C2  UNL     1      26.011   5.788  49.237  1.00  0.00     0.218 C 
HETATM   12  C1  UNL     1      27.099   4.843  48.829  1.00  0.00     0.117 C 
HETATM   13  O1  UNL     1      26.365   6.865  49.758  1.00  0.00    -0.274 OA
HETATM   14  H4  UNL     1      24.503   4.576  48.611  1.00  0.00     0.169 HD
ENDBRANCH   5  10
ENDBRANCH   1   4
BRANCH   3  15
HETATM   15  C10 UNL     1      24.598   3.059  52.636  1.00  0.00     0.180 C 
BRANCH  15  16
HETATM   16  N4  UNL     1      25.892   2.906  52.128  1.00  0.00    -0.355 N 
HETATM   17  H11 UNL     1      26.242   3.633  51.454  1.00  0.00     0.166 HD
BRANCH  16  18
HETATM   18  C11 UNL     1      26.686   1.795  52.502  1.00  0.00     0.034 A 
HETATM   19  C12 UNL     1      27.881   2.090  53.138  1.00  0.00     0.032 A 
HETATM   20  C13 UNL     1      28.758   1.114  53.536  1.00  0.00     0.046 A 
HETATM   21  C14 UNL     1      28.508  -0.225  53.330  1.00  0.00     0.138 A 
HETATM   22  F1  UNL     1      29.360  -1.202  53.715  1.00  0.00    -0.204 F 
HETATM   23  C15 UNL     1      27.318  -0.536  52.696  1.00  0.00     0.074 A 
HETATM   24 CL1  UNL     1      26.864  -2.203  52.364  1.00  0.00    -0.081 Cl
HETATM   25  C16 UNL     1      26.449   0.457  52.302  1.00  0.00     0.056 A 
ENDBRANCH  16  18
ENDBRANCH  15  16
ENDBRANCH   3  15
TORSDOF 5
ENDMDL
