MODEL 1
REMARK VINA RESULT:      -8.8      0.000      0.000
REMARK  6 active torsions:
REMARK  status: ('A' for Active; 'I' for Inactive)
REMARK    1  A    between atoms: O1_2  and  C2_3 
REMARK    2  A    between atoms: C5_6  and  N1_7 
REMARK       I    between atoms: N1_7  and  C6_8 
REMARK       I    between atoms: C6_8  and  N2_10 
REMARK    3  A    between atoms: N2_10  and  C7_11 
REMARK    4  A    between atoms: C10_14  and  N3_15 
REMARK    5  A    between atoms: N3_15  and  C11_16 
REMARK    6  A    between atoms: C16_23  and  O3_25 
ROOT
HETATM    1  C7  UNL     1      23.599   5.208  51.570  1.00  0.00     0.036 A 
HETATM    2  C8  UNL     1      23.499   4.530  52.735  1.00  0.00     0.032 A 
HETATM    3  C9  UNL     1      23.239   3.187  52.878  1.00  0.00     0.032 A 
HETATM    4  C10 UNL     1      23.061   2.435  51.756  1.00  0.00     0.033 A 
HETATM    5  C21 UNL     1      23.149   3.072  50.512  1.00  0.00     0.032 A 
HETATM    6  C22 UNL     1      23.411   4.421  50.436  1.00  0.00     0.032 A 
ENDROOT
BRANCH   4   7
HETATM    7  N3  UNL     1      22.781   1.021  51.616  1.00  0.00    -0.340 N 
HETATM    8  H10 UNL     1      22.474   0.436  50.808  1.00  0.00     0.167 HD
BRANCH   7   9
HETATM    9  C11 UNL     1      22.972   0.286  52.824  1.00  0.00     0.138 A 
HETATM   10  N4  UNL     1      21.936   0.017  53.577  1.00  0.00    -0.224 NA
HETATM   11  C12 UNL     1      22.162  -0.722  54.770  1.00  0.00     0.230 A 
HETATM   12  N5  UNL     1      23.306  -1.169  55.190  1.00  0.00    -0.269 NA
HETATM   13  C13 UNL     1      24.532  -0.964  54.462  1.00  0.00     0.168 A 
HETATM   14  C14 UNL     1      25.587  -0.377  55.309  1.00  0.00     0.004 C 
HETATM   15  C20 UNL     1      24.313  -0.132  53.276  1.00  0.00     0.016 A 
HETATM   16  C15 UNL     1      26.653  -0.002  54.571  1.00  0.00     0.013 C 
HETATM   17  C16 UNL     1      26.734  -0.170  53.064  1.00  0.00     0.093 C 
HETATM   18  C17 UNL     1      27.083  -1.564  52.682  1.00  0.00     0.055 C 
HETATM   19  C19 UNL     1      25.380   0.273  52.568  1.00  0.00     0.028 C 
BRANCH  17  20
HETATM   20  O3  UNL     1      27.632   0.801  52.649  1.00  0.00    -0.377 OA
HETATM   21  C18 UNL     1      27.096   2.017  52.334  1.00  0.00     0.203 C 
ENDBRANCH  17  20
ENDBRANCH   7   9
ENDBRANCH   4   7
BRANCH   1  22
HETATM   22  N2  UNL     1      23.883   6.571  51.381  1.00  0.00    -0.309 N 
HETATM   23  C6  UNL     1      24.937   7.170  50.685  1.00  0.00     0.325 C 
HETATM   24  N1  UNL     1      25.125   8.552  50.561  1.00  0.00    -0.309 N 
HETATM   25  O2  UNL     1      25.773   6.419  50.130  1.00  0.00    -0.247 OA
HETATM   26  H6  UNL     1      24.399   9.125  51.054  1.00  0.00     0.170 HD
HETATM   27  H7  UNL     1      23.228   7.277  51.813  1.00  0.00     0.170 HD
BRANCH  24  28
HETATM   28  C5  UNL     1      26.135   9.265  49.881  1.00  0.00     0.036 A 
HETATM   29  C4  UNL     1      27.478   9.295  50.157  1.00  0.00     0.032 A 
HETATM   30  C3  UNL     1      28.405  10.017  49.444  1.00  0.00     0.039 A 
HETATM   31  C2  UNL     1      28.023  10.779  48.371  1.00  0.00     0.068 A 
HETATM   32  C24 UNL     1      26.684  10.772  48.063  1.00  0.00     0.039 A 
HETATM   33  C23 UNL     1      25.801  10.043  48.798  1.00  0.00     0.032 A 
BRANCH  31  34
HETATM   34  O1  UNL     1      28.965  11.486  47.676  1.00  0.00    -0.356 OA
HETATM   35  C1  UNL     1      29.532  12.714  48.019  1.00  0.00     0.210 C 
ENDBRANCH  31  34
ENDBRANCH  24  28
ENDBRANCH   1  22
TORSDOF 6
ENDMDL
MODEL 2
REMARK VINA RESULT:      -8.5      5.060     10.470
REMARK  6 active torsions:
REMARK  status: ('A' for Active; 'I' for Inactive)
REMARK    1  A    between atoms: O1_2  and  C2_3 
REMARK    2  A    between atoms: C5_6  and  N1_7 
REMARK       I    between atoms: N1_7  and  C6_8 
REMARK       I    between atoms: C6_8  and  N2_10 
REMARK    3  A    between atoms: N2_10  and  C7_11 
REMARK    4  A    between atoms: C10_14  and  N3_15 
REMARK    5  A    between atoms: N3_15  and  C11_16 
REMARK    6  A    between atoms: C16_23  and  O3_25 
ROOT
HETATM    1  C7  UNL     1      26.329   5.413  49.242  1.00  0.00     0.036 A 
HETATM    2  C8  UNL     1      27.423   4.683  48.931  1.00  0.00     0.032 A 
HETATM    3  C9  UNL     1      28.527   5.122  48.238  1.00  0.00     0.032 A 
HETATM    4  C10 UNL     1      28.555   6.415  47.809  1.00  0.00     0.033 A 
HETATM    5  C21 UNL     1      27.453   7.231  48.095  1.00  0.00     0.032 A 
HETATM    6  C22 UNL     1      26.377   6.731  48.794  1.00  0.00     0.032 A 
ENDROOT
BRANCH   4   7
HETATM    7  N3  UNL     1      29.575   7.131  47.071  1.00  0.00    -0.340 N 
HETATM    8  H10 UNL     1      29.588   7.568  46.124  1.00  0.00     0.167 HD
BRANCH   7   9
HETATM    9  C11 UNL     1      30.800   7.267  47.789  1.00  0.00     0.138 A 
HETATM   10  N4  UNL     1      30.952   8.280  48.604  1.00  0.00    -0.224 NA
HETATM   11  C12 UNL     1      32.183   8.381  49.307  1.00  0.00     0.230 A 
HETATM   12  N5  UNL     1      33.182   7.556  49.227  1.00  0.00    -0.269 NA
HETATM   13  C13 UNL     1      33.156   6.388  48.384  1.00  0.00     0.168 A 
HETATM   14  C14 UNL     1      34.332   6.320  47.495  1.00  0.00     0.004 C 
HETATM   15  C20 UNL     1      31.921   6.328  47.597  1.00  0.00     0.016 A 
HETATM   16  C15 UNL     1      34.193   5.342  46.576  1.00  0.00     0.013 C 
HETATM   17  C16 UNL     1      32.974   4.440  46.485  1.00  0.00     0.093 C 
HETATM   18  C17 UNL     1      33.017   3.351  47.496  1.00  0.00     0.055 C 
HETATM   19  C19 UNL     1      31.805   5.378  46.656  1.00  0.00     0.028 C 
BRANCH  17  20
HETATM   20  O3  UNL     1      32.943   4.023  45.164  1.00  0.00    -0.377 OA
HETATM   21  C18 UNL     1      33.129   4.995  44.224  1.00  0.00     0.203 C 
ENDBRANCH  17  20
ENDBRANCH   7   9
ENDBRANCH   4   7
BRANCH   1  22
HETATM   22  N2  UNL     1      25.193   5.010  49.966  1.00  0.00    -0.309 N 
HETATM   23  C6  UNL     1      24.837   3.738  50.425  1.00  0.00     0.325 C 
HETATM   24  N1  UNL     1      23.670   3.448  51.141  1.00  0.00    -0.309 N 
HETATM   25  O2  UNL     1      25.619   2.789  50.180  1.00  0.00    -0.247 OA
HETATM   26  H6  UNL     1      23.055   4.281  51.305  1.00  0.00     0.170 HD
HETATM   27  H7  UNL     1      24.481   5.747  50.218  1.00  0.00     0.170 HD
BRANCH  24  28
HETATM   28  C5  UNL     1      23.215   2.218  51.659  1.00  0.00     0.036 A 
HETATM   29  C4  UNL     1      22.168   1.451  51.218  1.00  0.00     0.032 A 
HETATM   30  C3  UNL     1      21.784   0.256  51.778  1.00  0.00     0.039 A 
HETATM   31  C2  UNL     1      22.458  -0.259  52.855  1.00  0.00     0.068 A 
HETATM   32  C24 UNL     1      23.515   0.481  53.325  1.00  0.00     0.039 A 
HETATM   33  C23 UNL     1      23.859   1.661  52.740  1.00  0.00     0.032 A 
BRANCH  31  34
HETATM   34  O1  UNL     1      22.058  -1.451  53.393  1.00  0.00    -0.356 OA
HETATM   35  C1  UNL     1      21.060  -1.664  54.344  1.00  0.00     0.210 C 
ENDBRANCH  31  34
ENDBRANCH  24  28
ENDBRANCH   1  22
TORSDOF 6
ENDMDL
MODEL 3
REMARK VINA RESULT:      -8.4      2.639      4.663
REMARK  6 active torsions:
REMARK  status: ('A' for Active; 'I' for Inactive)
REMARK    1  A    between atoms: O1_2  and  C2_3 
REMARK    2  A    between atoms: C5_6  and  N1_7 
REMARK       I    between atoms: N1_7  and  C6_8 
REMARK       I    between atoms: C6_8  and  N2_10 
REMARK    3  A    between atoms: N2_10  and  C7_11 
REMARK    4  A    between atoms: C10_14  and  N3_15 
REMARK    5  A    between atoms: N3_15  and  C11_16 
REMARK    6  A    between atoms: C16_23  and  O3_25 
ROOT
HETATM    1  C7  UNL     1      27.207   8.266  49.509  1.00  0.00     0.036 A 
HETATM    2  C8  UNL     1      26.121   7.839  50.189  1.00  0.00     0.032 A 
HETATM    3  C9  UNL     1      25.543   6.593  50.106  1.00  0.00     0.032 A 
HETATM    4  C10 UNL     1      26.096   5.674  49.265  1.00  0.00     0.033 A 
HETATM    5  C21 UNL     1      27.224   6.049  48.525  1.00  0.00     0.032 A 
HETATM    6  C22 UNL     1      27.755   7.313  48.653  1.00  0.00     0.032 A 
ENDROOT
BRANCH   4   7
HETATM    7  N3  UNL     1      25.700   4.309  48.986  1.00  0.00    -0.340 N 
HETATM    8  H10 UNL     1      25.952   3.640  48.226  1.00  0.00     0.167 HD
BRANCH   7   9
HETATM    9  C11 UNL     1      24.791   3.777  49.949  1.00  0.00     0.138 A 
HETATM   10  N4  UNL     1      23.529   4.116  49.889  1.00  0.00    -0.224 NA
HETATM   11  C12 UNL     1      22.651   3.563  50.860  1.00  0.00     0.230 A 
HETATM   12  N5  UNL     1      22.978   2.739  51.809  1.00  0.00    -0.269 NA
HETATM   13  C13 UNL     1      24.326   2.266  51.992  1.00  0.00     0.168 A 
HETATM   14  C14 UNL     1      24.801   2.466  53.374  1.00  0.00     0.004 C 
HETATM   15  C20 UNL     1      25.246   2.899  51.044  1.00  0.00     0.016 A 
HETATM   16  C15 UNL     1      26.121   2.210  53.479  1.00  0.00     0.013 C 
HETATM   17  C16 UNL     1      26.989   1.775  52.311  1.00  0.00     0.093 C 
HETATM   18  C17 UNL     1      26.831   0.326  52.016  1.00  0.00     0.055 C 
HETATM   19  C19 UNL     1      26.563   2.674  51.177  1.00  0.00     0.028 C 
BRANCH  17  20
HETATM   20  O3  UNL     1      28.270   2.173  52.657  1.00  0.00    -0.377 OA
HETATM   21  C18 UNL     1      28.740   1.710  53.853  1.00  0.00     0.203 C 
ENDBRANCH  17  20
ENDBRANCH   7   9
ENDBRANCH   4   7
BRANCH   1  22
HETATM   22  N2  UNL     1      27.839   9.519  49.582  1.00  0.00    -0.309 N 
HETATM   23  C6  UNL     1      27.623  10.670  48.817  1.00  0.00     0.325 C 
HETATM   24  N1  UNL     1      28.319  11.874  48.977  1.00  0.00    -0.309 N 
HETATM   25  O2  UNL     1      26.743  10.622  47.926  1.00  0.00    -0.247 OA
HETATM   26  H6  UNL     1      29.046  11.847  49.731  1.00  0.00     0.170 HD
HETATM   27  H7  UNL     1      28.594   9.650  50.308  1.00  0.00     0.170 HD
BRANCH  24  28
HETATM   28  C5  UNL     1      28.181  13.092  48.279  1.00  0.00     0.036 A 
HETATM   29  C4  UNL     1      27.062  13.876  48.162  1.00  0.00     0.032 A 
HETATM   30  C3  UNL     1      27.005  15.056  47.461  1.00  0.00     0.039 A 
HETATM   31  C2  UNL     1      28.112  15.537  46.811  1.00  0.00     0.068 A 
HETATM   32  C24 UNL     1      29.254  14.779  46.907  1.00  0.00     0.039 A 
HETATM   33  C23 UNL     1      29.264  13.615  47.612  1.00  0.00     0.032 A 
BRANCH  31  34
HETATM   34  O1  UNL     1      28.031  16.716  46.122  1.00  0.00    -0.356 OA
HETATM   35  C1  UNL     1      27.089  17.732  46.281  1.00  0.00     0.210 C 
ENDBRANCH  31  34
ENDBRANCH  24  28
ENDBRANCH   1  22
TORSDOF 6
ENDMDL
MODEL 4
REMARK VINA RESULT:      -8.3      4.280     10.422
REMARK  6 active torsions:
REMARK  status: ('A' for Active; 'I' for Inactive)
REMARK    1  A    between atoms: O1_2  and  C2_3 
REMARK    2  A    between atoms: C5_6  and  N1_7 
REMARK       I    between atoms: N1_7  and  C6_8 
REMARK       I    between atoms: C6_8  and  N2_10 
REMARK    3  A    between atoms: N2_10  and  C7_11 
REMARK    4  A    between atoms: C10_14  and  N3_15 
REMARK    5  A    between atoms: N3_15  and  C11_16 
REMARK    6  A    between atoms: C16_23  and  O3_25 
ROOT
HETATM    1  C7  UNL     1      25.880   4.172  50.051  1.00  0.00     0.036 A 
HETATM    2  C8  UNL     1      25.383   5.421  49.912  1.00  0.00     0.032 A 
HETATM    3  C9  UNL     1      25.918   6.431  49.146  1.00  0.00     0.032 A 
HETATM    4  C10 UNL     1      27.059   6.183  48.445  1.00  0.00     0.033 A 
HETATM    5  C21 UNL     1      27.632   4.909  48.543  1.00  0.00     0.032 A 
HETATM    6  C22 UNL     1      27.048   3.939  49.327  1.00  0.00     0.032 A 
ENDROOT
BRANCH   4   7
HETATM    7  N3  UNL     1      27.824   7.050  47.573  1.00  0.00    -0.340 N 
HETATM    8  H10 UNL     1      27.784   7.236  46.546  1.00  0.00     0.167 HD
BRANCH   7   9
HETATM    9  C11 UNL     1      28.825   7.800  48.259  1.00  0.00     0.138 A 
HETATM   10  N4  UNL     1      28.473   8.866  48.931  1.00  0.00    -0.224 NA
HETATM   11  C12 UNL     1      29.495   9.586  49.607  1.00  0.00     0.230 A 
HETATM   12  N5  UNL     1      30.758   9.286  49.630  1.00  0.00    -0.269 NA
HETATM   13  C13 UNL     1      31.292   8.135  48.949  1.00  0.00     0.168 A 
HETATM   14  C14 UNL     1      32.423   8.487  48.069  1.00  0.00     0.004 C 
HETATM   15  C20 UNL     1      30.253   7.439  48.185  1.00  0.00     0.016 A 
HETATM   16  C15 UNL     1      32.777   7.444  47.289  1.00  0.00     0.013 C 
HETATM   17  C16 UNL     1      32.085   6.092  47.325  1.00  0.00     0.093 C 
HETATM   18  C17 UNL     1      32.550   5.266  48.471  1.00  0.00     0.055 C 
HETATM   19  C19 UNL     1      30.616   6.429  47.378  1.00  0.00     0.028 C 
BRANCH  17  20
HETATM   20  O3  UNL     1      32.311   5.548  46.071  1.00  0.00    -0.377 OA
HETATM   21  C18 UNL     1      32.727   4.247  46.048  1.00  0.00     0.203 C 
ENDBRANCH  17  20
ENDBRANCH   7   9
ENDBRANCH   4   7
BRANCH   1  22
HETATM   22  N2  UNL     1      25.355   3.107  50.803  1.00  0.00    -0.309 N 
HETATM   23  C6  UNL     1      24.025   2.709  50.970  1.00  0.00     0.325 C 
HETATM   24  N1  UNL     1      23.612   1.623  51.752  1.00  0.00    -0.309 N 
HETATM   25  O2  UNL     1      23.139   3.368  50.378  1.00  0.00    -0.247 OA
HETATM   26  H6  UNL     1      24.399   1.119  52.227  1.00  0.00     0.170 HD
HETATM   27  H7  UNL     1      26.032   2.496  51.334  1.00  0.00     0.170 HD
BRANCH  24  28
HETATM   28  C5  UNL     1      22.313   1.126  51.984  1.00  0.00     0.036 A 
HETATM   29  C4  UNL     1      21.694   0.910  53.189  1.00  0.00     0.032 A 
HETATM   30  C3  UNL     1      20.419   0.421  53.335  1.00  0.00     0.039 A 
HETATM   31  C2  UNL     1      19.659   0.108  52.237  1.00  0.00     0.068 A 
HETATM   32  C24 UNL     1      20.245   0.312  51.012  1.00  0.00     0.039 A 
HETATM   33  C23 UNL     1      21.513   0.798  50.914  1.00  0.00     0.032 A 
BRANCH  31  34
HETATM   34  O1  UNL     1      18.392  -0.375  52.409  1.00  0.00    -0.356 OA
HETATM   35  C1  UNL     1      17.961  -1.326  53.334  1.00  0.00     0.210 C 
ENDBRANCH  31  34
ENDBRANCH  24  28
ENDBRANCH   1  22
TORSDOF 6
ENDMDL
MODEL 5
REMARK VINA RESULT:      -8.2      5.054     10.286
REMARK  6 active torsions:
REMARK  status: ('A' for Active; 'I' for Inactive)
REMARK    1  A    between atoms: O1_2  and  C2_3 
REMARK    2  A    between atoms: C5_6  and  N1_7 
REMARK       I    between atoms: N1_7  and  C6_8 
REMARK       I    between atoms: C6_8  and  N2_10 
REMARK    3  A    between atoms: N2_10  and  C7_11 
REMARK    4  A    between atoms: C10_14  and  N3_15 
REMARK    5  A    between atoms: N3_15  and  C11_16 
REMARK    6  A    between atoms: C16_23  and  O3_25 
ROOT
HETATM    1  C7  UNL     1      25.896   5.037  49.929  1.00  0.00     0.036 A 
HETATM    2  C8  UNL     1      26.910   4.312  49.407  1.00  0.00     0.032 A 
HETATM    3  C9  UNL     1      27.901   4.776  48.574  1.00  0.00     0.032 A 
HETATM    4  C10 UNL     1      27.892   6.092  48.221  1.00  0.00     0.033 A 
HETATM    5  C21 UNL     1      26.869   6.905  48.724  1.00  0.00     0.032 A 
HETATM    6  C22 UNL     1      25.904   6.379  49.554  1.00  0.00     0.032 A 
ENDROOT
BRANCH   4   7
HETATM    7  N3  UNL     1      28.800   6.836  47.373  1.00  0.00    -0.340 N 
HETATM    8  H10 UNL     1      28.742   7.155  46.380  1.00  0.00     0.167 HD
BRANCH   7   9
HETATM    9  C11 UNL     1      30.009   7.211  48.032  1.00  0.00     0.138 A 
HETATM   10  N4  UNL     1      30.018   8.280  48.787  1.00  0.00    -0.224 NA
HETATM   11  C12 UNL     1      31.238   8.620  49.432  1.00  0.00     0.230 A 
HETATM   12  N5  UNL     1      32.356   7.965  49.353  1.00  0.00    -0.269 NA
HETATM   13  C13 UNL     1      32.495   6.763  48.572  1.00  0.00     0.168 A 
HETATM   14  C14 UNL     1      33.637   6.836  47.640  1.00  0.00     0.004 C 
HETATM   15  C20 UNL     1      31.263   6.458  47.841  1.00  0.00     0.016 A 
HETATM   16  C15 UNL     1      33.631   5.798  46.778  1.00  0.00     0.013 C 
HETATM   17  C16 UNL     1      32.575   4.705  46.784  1.00  0.00     0.093 C 
HETATM   18  C17 UNL     1      32.830   3.697  47.847  1.00  0.00     0.055 C 
HETATM   19  C19 UNL     1      31.273   5.449  46.955  1.00  0.00     0.028 C 
BRANCH  17  20
HETATM   20  O3  UNL     1      32.570   4.214  45.488  1.00  0.00    -0.377 OA
HETATM   21  C18 UNL     1      33.560   4.676  44.668  1.00  0.00     0.203 C 
ENDBRANCH  17  20
ENDBRANCH   7   9
ENDBRANCH   4   7
BRANCH   1  22
HETATM   22  N2  UNL     1      24.879   4.607  50.798  1.00  0.00    -0.309 N 
HETATM   23  C6  UNL     1      23.856   3.680  50.579  1.00  0.00     0.325 C 
HETATM   24  N1  UNL     1      22.887   3.326  51.526  1.00  0.00    -0.309 N 
HETATM   25  O2  UNL     1      23.801   3.125  49.457  1.00  0.00    -0.247 OA
HETATM   26  H6  UNL     1      22.982   3.831  52.439  1.00  0.00     0.170 HD
HETATM   27  H7  UNL     1      24.851   5.023  51.768  1.00  0.00     0.170 HD
BRANCH  24  28
HETATM   28  C5  UNL     1      21.824   2.405  51.423  1.00  0.00     0.036 A 
HETATM   29  C4  UNL     1      21.881   1.038  51.503  1.00  0.00     0.032 A 
HETATM   30  C3  UNL     1      20.795   0.203  51.393  1.00  0.00     0.039 A 
HETATM   31  C2  UNL     1      19.539   0.713  51.188  1.00  0.00     0.068 A 
HETATM   32  C24 UNL     1      19.442   2.080  51.103  1.00  0.00     0.039 A 
HETATM   33  C23 UNL     1      20.546   2.869  51.217  1.00  0.00     0.032 A 
BRANCH  31  34
HETATM   34  O1  UNL     1      18.474  -0.138  51.084  1.00  0.00    -0.356 OA
HETATM   35  C1  UNL     1      17.700  -0.664  52.119  1.00  0.00     0.210 C 
ENDBRANCH  31  34
ENDBRANCH  24  28
ENDBRANCH   1  22
TORSDOF 6
ENDMDL
MODEL 6
REMARK VINA RESULT:      -8.1      2.428      3.207
REMARK  6 active torsions:
REMARK  status: ('A' for Active; 'I' for Inactive)
REMARK    1  A    between atoms: O1_2  and  C2_3 
REMARK    2  A    between atoms: C5_6  and  N1_7 
REMARK       I    between atoms: N1_7  and  C6_8 
REMARK       I    between atoms: C6_8  and  N2_10 
REMARK    3  A    between atoms: N2_10  and  C7_11 
REMARK    4  A    between atoms: C10_14  and  N3_15 
REMARK    5  A    between atoms: N3_15  and  C11_16 
REMARK    6  A    between atoms: C16_23  and  O3_25 
ROOT
HETATM    1  C7  UNL     1      25.098   6.124  49.204  1.00  0.00     0.036 A 
HETATM    2  C8  UNL     1      25.038   4.775  49.262  1.00  0.00     0.032 A 
HETATM    3  C9  UNL     1      24.643   4.022  50.344  1.00  0.00     0.032 A 
HETATM    4  C10 UNL     1      24.268   4.666  51.484  1.00  0.00     0.033 A 
HETATM    5  C21 UNL     1      24.307   6.066  51.496  1.00  0.00     0.032 A 
HETATM    6  C22 UNL     1      24.712   6.763  50.380  1.00  0.00     0.032 A 
ENDROOT
BRANCH   4   7
HETATM    7  N3  UNL     1      23.815   4.130  52.751  1.00  0.00    -0.340 N 
HETATM    8  H10 UNL     1      23.751   4.537  53.710  1.00  0.00     0.167 HD
BRANCH   7   9
HETATM    9  C11 UNL     1      23.359   2.781  52.662  1.00  0.00     0.138 A 
HETATM   10  N4  UNL     1      22.104   2.551  52.371  1.00  0.00    -0.224 NA
HETATM   11  C12 UNL     1      21.686   1.195  52.285  1.00  0.00     0.230 A 
HETATM   12  N5  UNL     1      22.434   0.149  52.463  1.00  0.00    -0.269 NA
HETATM   13  C13 UNL     1      23.836   0.245  52.775  1.00  0.00     0.168 A 
HETATM   14  C14 UNL     1      24.193  -0.542  53.972  1.00  0.00     0.004 C 
HETATM   15  C20 UNL     1      24.249   1.640  52.945  1.00  0.00     0.016 A 
HETATM   16  C15 UNL     1      25.455  -0.280  54.370  1.00  0.00     0.013 C 
HETATM   17  C16 UNL     1      26.374   0.702  53.663  1.00  0.00     0.093 C 
HETATM   18  C17 UNL     1      26.984   0.108  52.445  1.00  0.00     0.055 C 
HETATM   19  C19 UNL     1      25.494   1.894  53.380  1.00  0.00     0.028 C 
BRANCH  17  20
HETATM   20  O3  UNL     1      27.271   1.108  54.638  1.00  0.00    -0.377 OA
HETATM   21  C18 UNL     1      28.367   0.313  54.814  1.00  0.00     0.203 C 
ENDBRANCH  17  20
ENDBRANCH   7   9
ENDBRANCH   4   7
BRANCH   1  22
HETATM   22  N2  UNL     1      25.473   6.930  48.115  1.00  0.00    -0.309 N 
HETATM   23  C6  UNL     1      26.729   7.448  47.784  1.00  0.00     0.325 C 
HETATM   24  N1  UNL     1      26.989   8.248  46.665  1.00  0.00    -0.309 N 
HETATM   25  O2  UNL     1      27.691   7.176  48.540  1.00  0.00    -0.247 OA
HETATM   26  H6  UNL     1      26.143   8.446  46.078  1.00  0.00     0.170 HD
HETATM   27  H7  UNL     1      24.724   7.206  47.424  1.00  0.00     0.170 HD
BRANCH  24  28
HETATM   28  C5  UNL     1      28.205   8.813  46.228  1.00  0.00     0.036 A 
HETATM   29  C4  UNL     1      29.192   8.220  45.483  1.00  0.00     0.032 A 
HETATM   30  C3  UNL     1      30.355   8.840  45.093  1.00  0.00     0.039 A 
HETATM   31  C2  UNL     1      30.605  10.142  45.442  1.00  0.00     0.068 A 
HETATM   32  C24 UNL     1      29.637  10.770  46.188  1.00  0.00     0.039 A 
HETATM   33  C23 UNL     1      28.500  10.116  46.553  1.00  0.00     0.032 A 
BRANCH  31  34
HETATM   34  O1  UNL     1      31.768  10.737  45.040  1.00  0.00    -0.356 OA
HETATM   35  C1  UNL     1      32.623  11.535  45.801  1.00  0.00     0.210 C 
ENDBRANCH  31  34
ENDBRANCH  24  28
ENDBRANCH   1  22
TORSDOF 6
ENDMDL
MODEL 7
REMARK VINA RESULT:      -8.0      6.666     10.235
REMARK  6 active torsions:
REMARK  status: ('A' for Active; 'I' for Inactive)
REMARK    1  A    between atoms: O1_2  and  C2_3 
REMARK    2  A    between atoms: C5_6  and  N1_7 
REMARK       I    between atoms: N1_7  and  C6_8 
REMARK       I    between atoms: C6_8  and  N2_10 
REMARK    3  A    between atoms: N2_10  and  C7_11 
REMARK    4  A    between atoms: C10_14  and  N3_15 
REMARK    5  A    between atoms: N3_15  and  C11_16 
REMARK    6  A    between atoms: C16_23  and  O3_25 
ROOT
HETATM    1  C7  UNL     1      20.511   0.872  52.806  1.00  0.00     0.036 A 
HETATM    2  C8  UNL     1      20.365   2.202  52.616  1.00  0.00     0.032 A 
HETATM    3  C9  UNL     1      19.312   2.827  51.988  1.00  0.00     0.032 A 
HETATM    4  C10 UNL     1      18.298   2.059  51.498  1.00  0.00     0.033 A 
HETATM    5  C21 UNL     1      18.383   0.671  51.658  1.00  0.00     0.032 A 
HETATM    6  C22 UNL     1      19.464   0.106  52.296  1.00  0.00     0.032 A 
ENDROOT
BRANCH   4   7
HETATM    7  N3  UNL     1      17.088   2.447  50.805  1.00  0.00    -0.340 N 
HETATM    8  H10 UNL     1      16.844   2.522  49.793  1.00  0.00     0.167 HD
BRANCH   7   9
HETATM    9  C11 UNL     1      16.017   2.785  51.686  1.00  0.00     0.138 A 
HETATM   10  N4  UNL     1      16.097   3.883  52.395  1.00  0.00    -0.224 NA
HETATM   11  C12 UNL     1      15.010   4.191  53.257  1.00  0.00     0.230 A 
HETATM   12  N5  UNL     1      13.929   3.490  53.408  1.00  0.00    -0.269 NA
HETATM   13  C13 UNL     1      13.692   2.266  52.686  1.00  0.00     0.168 A 
HETATM   14  C14 UNL     1      13.338   1.151  53.585  1.00  0.00     0.004 C 
HETATM   15  C20 UNL     1      14.847   1.905  51.860  1.00  0.00     0.016 A 
HETATM   16  C15 UNL     1      13.322  -0.024  52.922  1.00  0.00     0.013 C 
HETATM   17  C16 UNL     1      13.632  -0.159  51.441  1.00  0.00     0.093 C 
HETATM   18  C17 UNL     1      12.469   0.223  50.597  1.00  0.00     0.055 C 
HETATM   19  C19 UNL     1      14.843   0.716  51.235  1.00  0.00     0.028 C 
BRANCH  17  20
HETATM   20  O3  UNL     1      14.071  -1.465  51.292  1.00  0.00    -0.377 OA
HETATM   21  C18 UNL     1      15.318  -1.738  51.777  1.00  0.00     0.203 C 
ENDBRANCH  17  20
ENDBRANCH   7   9
ENDBRANCH   4   7
BRANCH   1  22
HETATM   22  N2  UNL     1      21.556   0.198  53.460  1.00  0.00    -0.309 N 
HETATM   23  C6  UNL     1      22.935   0.270  53.240  1.00  0.00     0.325 C 
HETATM   24  N1  UNL     1      23.894  -0.455  53.957  1.00  0.00    -0.309 N 
HETATM   25  O2  UNL     1      23.343   1.039  52.338  1.00  0.00    -0.247 OA
HETATM   26  H6  UNL     1      23.489  -1.085  54.690  1.00  0.00     0.170 HD
HETATM   27  H7  UNL     1      21.303  -0.470  54.237  1.00  0.00     0.170 HD
BRANCH  24  28
HETATM   28  C5  UNL     1      25.299  -0.455  53.831  1.00  0.00     0.036 A 
HETATM   29  C4  UNL     1      26.058  -1.026  52.842  1.00  0.00     0.032 A 
HETATM   30  C3  UNL     1      27.430  -0.983  52.788  1.00  0.00     0.039 A 
HETATM   31  C2  UNL     1      28.149  -0.338  53.761  1.00  0.00     0.068 A 
HETATM   32  C24 UNL     1      27.422   0.247  54.770  1.00  0.00     0.039 A 
HETATM   33  C23 UNL     1      26.063   0.178  54.783  1.00  0.00     0.032 A 
BRANCH  31  34
HETATM   34  O1  UNL     1      29.514  -0.308  53.684  1.00  0.00    -0.356 OA
HETATM   35  C1  UNL     1      30.403  -1.358  53.912  1.00  0.00     0.210 C 
ENDBRANCH  31  34
ENDBRANCH  24  28
ENDBRANCH   1  22
TORSDOF 6
ENDMDL
MODEL 8
REMARK VINA RESULT:      -7.9     21.443     23.488
REMARK  6 active torsions:
REMARK  status: ('A' for Active; 'I' for Inactive)
REMARK    1  A    between atoms: O1_2  and  C2_3 
REMARK    2  A    between atoms: C5_6  and  N1_7 
REMARK       I    between atoms: N1_7  and  C6_8 
REMARK       I    between atoms: C6_8  and  N2_10 
REMARK    3  A    between atoms: N2_10  and  C7_11 
REMARK    4  A    between atoms: C10_14  and  N3_15 
REMARK    5  A    between atoms: N3_15  and  C11_16 
REMARK    6  A    between atoms: C16_23  and  O3_25 
ROOT
HETATM    1  C7  UNL     1      44.605   4.047  67.861  1.00  0.00     0.036 A 
HETATM    2  C8  UNL     1      43.749   4.563  68.771  1.00  0.00     0.032 A 
HETATM    3  C9  UNL     1      42.921   3.851  69.608  1.00  0.00     0.032 A 
HETATM    4  C10 UNL     1      42.940   2.490  69.540  1.00  0.00     0.033 A 
HETATM    5  C21 UNL     1      43.803   1.886  68.617  1.00  0.00     0.032 A 
HETATM    6  C22 UNL     1      44.608   2.655  67.806  1.00  0.00     0.032 A 
ENDROOT
BRANCH   4   7
HETATM    7  N3  UNL     1      42.186   1.509  70.291  1.00  0.00    -0.340 N 
HETATM    8  H10 UNL     1      42.465   0.784  70.990  1.00  0.00     0.167 HD
BRANCH   7   9
HETATM    9  C11 UNL     1      40.785   1.548  70.025  1.00  0.00     0.138 A 
HETATM   10  N4  UNL     1      40.048   2.447  70.627  1.00  0.00    -0.224 NA
HETATM   11  C12 UNL     1      38.657   2.461  70.334  1.00  0.00     0.230 A 
HETATM   12  N5  UNL     1      38.037   1.667  69.515  1.00  0.00    -0.269 NA
HETATM   13  C13 UNL     1      38.717   0.639  68.771  1.00  0.00     0.168 A 
HETATM   14  C14 UNL     1      38.082  -0.682  68.942  1.00  0.00     0.004 C 
HETATM   15  C20 UNL     1      40.135   0.569  69.134  1.00  0.00     0.016 A 
HETATM   16  C15 UNL     1      38.842  -1.662  68.412  1.00  0.00     0.013 C 
HETATM   17  C16 UNL     1      40.178  -1.417  67.732  1.00  0.00     0.093 C 
HETATM   18  C17 UNL     1      40.006  -0.929  66.338  1.00  0.00     0.055 C 
HETATM   19  C19 UNL     1      40.878  -0.432  68.636  1.00  0.00     0.028 C 
BRANCH  17  20
HETATM   20  O3  UNL     1      40.864  -2.614  67.862  1.00  0.00    -0.377 OA
HETATM   21  C18 UNL     1      40.970  -3.110  69.131  1.00  0.00     0.203 C 
ENDBRANCH  17  20
ENDBRANCH   7   9
ENDBRANCH   4   7
BRANCH   1  22
HETATM   22  N2  UNL     1      45.481   4.737  67.006  1.00  0.00    -0.309 N 
HETATM   23  C6  UNL     1      45.306   5.116  65.671  1.00  0.00     0.325 C 
HETATM   24  N1  UNL     1      46.256   5.805  64.909  1.00  0.00    -0.309 N 
HETATM   25  O2  UNL     1      44.222   4.819  65.117  1.00  0.00    -0.247 OA
HETATM   26  H6  UNL     1      47.143   6.016  65.426  1.00  0.00     0.170 HD
HETATM   27  H7  UNL     1      46.419   5.029  67.391  1.00  0.00     0.170 HD
BRANCH  24  28
HETATM   28  C5  UNL     1      46.187   6.245  63.570  1.00  0.00     0.036 A 
HETATM   29  C4  UNL     1      45.991   5.490  62.443  1.00  0.00     0.032 A 
HETATM   30  C3  UNL     1      45.935   5.994  61.165  1.00  0.00     0.039 A 
HETATM   31  C2  UNL     1      46.076   7.338  60.937  1.00  0.00     0.068 A 
HETATM   32  C24 UNL     1      46.273   8.128  62.044  1.00  0.00     0.039 A 
HETATM   33  C23 UNL     1      46.323   7.585  63.291  1.00  0.00     0.032 A 
BRANCH  31  34
HETATM   34  O1  UNL     1      46.014   7.815  59.657  1.00  0.00    -0.356 OA
HETATM   35  C1  UNL     1      45.160   7.400  58.635  1.00  0.00     0.210 C 
ENDBRANCH  31  34
ENDBRANCH  24  28
ENDBRANCH   1  22
TORSDOF 6
ENDMDL
MODEL 9
REMARK VINA RESULT:      -7.7      3.246     10.905
REMARK  6 active torsions:
REMARK  status: ('A' for Active; 'I' for Inactive)
REMARK    1  A    between atoms: O1_2  and  C2_3 
REMARK    2  A    between atoms: C5_6  and  N1_7 
REMARK       I    between atoms: N1_7  and  C6_8 
REMARK       I    between atoms: C6_8  and  N2_10 
REMARK    3  A    between atoms: N2_10  and  C7_11 
REMARK    4  A    between atoms: C10_14  and  N3_15 
REMARK    5  A    between atoms: N3_15  and  C11_16 
REMARK    6  A    between atoms: C16_23  and  O3_25 
ROOT
HETATM    1  C7  UNL     1      25.990   6.352  49.793  1.00  0.00     0.036 A 
HETATM    2  C8  UNL     1      25.780   7.589  50.294  1.00  0.00     0.032 A 
HETATM    3  C9  UNL     1      26.030   8.782  49.656  1.00  0.00     0.032 A 
HETATM    4  C10 UNL     1      26.537   8.750  48.392  1.00  0.00     0.033 A 
HETATM    5  C21 UNL     1      26.782   7.501  47.809  1.00  0.00     0.032 A 
HETATM    6  C22 UNL     1      26.511   6.342  48.500  1.00  0.00     0.032 A 
ENDROOT
BRANCH   4   7
HETATM    7  N3  UNL     1      26.887   9.837  47.501  1.00  0.00    -0.340 N 
HETATM    8  H10 UNL     1      26.604  10.071  46.524  1.00  0.00     0.167 HD
BRANCH   7   9
HETATM    9  C11 UNL     1      27.794  10.773  48.082  1.00  0.00     0.138 A 
HETATM   10  N4  UNL     1      27.337  11.924  48.507  1.00  0.00    -0.224 NA
HETATM   11  C12 UNL     1      28.267  12.830  49.085  1.00  0.00     0.230 A 
HETATM   12  N5  UNL     1      29.540  12.626  49.242  1.00  0.00    -0.269 NA
HETATM   13  C13 UNL     1      30.184  11.403  48.837  1.00  0.00     0.168 A 
HETATM   14  C14 UNL     1      31.353  11.653  47.973  1.00  0.00     0.004 C 
HETATM   15  C20 UNL     1      29.242  10.503  48.166  1.00  0.00     0.016 A 
HETATM   16  C15 UNL     1      31.819  10.505  47.437  1.00  0.00     0.013 C 
HETATM   17  C16 UNL     1      31.202   9.142  47.702  1.00  0.00     0.093 C 
HETATM   18  C17 UNL     1      31.628   8.589  49.015  1.00  0.00     0.055 C 
HETATM   19  C19 UNL     1      29.716   9.382  47.599  1.00  0.00     0.028 C 
BRANCH  17  20
HETATM   20  O3  UNL     1      31.546   8.380  46.597  1.00  0.00    -0.377 OA
HETATM   21  C18 UNL     1      32.035   7.132  46.858  1.00  0.00     0.203 C 
ENDBRANCH  17  20
ENDBRANCH   7   9
ENDBRANCH   4   7
BRANCH   1  22
HETATM   22  N2  UNL     1      25.728   5.112  50.401  1.00  0.00    -0.309 N 
HETATM   23  C6  UNL     1      24.531   4.396  50.479  1.00  0.00     0.325 C 
HETATM   24  N1  UNL     1      24.384   3.159  51.118  1.00  0.00    -0.309 N 
HETATM   25  O2  UNL     1      23.516   4.893  49.938  1.00  0.00    -0.247 OA
HETATM   26  H6  UNL     1      25.265   2.801  51.558  1.00  0.00     0.170 HD
HETATM   27  H7  UNL     1      26.529   4.619  50.881  1.00  0.00     0.170 HD
BRANCH  24  28
HETATM   28  C5  UNL     1      23.239   2.346  51.251  1.00  0.00     0.036 A 
HETATM   29  C4  UNL     1      22.507   1.750  50.256  1.00  0.00     0.032 A 
HETATM   30  C3  UNL     1      21.397   0.967  50.465  1.00  0.00     0.039 A 
HETATM   31  C2  UNL     1      20.940   0.726  51.734  1.00  0.00     0.068 A 
HETATM   32  C24 UNL     1      21.648   1.307  52.758  1.00  0.00     0.039 A 
HETATM   33  C23 UNL     1      22.742   2.076  52.504  1.00  0.00     0.032 A 
BRANCH  31  34
HETATM   34  O1  UNL     1      19.835  -0.058  51.916  1.00  0.00    -0.356 OA
HETATM   35  C1  UNL     1      18.560   0.130  51.381  1.00  0.00     0.210 C 
ENDBRANCH  31  34
ENDBRANCH  24  28
ENDBRANCH   1  22
TORSDOF 6
ENDMDL
