MODEL 1
REMARK VINA RESULT:      -7.8      0.000      0.000
REMARK  3 active torsions:
REMARK  status: ('A' for Active; 'I' for Inactive)
REMARK    1  A    between atoms: C7_7  and  C8_8 
REMARK    2  A    between atoms: C19_19  and  N1_20 
REMARK    3  A    between atoms: N3_22  and  N4_23 
ROOT
HETATM    1  C8  UNL     1      21.615   0.715  52.389  1.00  0.00     0.132 C 
HETATM    2  C9  UNL     1      21.490   0.224  50.991  1.00  0.00     0.008 C 
HETATM    3  C10 UNL     1      21.446   1.235  50.105  1.00  0.00    -0.026 C 
HETATM    4  C11 UNL     1      21.329   1.423  48.619  1.00  0.00     0.037 C 
HETATM    5  C12 UNL     1      21.532   2.739  48.379  1.00  0.00     0.040 C 
HETATM    6  C13 UNL     1      22.222   3.779  47.527  1.00  0.00     0.086 C 
HETATM    7  C14 UNL     1      23.177   4.504  48.497  1.00  0.00    -0.024 C 
HETATM    8  C15 UNL     1      23.120   4.325  49.878  1.00  0.00    -0.023 C 
HETATM    9  C16 UNL     1      22.849   3.203  50.826  1.00  0.00     0.040 C 
HETATM   10  C17 UNL     1      23.209   3.763  52.196  1.00  0.00     0.017 C 
HETATM   11  C18 UNL     1      21.555   2.537  50.890  1.00  0.00     0.121 C 
HETATM   12  C19 UNL     1      20.336   3.284  50.432  1.00  0.00     0.128 C 
HETATM   13  N2  UNL     1      20.954   3.629  49.408  1.00  0.00    -0.238 NA
HETATM   14  N3  UNL     1      21.396   2.100  52.283  1.00  0.00    -0.219 NA
ENDROOT
BRANCH   1  15
HETATM   15  C7  UNL     1      22.802   0.238  53.094  1.00  0.00    -0.029 A 
HETATM   16  C2  UNL     1      22.613  -0.579  54.220  1.00  0.00    -0.054 A 
HETATM   17  C1  UNL     1      21.225  -0.901  54.636  1.00  0.00     0.049 C 
HETATM   18  C3  UNL     1      23.685  -1.092  54.948  1.00  0.00     0.007 A 
HETATM   19  C4  UNL     1      24.980  -0.817  54.594  1.00  0.00     0.001 A 
HETATM   20  C5  UNL     1      25.211  -0.019  53.495  1.00  0.00     0.001 A 
HETATM   21  C6  UNL     1      24.126   0.461  52.810  1.00  0.00     0.009 A 
ENDBRANCH   1  15
BRANCH  14  22
HETATM   22  N4  UNL     1      20.219   2.554  52.841  1.00  0.00    -0.266 NA
HETATM   23  H21 UNL     1      19.400   2.571  52.194  1.00  0.00     0.137 HD
HETATM   24  H22 UNL     1      20.031   1.908  53.667  1.00  0.00     0.137 HD
ENDBRANCH  14  22
BRANCH  12  25
HETATM   25  N1  UNL     1      19.072   3.415  51.073  1.00  0.00    -0.385 N 
HETATM   26  H19 UNL     1      18.688   4.285  51.521  1.00  0.00     0.157 HD
HETATM   27  H20 UNL     1      18.515   2.519  51.067  1.00  0.00     0.157 HD
ENDBRANCH  12  25
TORSDOF 3
ENDMDL
MODEL 2
REMARK VINA RESULT:      -7.7      2.503      4.112
REMARK  3 active torsions:
REMARK  status: ('A' for Active; 'I' for Inactive)
REMARK    1  A    between atoms: C7_7  and  C8_8 
REMARK    2  A    between atoms: C19_19  and  N1_20 
REMARK    3  A    between atoms: N3_22  and  N4_23 
ROOT
HETATM    1  C8  UNL     1      24.238   3.385  52.211  1.00  0.00     0.132 C 
HETATM    2  C9  UNL     1      23.401   4.568  52.546  1.00  0.00     0.008 C 
HETATM    3  C10 UNL     1      23.212   5.368  51.481  1.00  0.00    -0.026 C 
HETATM    4  C11 UNL     1      22.509   6.654  51.152  1.00  0.00     0.037 C 
HETATM    5  C12 UNL     1      22.582   6.801  49.809  1.00  0.00     0.040 C 
HETATM    6  C13 UNL     1      21.852   7.150  48.533  1.00  0.00     0.086 C 
HETATM    7  C14 UNL     1      21.867   5.846  47.709  1.00  0.00    -0.024 C 
HETATM    8  C15 UNL     1      22.649   4.747  48.061  1.00  0.00    -0.023 C 
HETATM    9  C16 UNL     1      23.086   4.073  49.320  1.00  0.00     0.040 C 
HETATM   10  C17 UNL     1      23.744   2.781  48.856  1.00  0.00     0.017 C 
HETATM   11  C18 UNL     1      23.938   4.736  50.299  1.00  0.00     0.121 C 
HETATM   12  C19 UNL     1      24.828   5.855  49.840  1.00  0.00     0.128 C 
HETATM   13  N2  UNL     1      23.862   6.348  49.228  1.00  0.00    -0.238 NA
HETATM   14  N3  UNL     1      24.732   3.672  50.927  1.00  0.00    -0.219 NA
ENDROOT
BRANCH   1  15
HETATM   15  C7  UNL     1      23.588   2.099  52.448  1.00  0.00    -0.029 A 
HETATM   16  C2  UNL     1      24.317   1.112  53.132  1.00  0.00    -0.054 A 
HETATM   17  C1  UNL     1      25.702   1.425  53.563  1.00  0.00     0.049 C 
HETATM   18  C3  UNL     1      23.776  -0.141  53.415  1.00  0.00     0.007 A 
HETATM   19  C4  UNL     1      22.499  -0.466  53.035  1.00  0.00     0.001 A 
HETATM   20  C5  UNL     1      21.750   0.473  52.361  1.00  0.00     0.001 A 
HETATM   21  C6  UNL     1      22.324   1.690  52.106  1.00  0.00     0.009 A 
ENDBRANCH   1  15
BRANCH  14  22
HETATM   22  N4  UNL     1      26.087   3.925  50.860  1.00  0.00    -0.266 NA
HETATM   23  H21 UNL     1      26.393   4.817  51.306  1.00  0.00     0.137 HD
HETATM   24  H22 UNL     1      26.553   3.091  51.331  1.00  0.00     0.137 HD
ENDBRANCH  14  22
BRANCH  12  25
HETATM   25  N1  UNL     1      26.207   6.073  50.116  1.00  0.00    -0.385 N 
HETATM   26  H19 UNL     1      26.807   5.513  50.772  1.00  0.00     0.157 HD
HETATM   27  H20 UNL     1      26.607   6.890  49.581  1.00  0.00     0.157 HD
ENDBRANCH  12  25
TORSDOF 3
ENDMDL
MODEL 3
REMARK VINA RESULT:      -7.6      9.609     11.933
REMARK  3 active torsions:
REMARK  status: ('A' for Active; 'I' for Inactive)
REMARK    1  A    between atoms: C7_7  and  C8_8 
REMARK    2  A    between atoms: C19_19  and  N1_20 
REMARK    3  A    between atoms: N3_22  and  N4_23 
ROOT
HETATM    1  C8  UNL     1      32.588   5.617  47.520  1.00  0.00     0.132 C 
HETATM    2  C9  UNL     1      31.330   4.902  47.866  1.00  0.00     0.008 C 
HETATM    3  C10 UNL     1      30.279   5.739  47.938  1.00  0.00    -0.026 C 
HETATM    4  C11 UNL     1      28.808   5.672  48.231  1.00  0.00     0.037 C 
HETATM    5  C12 UNL     1      28.302   6.895  47.949  1.00  0.00     0.040 C 
HETATM    6  C13 UNL     1      27.196   7.686  47.290  1.00  0.00     0.086 C 
HETATM    7  C14 UNL     1      27.898   8.464  46.158  1.00  0.00    -0.024 C 
HETATM    8  C15 UNL     1      29.286   8.541  46.052  1.00  0.00    -0.023 C 
HETATM    9  C16 UNL     1      30.453   7.641  46.291  1.00  0.00     0.040 C 
HETATM   10  C17 UNL     1      31.644   8.393  45.711  1.00  0.00     0.017 C 
HETATM   11  C18 UNL     1      30.787   7.140  47.619  1.00  0.00     0.121 C 
HETATM   12  C19 UNL     1      30.334   7.920  48.819  1.00  0.00     0.128 C 
HETATM   13  N2  UNL     1      29.201   8.009  48.311  1.00  0.00    -0.238 NA
HETATM   14  N3  UNL     1      32.246   6.977  47.632  1.00  0.00    -0.219 NA
ENDROOT
BRANCH   1  15
HETATM   15  C7  UNL     1      33.232   5.148  46.297  1.00  0.00    -0.029 A 
HETATM   16  C2  UNL     1      34.417   4.404  46.423  1.00  0.00    -0.054 A 
HETATM   17  C1  UNL     1      34.951   4.149  47.784  1.00  0.00     0.049 C 
HETATM   18  C3  UNL     1      35.096   3.905  45.313  1.00  0.00     0.007 A 
HETATM   19  C4  UNL     1      34.633   4.120  44.041  1.00  0.00     0.001 A 
HETATM   20  C5  UNL     1      33.474   4.844  43.872  1.00  0.00     0.001 A 
HETATM   21  C6  UNL     1      32.841   5.315  44.991  1.00  0.00     0.009 A 
ENDBRANCH   1  15
BRANCH  14  22
HETATM   22  N4  UNL     1      32.836   7.647  48.684  1.00  0.00    -0.266 NA
HETATM   23  H21 UNL     1      33.851   7.445  48.824  1.00  0.00     0.137 HD
HETATM   24  H22 UNL     1      32.683   8.681  48.481  1.00  0.00     0.137 HD
ENDBRANCH  14  22
BRANCH  12  25
HETATM   25  N1  UNL     1      31.076   8.299  49.973  1.00  0.00    -0.385 N 
HETATM   26  H19 UNL     1      31.993   8.811  49.983  1.00  0.00     0.157 HD
HETATM   27  H20 UNL     1      30.610   8.007  50.873  1.00  0.00     0.157 HD
ENDBRANCH  12  25
TORSDOF 3
ENDMDL
MODEL 4
REMARK VINA RESULT:      -7.4      3.487      5.420
REMARK  3 active torsions:
REMARK  status: ('A' for Active; 'I' for Inactive)
REMARK    1  A    between atoms: C7_7  and  C8_8 
REMARK    2  A    between atoms: C19_19  and  N1_20 
REMARK    3  A    between atoms: N3_22  and  N4_23 
ROOT
HETATM    1  C8  UNL     1      22.275   4.869  49.934  1.00  0.00     0.132 C 
HETATM    2  C9  UNL     1      22.450   5.748  48.747  1.00  0.00     0.008 C 
HETATM    3  C10 UNL     1      23.697   6.247  48.670  1.00  0.00    -0.026 C 
HETATM    4  C11 UNL     1      24.491   7.152  47.773  1.00  0.00     0.037 C 
HETATM    5  C12 UNL     1      25.775   7.084  48.194  1.00  0.00     0.040 C 
HETATM    6  C13 UNL     1      27.229   6.950  47.807  1.00  0.00     0.086 C 
HETATM    7  C14 UNL     1      27.670   5.604  48.418  1.00  0.00    -0.024 C 
HETATM    8  C15 UNL     1      26.883   4.902  49.330  1.00  0.00    -0.023 C 
HETATM    9  C16 UNL     1      25.429   4.635  49.542  1.00  0.00     0.040 C 
HETATM   10  C17 UNL     1      25.389   3.573  50.634  1.00  0.00     0.017 C 
HETATM   11  C18 UNL     1      24.483   5.699  49.855  1.00  0.00     0.121 C 
HETATM   12  C19 UNL     1      24.996   6.954  50.500  1.00  0.00     0.128 C 
HETATM   13  N2  UNL     1      25.916   6.987  49.662  1.00  0.00    -0.238 NA
HETATM   14  N3  UNL     1      23.443   5.080  50.687  1.00  0.00    -0.219 NA
ENDROOT
BRANCH   1  15
HETATM   15  C7  UNL     1      21.873   3.501  49.619  1.00  0.00    -0.029 A 
HETATM   16  C2  UNL     1      20.874   2.912  50.411  1.00  0.00    -0.054 A 
HETATM   17  C1  UNL     1      20.294   3.703  51.525  1.00  0.00     0.049 C 
HETATM   18  C3  UNL     1      20.418   1.616  50.178  1.00  0.00     0.007 A 
HETATM   19  C4  UNL     1      20.928   0.855  49.159  1.00  0.00     0.001 A 
HETATM   20  C5  UNL     1      21.910   1.395  48.358  1.00  0.00     0.001 A 
HETATM   21  C6  UNL     1      22.327   2.672  48.624  1.00  0.00     0.009 A 
ENDBRANCH   1  15
BRANCH  14  22
HETATM   22  N4  UNL     1      23.262   5.751  51.879  1.00  0.00    -0.266 NA
HETATM   23  H21 UNL     1      23.311   5.155  52.734  1.00  0.00     0.137 HD
HETATM   24  H22 UNL     1      24.019   6.500  51.899  1.00  0.00     0.137 HD
ENDBRANCH  14  22
BRANCH  12  25
HETATM   25  N1  UNL     1      24.479   7.659  51.623  1.00  0.00    -0.385 N 
HETATM   26  H19 UNL     1      23.467   7.864  51.818  1.00  0.00     0.157 HD
HETATM   27  H20 UNL     1      25.233   7.983  52.286  1.00  0.00     0.157 HD
ENDBRANCH  12  25
TORSDOF 3
ENDMDL
MODEL 5
REMARK VINA RESULT:      -7.2      2.773      5.645
REMARK  3 active torsions:
REMARK  status: ('A' for Active; 'I' for Inactive)
REMARK    1  A    between atoms: C7_7  and  C8_8 
REMARK    2  A    between atoms: C19_19  and  N1_20 
REMARK    3  A    between atoms: N3_22  and  N4_23 
ROOT
HETATM    1  C8  UNL     1      23.327   5.354  49.660  1.00  0.00     0.132 C 
HETATM    2  C9  UNL     1      22.945   5.177  51.086  1.00  0.00     0.008 C 
HETATM    3  C10 UNL     1      21.990   4.243  51.239  1.00  0.00    -0.026 C 
HETATM    4  C11 UNL     1      21.199   3.616  52.352  1.00  0.00     0.037 C 
HETATM    5  C12 UNL     1      20.514   2.585  51.806  1.00  0.00     0.040 C 
HETATM    6  C13 UNL     1      20.087   1.141  51.930  1.00  0.00     0.086 C 
HETATM    7  C14 UNL     1      20.766   0.433  50.740  1.00  0.00    -0.024 C 
HETATM    8  C15 UNL     1      21.382   1.133  49.704  1.00  0.00    -0.023 C 
HETATM    9  C16 UNL     1      22.197   2.376  49.557  1.00  0.00     0.040 C 
HETATM   10  C17 UNL     1      22.698   2.338  48.119  1.00  0.00     0.017 C 
HETATM   11  C18 UNL     1      21.658   3.696  49.856  1.00  0.00     0.121 C 
HETATM   12  C19 UNL     1      20.173   3.903  49.783  1.00  0.00     0.128 C 
HETATM   13  N2  UNL     1      20.014   2.858  50.442  1.00  0.00    -0.238 NA
HETATM   14  N3  UNL     1      22.351   4.627  48.956  1.00  0.00    -0.219 NA
ENDROOT
BRANCH   1  15
HETATM   15  C7  UNL     1      24.737   5.105  49.376  1.00  0.00    -0.029 A 
HETATM   16  C2  UNL     1      25.470   6.125  48.748  1.00  0.00    -0.054 A 
HETATM   17  C1  UNL     1      24.771   7.387  48.398  1.00  0.00     0.049 C 
HETATM   18  C3  UNL     1      26.824   5.983  48.449  1.00  0.00     0.007 A 
HETATM   19  C4  UNL     1      27.503   4.833  48.757  1.00  0.00     0.001 A 
HETATM   20  C5  UNL     1      26.822   3.808  49.374  1.00  0.00     0.001 A 
HETATM   21  C6  UNL     1      25.493   3.993  49.648  1.00  0.00     0.009 A 
ENDBRANCH   1  15
BRANCH  14  22
HETATM   22  N4  UNL     1      21.471   5.388  48.214  1.00  0.00    -0.266 NA
HETATM   23  H21 UNL     1      21.900   6.194  47.708  1.00  0.00     0.137 HD
HETATM   24  H22 UNL     1      21.021   4.709  47.528  1.00  0.00     0.137 HD
ENDBRANCH  14  22
BRANCH  12  25
HETATM   25  N1  UNL     1      19.444   4.951  49.156  1.00  0.00    -0.385 N 
HETATM   26  H19 UNL     1      18.467   5.259  49.391  1.00  0.00     0.157 HD
HETATM   27  H20 UNL     1      19.989   5.426  48.387  1.00  0.00     0.157 HD
ENDBRANCH  12  25
TORSDOF 3
ENDMDL
MODEL 6
REMARK VINA RESULT:      -6.9      2.235      3.899
REMARK  3 active torsions:
REMARK  status: ('A' for Active; 'I' for Inactive)
REMARK    1  A    between atoms: C7_7  and  C8_8 
REMARK    2  A    between atoms: C19_19  and  N1_20 
REMARK    3  A    between atoms: N3_22  and  N4_23 
ROOT
HETATM    1  C8  UNL     1      21.536   2.164  52.288  1.00  0.00     0.132 C 
HETATM    2  C9  UNL     1      21.195   3.606  52.415  1.00  0.00     0.008 C 
HETATM    3  C10 UNL     1      21.779   4.348  51.458  1.00  0.00    -0.026 C 
HETATM    4  C11 UNL     1      21.849   5.789  51.038  1.00  0.00     0.037 C 
HETATM    5  C12 UNL     1      22.494   5.814  49.849  1.00  0.00     0.040 C 
HETATM    6  C13 UNL     1      22.532   6.361  48.441  1.00  0.00     0.086 C 
HETATM    7  C14 UNL     1      22.338   5.124  47.540  1.00  0.00    -0.024 C 
HETATM    8  C15 UNL     1      22.400   3.822  48.032  1.00  0.00    -0.023 C 
HETATM    9  C16 UNL     1      21.994   3.102  49.276  1.00  0.00     0.040 C 
HETATM   10  C17 UNL     1      22.195   1.627  48.949  1.00  0.00     0.017 C 
HETATM   11  C18 UNL     1      22.585   3.403  50.574  1.00  0.00     0.121 C 
HETATM   12  C19 UNL     1      23.953   4.019  50.618  1.00  0.00     0.128 C 
HETATM   13  N2  UNL     1      23.595   4.834  49.747  1.00  0.00    -0.238 NA
HETATM   14  N3  UNL     1      22.564   2.143  51.328  1.00  0.00    -0.219 NA
ENDROOT
BRANCH   1  15
HETATM   15  C7  UNL     1      20.385   1.283  52.112  1.00  0.00    -0.029 A 
HETATM   16  C2  UNL     1      20.161   0.294  53.083  1.00  0.00    -0.054 A 
HETATM   17  C1  UNL     1      21.109   0.191  54.221  1.00  0.00     0.049 C 
HETATM   18  C3  UNL     1      19.082  -0.584  53.006  1.00  0.00     0.007 A 
HETATM   19  C4  UNL     1      18.185  -0.520  51.971  1.00  0.00     0.001 A 
HETATM   20  C5  UNL     1      18.368   0.437  50.996  1.00  0.00     0.001 A 
HETATM   21  C6  UNL     1      19.442   1.277  51.114  1.00  0.00     0.009 A 
ENDBRANCH   1  15
BRANCH  14  22
HETATM   22  N4  UNL     1      23.811   1.802  51.808  1.00  0.00    -0.266 NA
HETATM   23  H21 UNL     1      24.505   1.525  51.080  1.00  0.00     0.137 HD
HETATM   24  H22 UNL     1      24.150   2.658  52.344  1.00  0.00     0.137 HD
ENDBRANCH  14  22
BRANCH  12  25
HETATM   25  N1  UNL     1      25.073   3.657  51.418  1.00  0.00    -0.385 N 
HETATM   26  H19 UNL     1      25.692   4.313  51.957  1.00  0.00     0.157 HD
HETATM   27  H20 UNL     1      25.249   2.616  51.430  1.00  0.00     0.157 HD
ENDBRANCH  12  25
TORSDOF 3
ENDMDL
MODEL 7
REMARK VINA RESULT:      -6.9      2.554      4.627
REMARK  3 active torsions:
REMARK  status: ('A' for Active; 'I' for Inactive)
REMARK    1  A    between atoms: C7_7  and  C8_8 
REMARK    2  A    between atoms: C19_19  and  N1_20 
REMARK    3  A    between atoms: N3_22  and  N4_23 
ROOT
HETATM    1  C8  UNL     1      20.039   0.966  52.151  1.00  0.00     0.132 C 
HETATM    2  C9  UNL     1      20.175   2.381  52.587  1.00  0.00     0.008 C 
HETATM    3  C10 UNL     1      21.266   2.967  52.061  1.00  0.00    -0.026 C 
HETATM    4  C11 UNL     1      21.951   4.303  52.096  1.00  0.00     0.037 C 
HETATM    5  C12 UNL     1      22.936   4.257  51.170  1.00  0.00     0.040 C 
HETATM    6  C13 UNL     1      23.637   4.961  50.032  1.00  0.00     0.086 C 
HETATM    7  C14 UNL     1      23.366   4.073  48.801  1.00  0.00    -0.024 C 
HETATM    8  C15 UNL     1      22.817   2.796  48.905  1.00  0.00    -0.023 C 
HETATM    9  C16 UNL     1      21.793   2.111  49.748  1.00  0.00     0.040 C 
HETATM   10  C17 UNL     1      21.591   0.755  49.083  1.00  0.00     0.017 C 
HETATM   11  C18 UNL     1      21.963   1.934  51.185  1.00  0.00     0.121 C 
HETATM   12  C19 UNL     1      23.354   1.927  51.751  1.00  0.00     0.128 C 
HETATM   13  N2  UNL     1      23.611   2.946  51.083  1.00  0.00    -0.238 NA
HETATM   14  N3  UNL     1      21.265   0.686  51.522  1.00  0.00    -0.219 NA
ENDROOT
BRANCH   1  15
HETATM   15  C7  UNL     1      18.797   0.668  51.445  1.00  0.00    -0.029 A 
HETATM   16  C2  UNL     1      17.984  -0.360  51.951  1.00  0.00    -0.054 A 
HETATM   17  C1  UNL     1      18.437  -1.089  53.162  1.00  0.00     0.049 C 
HETATM   18  C3  UNL     1      16.775  -0.707  51.352  1.00  0.00     0.007 A 
HETATM   19  C4  UNL     1      16.323  -0.056  50.233  1.00  0.00     0.001 A 
HETATM   20  C5  UNL     1      17.090   0.958  49.704  1.00  0.00     0.001 A 
HETATM   21  C6  UNL     1      18.270   1.265  50.327  1.00  0.00     0.009 A 
ENDBRANCH   1  15
BRANCH  14  22
HETATM   22  N4  UNL     1      22.080  -0.203  52.191  1.00  0.00    -0.266 NA
HETATM   23  H21 UNL     1      23.105  -0.044  52.066  1.00  0.00     0.137 HD
HETATM   24  H22 UNL     1      21.809  -0.117  53.217  1.00  0.00     0.137 HD
ENDBRANCH  14  22
BRANCH  12  25
HETATM   25  N1  UNL     1      23.940   1.019  52.676  1.00  0.00    -0.385 N 
HETATM   26  H19 UNL     1      24.608   0.240  52.447  1.00  0.00     0.157 HD
HETATM   27  H20 UNL     1      23.634   1.193  53.671  1.00  0.00     0.157 HD
ENDBRANCH  12  25
TORSDOF 3
ENDMDL
MODEL 8
REMARK VINA RESULT:      -6.7      2.012      2.969
REMARK  3 active torsions:
REMARK  status: ('A' for Active; 'I' for Inactive)
REMARK    1  A    between atoms: C7_7  and  C8_8 
REMARK    2  A    between atoms: C19_19  and  N1_20 
REMARK    3  A    between atoms: N3_22  and  N4_23 
ROOT
HETATM    1  C8  UNL     1      21.291   2.001  51.899  1.00  0.00     0.132 C 
HETATM    2  C9  UNL     1      21.615   1.781  50.464  1.00  0.00     0.008 C 
HETATM    3  C10 UNL     1      22.714   2.459  50.087  1.00  0.00    -0.026 C 
HETATM    4  C11 UNL     1      23.536   2.666  48.847  1.00  0.00     0.037 C 
HETATM    5  C12 UNL     1      24.641   3.349  49.225  1.00  0.00     0.040 C 
HETATM    6  C13 UNL     1      26.143   3.481  49.129  1.00  0.00     0.086 C 
HETATM    7  C14 UNL     1      26.648   3.209  50.561  1.00  0.00    -0.024 C 
HETATM    8  C15 UNL     1      25.791   3.142  51.657  1.00  0.00    -0.023 C 
HETATM    9  C16 UNL     1      24.414   2.636  51.941  1.00  0.00     0.040 C 
HETATM   10  C17 UNL     1      24.280   2.719  53.456  1.00  0.00     0.017 C 
HETATM   11  C18 UNL     1      23.232   3.208  51.309  1.00  0.00     0.121 C 
HETATM   12  C19 UNL     1      23.294   4.622  50.809  1.00  0.00     0.128 C 
HETATM   13  N2  UNL     1      24.386   4.364  50.269  1.00  0.00    -0.238 NA
HETATM   14  N3  UNL     1      22.142   3.053  52.281  1.00  0.00    -0.219 NA
ENDROOT
BRANCH   1  15
HETATM   15  C7  UNL     1      21.265   0.784  52.706  1.00  0.00    -0.029 A 
HETATM   16  C2  UNL     1      20.044   0.098  52.819  1.00  0.00    -0.054 A 
HETATM   17  C1  UNL     1      18.854   0.651  52.125  1.00  0.00     0.049 C 
HETATM   18  C3  UNL     1      19.925  -1.078  53.556  1.00  0.00     0.007 A 
HETATM   19  C4  UNL     1      21.002  -1.620  54.209  1.00  0.00     0.001 A 
HETATM   20  C5  UNL     1      22.217  -0.979  54.125  1.00  0.00     0.001 A 
HETATM   21  C6  UNL     1      22.287   0.174  53.389  1.00  0.00     0.009 A 
ENDBRANCH   1  15
BRANCH  14  22
HETATM   22  N4  UNL     1      21.512   4.250  52.553  1.00  0.00    -0.266 NA
HETATM   23  H21 UNL     1      22.082   4.937  53.095  1.00  0.00     0.137 HD
HETATM   24  H22 UNL     1      21.246   4.650  51.603  1.00  0.00     0.137 HD
ENDBRANCH  14  22
BRANCH  12  25
HETATM   25  N1  UNL     1      22.361   5.680  50.997  1.00  0.00    -0.385 N 
HETATM   26  H19 UNL     1      21.930   6.272  50.243  1.00  0.00     0.157 HD
HETATM   27  H20 UNL     1      22.119   5.838  52.012  1.00  0.00     0.157 HD
ENDBRANCH  12  25
TORSDOF 3
ENDMDL
MODEL 9
REMARK VINA RESULT:      -6.6      2.771      4.474
REMARK  3 active torsions:
REMARK  status: ('A' for Active; 'I' for Inactive)
REMARK    1  A    between atoms: C7_7  and  C8_8 
REMARK    2  A    between atoms: C19_19  and  N1_20 
REMARK    3  A    between atoms: N3_22  and  N4_23 
ROOT
HETATM    1  C8  UNL     1      18.678   1.079  51.371  1.00  0.00     0.132 C 
HETATM    2  C9  UNL     1      19.532   0.821  50.181  1.00  0.00     0.008 C 
HETATM    3  C10 UNL     1      20.777   1.305  50.342  1.00  0.00    -0.026 C 
HETATM    4  C11 UNL     1      22.062   1.381  49.567  1.00  0.00     0.037 C 
HETATM    5  C12 UNL     1      22.998   1.861  50.418  1.00  0.00     0.040 C 
HETATM    6  C13 UNL     1      24.405   1.735  50.955  1.00  0.00     0.086 C 
HETATM    7  C14 UNL     1      24.220   1.367  52.441  1.00  0.00    -0.024 C 
HETATM    8  C15 UNL     1      22.984   1.437  53.082  1.00  0.00    -0.023 C 
HETATM    9  C16 UNL     1      21.556   1.171  52.737  1.00  0.00     0.040 C 
HETATM   10  C17 UNL     1      20.816   1.261  54.066  1.00  0.00     0.017 C 
HETATM   11  C18 UNL     1      20.846   1.942  51.725  1.00  0.00     0.121 C 
HETATM   12  C19 UNL     1      21.324   3.330  51.408  1.00  0.00     0.128 C 
HETATM   13  N2  UNL     1      22.488   2.894  51.343  1.00  0.00    -0.238 NA
HETATM   14  N3  UNL     1      19.440   1.967  52.150  1.00  0.00    -0.219 NA
ENDROOT
BRANCH   1  15
HETATM   15  C7  UNL     1      18.133  -0.123  51.996  1.00  0.00    -0.029 A 
HETATM   16  C2  UNL     1      16.839  -0.526  51.628  1.00  0.00    -0.054 A 
HETATM   17  C1  UNL     1      16.097   0.295  50.638  1.00  0.00     0.049 C 
HETATM   18  C3  UNL     1      16.242  -1.666  52.162  1.00  0.00     0.007 A 
HETATM   19  C4  UNL     1      16.896  -2.449  53.077  1.00  0.00     0.001 A 
HETATM   20  C5  UNL     1      18.168  -2.089  53.466  1.00  0.00     0.001 A 
HETATM   21  C6  UNL     1      18.714  -0.962  52.914  1.00  0.00     0.009 A 
ENDBRANCH   1  15
BRANCH  14  22
HETATM   22  N4  UNL     1      18.944   3.251  52.235  1.00  0.00    -0.266 NA
HETATM   23  H21 UNL     1      19.229   3.888  51.458  1.00  0.00     0.137 HD
HETATM   24  H22 UNL     1      17.885   3.143  52.262  1.00  0.00     0.137 HD
ENDBRANCH  14  22
BRANCH  12  25
HETATM   25  N1  UNL     1      20.569   4.530  51.281  1.00  0.00    -0.385 N 
HETATM   26  H19 UNL     1      20.587   5.194  50.467  1.00  0.00     0.157 HD
HETATM   27  H20 UNL     1      19.953   4.717  52.117  1.00  0.00     0.157 HD
ENDBRANCH  12  25
TORSDOF 3
ENDMDL
