MODEL 1
REMARK VINA RESULT:      -6.7      0.000      0.000
REMARK  5 active torsions:
REMARK  status: ('A' for Active; 'I' for Inactive)
REMARK    1  A    between atoms: O1_2  and  C2_3 
REMARK    2  A    between atoms: C6_9  and  N3_10 
REMARK    3  A    between atoms: N3_10  and  C7_11 
REMARK    4  A    between atoms: C8_12  and  C9_13 
REMARK    5  A    between atoms: C9_13  and  C10_14 
ROOT
HETATM    1  C2  UNL     1      24.161  -0.131  53.457  1.00  0.00     0.081 C 
HETATM    2  C3  UNL     1      23.514   0.806  52.704  1.00  0.00     0.059 C 
HETATM    3  C4  UNL     1      23.091   2.033  52.409  1.00  0.00     0.177 C 
HETATM    4  N1  UNL     1      23.171   2.040  50.997  1.00  0.00    -0.275 NA
HETATM    5  C5  UNL     1      23.700   3.226  50.480  1.00  0.00     0.229 C 
HETATM    6  N2  UNL     1      24.862   3.437  51.046  1.00  0.00    -0.225 NA
HETATM    7  C6  UNL     1      25.917   2.617  51.107  1.00  0.00     0.128 C 
HETATM    8  C11 UNL     1      26.753   1.602  51.636  1.00  0.00     0.053 C 
HETATM    9  C12 UNL     1      26.457   0.301  51.987  1.00  0.00     0.043 C 
HETATM   10  C13 UNL     1      25.354   0.093  52.786  1.00  0.00     0.097 C 
HETATM   11  O2  UNL     1      26.034   0.227  53.851  1.00  0.00    -0.353 OA
HETATM   12  C14 UNL     1      26.748   0.369  54.965  1.00  0.00     0.210 C 
ENDROOT
BRANCH   1  13
HETATM   13  O1  UNL     1      23.933  -0.976  54.406  1.00  0.00    -0.357 OA
HETATM   14  C1  UNL     1      22.974  -1.285  55.312  1.00  0.00     0.209 C 
ENDBRANCH   1  13
BRANCH   7  15
HETATM   15  N3  UNL     1      26.432   3.196  49.871  1.00  0.00    -0.351 N 
HETATM   16  H7  UNL     1      26.645   2.408  49.188  1.00  0.00     0.166 HD
BRANCH  15  17
HETATM   17  C7  UNL     1      26.721   4.508  49.276  1.00  0.00     0.090 C 
HETATM   18  C8  UNL     1      27.831   4.817  48.581  1.00  0.00     0.018 C 
BRANCH  18  19
HETATM   19  C9  UNL     1      27.379   6.199  48.385  1.00  0.00     0.009 C 
BRANCH  19  20
HETATM   20  C10 UNL     1      28.701   6.426  48.155  1.00  0.00     0.056 C 
HETATM   21 BR1  UNL     1      28.711   7.795  46.811  1.00  0.00    -0.064 Br
ENDBRANCH  19  20
ENDBRANCH  18  19
ENDBRANCH  15  17
ENDBRANCH   7  15
TORSDOF 5
ENDMDL
MODEL 2
REMARK VINA RESULT:      -6.7      3.385      4.404
REMARK  5 active torsions:
REMARK  status: ('A' for Active; 'I' for Inactive)
REMARK    1  A    between atoms: O1_2  and  C2_3 
REMARK    2  A    between atoms: C6_9  and  N3_10 
REMARK    3  A    between atoms: N3_10  and  C7_11 
REMARK    4  A    between atoms: C8_12  and  C9_13 
REMARK    5  A    between atoms: C9_13  and  C10_14 
ROOT
HETATM    1  C2  UNL     1      27.208  -0.437  53.516  1.00  0.00     0.081 C 
HETATM    2  C3  UNL     1      25.876  -0.673  53.706  1.00  0.00     0.059 C 
HETATM    3  C4  UNL     1      24.681  -0.464  54.252  1.00  0.00     0.177 C 
HETATM    4  N1  UNL     1      23.812  -0.743  53.172  1.00  0.00    -0.275 NA
HETATM    5  C5  UNL     1      22.762   0.174  53.058  1.00  0.00     0.229 C 
HETATM    6  N2  UNL     1      23.275   1.377  52.987  1.00  0.00    -0.225 NA
HETATM    7  C6  UNL     1      24.195   1.838  52.134  1.00  0.00     0.128 C 
HETATM    8  C11 UNL     1      25.493   2.135  51.649  1.00  0.00     0.053 C 
HETATM    9  C12 UNL     1      26.586   1.311  51.472  1.00  0.00     0.043 C 
HETATM   10  C13 UNL     1      26.943   0.494  52.522  1.00  0.00     0.097 C 
HETATM   11  O2  UNL     1      27.695   1.384  53.028  1.00  0.00    -0.353 OA
HETATM   12  C14 UNL     1      28.482   2.318  53.557  1.00  0.00     0.210 C 
ENDROOT
BRANCH   1  13
HETATM   13  O1  UNL     1      28.359  -0.824  53.952  1.00  0.00    -0.357 OA
HETATM   14  C1  UNL     1      29.466  -1.477  53.523  1.00  0.00     0.209 C 
ENDBRANCH   1  13
BRANCH   7  15
HETATM   15  N3  UNL     1      23.135   2.254  51.223  1.00  0.00    -0.351 N 
HETATM   16  H7  UNL     1      22.456   2.881  51.754  1.00  0.00     0.166 HD
BRANCH  15  17
HETATM   17  C7  UNL     1      22.729   2.100  49.820  1.00  0.00     0.090 C 
HETATM   18  C8  UNL     1      23.158   2.865  48.800  1.00  0.00     0.018 C 
BRANCH  18  19
HETATM   19  C9  UNL     1      22.329   2.129  47.839  1.00  0.00     0.009 C 
BRANCH  19  20
HETATM   20  C10 UNL     1      21.649   3.305  47.773  1.00  0.00     0.056 C 
HETATM   21 BR1  UNL     1      21.772   3.812  45.927  1.00  0.00    -0.064 Br
ENDBRANCH  19  20
ENDBRANCH  18  19
ENDBRANCH  15  17
ENDBRANCH   7  15
TORSDOF 5
ENDMDL
MODEL 3
REMARK VINA RESULT:      -6.7      4.560      6.109
REMARK  5 active torsions:
REMARK  status: ('A' for Active; 'I' for Inactive)
REMARK    1  A    between atoms: O1_2  and  C2_3 
REMARK    2  A    between atoms: C6_9  and  N3_10 
REMARK    3  A    between atoms: N3_10  and  C7_11 
REMARK    4  A    between atoms: C8_12  and  C9_13 
REMARK    5  A    between atoms: C9_13  and  C10_14 
ROOT
HETATM    1  C2  UNL     1      20.408   2.560  52.496  1.00  0.00     0.081 C 
HETATM    2  C3  UNL     1      20.374   1.464  53.309  1.00  0.00     0.059 C 
HETATM    3  C4  UNL     1      20.331   0.160  53.573  1.00  0.00     0.177 C 
HETATM    4  N1  UNL     1      21.130   0.070  54.737  1.00  0.00    -0.275 NA
HETATM    5  C5  UNL     1      22.001  -1.023  54.724  1.00  0.00     0.229 C 
HETATM    6  N2  UNL     1      22.719  -0.962  53.631  1.00  0.00    -0.225 NA
HETATM    7  C6  UNL     1      23.471   0.050  53.187  1.00  0.00     0.128 C 
HETATM    8  C11 UNL     1      23.770   1.243  52.483  1.00  0.00     0.053 C 
HETATM    9  C12 UNL     1      23.167   2.484  52.539  1.00  0.00     0.043 C 
HETATM   10  C13 UNL     1      21.794   2.527  52.439  1.00  0.00     0.097 C 
HETATM   11  O2  UNL     1      21.836   2.603  51.171  1.00  0.00    -0.353 OA
HETATM   12  C14 UNL     1      21.881   2.682  49.844  1.00  0.00     0.210 C 
ENDROOT
BRANCH   1  13
HETATM   13  O1  UNL     1      19.613   3.408  51.935  1.00  0.00    -0.357 OA
HETATM   14  C1  UNL     1      18.317   3.523  51.557  1.00  0.00     0.209 C 
ENDBRANCH   1  13
BRANCH   7  15
HETATM   15  N3  UNL     1      24.622  -0.503  53.892  1.00  0.00    -0.351 N 
HETATM   16  H7  UNL     1      24.274  -1.050  54.736  1.00  0.00     0.166 HD
BRANCH  15  17
HETATM   17  C7  UNL     1      26.086  -0.558  53.790  1.00  0.00     0.090 C 
HETATM   18  C8  UNL     1      26.935   0.358  54.291  1.00  0.00     0.018 C 
BRANCH  18  19
HETATM   19  C9  UNL     1      28.099  -0.373  53.778  1.00  0.00     0.009 C 
BRANCH  19  20
HETATM   20  C10 UNL     1      28.788   0.512  54.549  1.00  0.00     0.056 C 
HETATM   21 BR1  UNL     1      28.581   2.186  53.636  1.00  0.00    -0.064 Br
ENDBRANCH  19  20
ENDBRANCH  18  19
ENDBRANCH  15  17
ENDBRANCH   7  15
TORSDOF 5
ENDMDL
MODEL 4
REMARK VINA RESULT:      -6.7      4.276      7.486
REMARK  5 active torsions:
REMARK  status: ('A' for Active; 'I' for Inactive)
REMARK    1  A    between atoms: O1_2  and  C2_3 
REMARK    2  A    between atoms: C6_9  and  N3_10 
REMARK    3  A    between atoms: N3_10  and  C7_11 
REMARK    4  A    between atoms: C8_12  and  C9_13 
REMARK    5  A    between atoms: C9_13  and  C10_14 
ROOT
HETATM    1  C2  UNL     1      25.863   3.625  50.395  1.00  0.00     0.081 C 
HETATM    2  C3  UNL     1      26.536   2.633  51.049  1.00  0.00     0.059 C 
HETATM    3  C4  UNL     1      27.095   2.051  52.108  1.00  0.00     0.177 C 
HETATM    4  N1  UNL     1      26.828   0.684  51.865  1.00  0.00    -0.275 NA
HETATM    5  C5  UNL     1      26.418  -0.009  53.008  1.00  0.00     0.229 C 
HETATM    6  N2  UNL     1      25.388   0.617  53.519  1.00  0.00    -0.225 NA
HETATM    7  C6  UNL     1      24.240   0.952  52.921  1.00  0.00     0.128 C 
HETATM    8  C11 UNL     1      23.340   1.761  52.183  1.00  0.00     0.053 C 
HETATM    9  C12 UNL     1      23.481   2.340  50.938  1.00  0.00     0.043 C 
HETATM   10  C13 UNL     1      24.638   3.047  50.694  1.00  0.00     0.097 C 
HETATM   11  O2  UNL     1      24.135   4.126  51.140  1.00  0.00    -0.353 OA
HETATM   12  C14 UNL     1      23.608   5.254  51.608  1.00  0.00     0.210 C 
ENDROOT
BRANCH   1  13
HETATM   13  O1  UNL     1      26.087   4.699  49.715  1.00  0.00    -0.357 OA
HETATM   14  C1  UNL     1      26.976   5.195  48.820  1.00  0.00     0.209 C 
ENDBRANCH   1  13
BRANCH   7  15
HETATM   15  N3  UNL     1      23.657  -0.317  53.341  1.00  0.00    -0.351 N 
HETATM   16  H7  UNL     1      24.445  -1.008  53.530  1.00  0.00     0.166 HD
BRANCH  15  17
HETATM   17  C7  UNL     1      22.344  -0.923  53.603  1.00  0.00     0.090 C 
HETATM   18  C8  UNL     1      21.543  -0.620  54.640  1.00  0.00     0.018 C 
BRANCH  18  19
HETATM   19  C9  UNL     1      20.539  -1.600  54.210  1.00  0.00     0.009 C 
BRANCH  19  20
HETATM   20  C10 UNL     1      19.973  -0.514  53.614  1.00  0.00     0.056 C 
HETATM   21 BR1  UNL     1      18.231  -1.124  53.092  1.00  0.00    -0.064 Br
ENDBRANCH  19  20
ENDBRANCH  18  19
ENDBRANCH  15  17
ENDBRANCH   7  15
TORSDOF 5
ENDMDL
MODEL 5
REMARK VINA RESULT:      -6.5      4.715      6.939
REMARK  5 active torsions:
REMARK  status: ('A' for Active; 'I' for Inactive)
REMARK    1  A    between atoms: O1_2  and  C2_3 
REMARK    2  A    between atoms: C6_9  and  N3_10 
REMARK    3  A    between atoms: N3_10  and  C7_11 
REMARK    4  A    between atoms: C8_12  and  C9_13 
REMARK    5  A    between atoms: C9_13  and  C10_14 
ROOT
HETATM    1  C2  UNL     1      27.459   0.254  54.010  1.00  0.00     0.081 C 
HETATM    2  C3  UNL     1      26.865   1.445  53.703  1.00  0.00     0.059 C 
HETATM    3  C4  UNL     1      26.348   2.359  52.886  1.00  0.00     0.177 C 
HETATM    4  N1  UNL     1      25.296   2.890  53.668  1.00  0.00    -0.275 NA
HETATM    5  C5  UNL     1      24.117   3.089  52.945  1.00  0.00     0.229 C 
HETATM    6  N2  UNL     1      23.790   1.957  52.374  1.00  0.00    -0.225 NA
HETATM    7  C6  UNL     1      23.616   0.760  52.945  1.00  0.00     0.128 C 
HETATM    8  C11 UNL     1      23.981  -0.521  53.427  1.00  0.00     0.053 C 
HETATM    9  C12 UNL     1      24.965  -0.887  54.323  1.00  0.00     0.043 C 
HETATM   10  C13 UNL     1      26.229  -0.378  54.121  1.00  0.00     0.097 C 
HETATM   11  O2  UNL     1      26.555  -1.346  53.365  1.00  0.00    -0.353 OA
HETATM   12  C14 UNL     1      26.895  -2.361  52.574  1.00  0.00     0.210 C 
ENDROOT
BRANCH   1  13
HETATM   13  O1  UNL     1      28.631  -0.257  54.188  1.00  0.00    -0.357 OA
HETATM   14  C1  UNL     1      29.847  -0.299  53.592  1.00  0.00     0.209 C 
ENDBRANCH   1  13
BRANCH   7  15
HETATM   15  N3  UNL     1      22.199   1.058  53.126  1.00  0.00    -0.351 N 
HETATM   16  H7  UNL     1      22.109   1.909  53.761  1.00  0.00     0.166 HD
BRANCH  15  17
HETATM   17  C7  UNL     1      20.881   0.574  52.695  1.00  0.00     0.090 C 
HETATM   18  C8  UNL     1      20.121  -0.308  53.368  1.00  0.00     0.018 C 
BRANCH  18  19
HETATM   19  C9  UNL     1      19.079  -0.268  52.335  1.00  0.00     0.009 C 
BRANCH  19  20
HETATM   20  C10 UNL     1      18.419  -1.084  53.201  1.00  0.00     0.056 C 
HETATM   21 BR1  UNL     1      16.610  -1.075  52.561  1.00  0.00    -0.064 Br
ENDBRANCH  19  20
ENDBRANCH  18  19
ENDBRANCH  15  17
ENDBRANCH   7  15
TORSDOF 5
ENDMDL
MODEL 6
REMARK VINA RESULT:      -6.3      1.832      3.016
REMARK  5 active torsions:
REMARK  status: ('A' for Active; 'I' for Inactive)
REMARK    1  A    between atoms: O1_2  and  C2_3 
REMARK    2  A    between atoms: C6_9  and  N3_10 
REMARK    3  A    between atoms: N3_10  and  C7_11 
REMARK    4  A    between atoms: C8_12  and  C9_13 
REMARK    5  A    between atoms: C9_13  and  C10_14 
ROOT
HETATM    1  C2  UNL     1      23.045   0.582  53.243  1.00  0.00     0.081 C 
HETATM    2  C3  UNL     1      24.407   0.651  53.315  1.00  0.00     0.059 C 
HETATM    3  C4  UNL     1      25.650   0.396  52.911  1.00  0.00     0.177 C 
HETATM    4  N1  UNL     1      26.319   1.596  53.249  1.00  0.00    -0.275 NA
HETATM    5  C5  UNL     1      27.200   2.033  52.256  1.00  0.00     0.229 C 
HETATM    6  N2  UNL     1      26.535   2.134  51.133  1.00  0.00    -0.225 NA
HETATM    7  C6  UNL     1      25.414   2.822  50.890  1.00  0.00     0.128 C 
HETATM    8  C11 UNL     1      24.020   3.054  50.797  1.00  0.00     0.053 C 
HETATM    9  C12 UNL     1      23.027   2.901  51.744  1.00  0.00     0.043 C 
HETATM   10  C13 UNL     1      22.990   1.711  52.438  1.00  0.00     0.097 C 
HETATM   11  O2  UNL     1      22.244   1.165  51.566  1.00  0.00    -0.353 OA
HETATM   12  C14 UNL     1      21.463   0.595  50.652  1.00  0.00     0.210 C 
ENDROOT
BRANCH   1  13
HETATM   13  O1  UNL     1      22.060  -0.128  53.679  1.00  0.00    -0.357 OA
HETATM   14  C1  UNL     1      21.802  -1.379  54.131  1.00  0.00     0.209 C 
ENDBRANCH   1  13
BRANCH   7  15
HETATM   15  N3  UNL     1      26.215   3.977  50.501  1.00  0.00    -0.351 N 
HETATM   16  H7  UNL     1      27.160   3.916  50.987  1.00  0.00     0.166 HD
BRANCH  15  17
HETATM   17  C7  UNL     1      26.133   5.167  49.643  1.00  0.00     0.090 C 
HETATM   18  C8  UNL     1      27.045   5.522  48.720  1.00  0.00     0.018 C 
BRANCH  18  19
HETATM   19  C9  UNL     1      26.286   6.727  48.367  1.00  0.00     0.009 C 
BRANCH  19  20
HETATM   20  C10 UNL     1      27.441   7.358  48.715  1.00  0.00     0.056 C 
HETATM   21 BR1  UNL     1      26.861   8.825  49.806  1.00  0.00    -0.064 Br
ENDBRANCH  19  20
ENDBRANCH  18  19
ENDBRANCH  15  17
ENDBRANCH   7  15
TORSDOF 5
ENDMDL
MODEL 7
REMARK VINA RESULT:      -6.1      4.164      6.372
REMARK  5 active torsions:
REMARK  status: ('A' for Active; 'I' for Inactive)
REMARK    1  A    between atoms: O1_2  and  C2_3 
REMARK    2  A    between atoms: C6_9  and  N3_10 
REMARK    3  A    between atoms: N3_10  and  C7_11 
REMARK    4  A    between atoms: C8_12  and  C9_13 
REMARK    5  A    between atoms: C9_13  and  C10_14 
ROOT
HETATM    1  C2  UNL     1      21.696   5.591  51.177  1.00  0.00     0.081 C 
HETATM    2  C3  UNL     1      21.266   4.347  50.815  1.00  0.00     0.059 C 
HETATM    3  C4  UNL     1      21.258   3.243  50.071  1.00  0.00     0.177 C 
HETATM    4  N1  UNL     1      20.973   2.244  51.031  1.00  0.00    -0.275 NA
HETATM    5  C5  UNL     1      21.747   1.091  50.873  1.00  0.00     0.229 C 
HETATM    6  N2  UNL     1      23.009   1.441  50.878  1.00  0.00    -0.225 NA
HETATM    7  C6  UNL     1      23.671   2.145  51.801  1.00  0.00     0.128 C 
HETATM    8  C11 UNL     1      24.186   3.300  52.440  1.00  0.00     0.053 C 
HETATM    9  C12 UNL     1      23.537   4.437  52.880  1.00  0.00     0.043 C 
HETATM   10  C13 UNL     1      22.676   5.057  52.001  1.00  0.00     0.097 C 
HETATM   11  O2  UNL     1      23.606   5.774  51.515  1.00  0.00    -0.353 OA
HETATM   12  C14 UNL     1      24.580   6.524  51.006  1.00  0.00     0.210 C 
ENDROOT
BRANCH   1  13
HETATM   13  O1  UNL     1      21.426   6.836  50.972  1.00  0.00    -0.357 OA
HETATM   14  C1  UNL     1      20.792   7.627  50.073  1.00  0.00     0.209 C 
ENDBRANCH   1  13
BRANCH   7  15
HETATM   15  N3  UNL     1      24.029   0.906  52.482  1.00  0.00    -0.351 N 
HETATM   16  H7  UNL     1      23.135   0.426  52.807  1.00  0.00     0.166 HD
BRANCH  15  17
HETATM   17  C7  UNL     1      25.215   0.116  52.835  1.00  0.00     0.090 C 
HETATM   18  C8  UNL     1      26.366   0.091  52.140  1.00  0.00     0.018 C 
BRANCH  18  19
HETATM   19  C9  UNL     1      26.962  -0.875  53.070  1.00  0.00     0.009 C 
BRANCH  19  20
HETATM   20  C10 UNL     1      27.932   0.073  53.177  1.00  0.00     0.056 C 
HETATM   21 BR1  UNL     1      29.521  -0.928  53.566  1.00  0.00    -0.064 Br
ENDBRANCH  19  20
ENDBRANCH  18  19
ENDBRANCH  15  17
ENDBRANCH   7  15
TORSDOF 5
ENDMDL
MODEL 8
REMARK VINA RESULT:      -5.7      5.714      9.528
REMARK  5 active torsions:
REMARK  status: ('A' for Active; 'I' for Inactive)
REMARK    1  A    between atoms: O1_2  and  C2_3 
REMARK    2  A    between atoms: C6_9  and  N3_10 
REMARK    3  A    between atoms: N3_10  and  C7_11 
REMARK    4  A    between atoms: C8_12  and  C9_13 
REMARK    5  A    between atoms: C9_13  and  C10_14 
ROOT
HETATM    1  C2  UNL     1      33.142   7.681  48.444  1.00  0.00     0.081 C 
HETATM    2  C3  UNL     1      32.060   8.477  48.687  1.00  0.00     0.059 C 
HETATM    3  C4  UNL     1      31.007   9.217  48.347  1.00  0.00     0.177 C 
HETATM    4  N1  UNL     1      30.105   8.946  49.403  1.00  0.00    -0.275 NA
HETATM    5  C5  UNL     1      28.791   8.748  48.969  1.00  0.00     0.229 C 
HETATM    6  N2  UNL     1      28.797   7.802  48.064  1.00  0.00    -0.225 NA
HETATM    7  C6  UNL     1      29.291   6.563  48.162  1.00  0.00     0.128 C 
HETATM    8  C11 UNL     1      30.262   5.534  48.077  1.00  0.00     0.053 C 
HETATM    9  C12 UNL     1      31.522   5.453  48.633  1.00  0.00     0.043 C 
HETATM   10  C13 UNL     1      32.358   6.536  48.471  1.00  0.00     0.097 C 
HETATM   11  O2  UNL     1      32.813   6.088  47.373  1.00  0.00    -0.353 OA
HETATM   12  C14 UNL     1      33.288   5.618  46.222  1.00  0.00     0.210 C 
ENDROOT
BRANCH   1  13
HETATM   13  O1  UNL     1      34.417   7.763  48.262  1.00  0.00    -0.357 OA
HETATM   14  C1  UNL     1      35.342   8.620  47.764  1.00  0.00     0.209 C 
ENDBRANCH   1  13
BRANCH   7  15
HETATM   15  N3  UNL     1      27.992   6.088  48.627  1.00  0.00    -0.351 N 
HETATM   16  H7  UNL     1      27.352   6.928  48.764  1.00  0.00     0.166 HD
BRANCH  15  17
HETATM   17  C7  UNL     1      27.297   4.832  48.938  1.00  0.00     0.090 C 
HETATM   18  C8  UNL     1      26.083   4.738  49.510  1.00  0.00     0.018 C 
BRANCH  18  19
HETATM   19  C9  UNL     1      26.136   3.272  49.490  1.00  0.00     0.009 C 
BRANCH  19  20
HETATM   20  C10 UNL     1      24.785   3.385  49.610  1.00  0.00     0.056 C 
HETATM   21 BR1  UNL     1      24.415   2.702  51.363  1.00  0.00    -0.064 Br
ENDBRANCH  19  20
ENDBRANCH  18  19
ENDBRANCH  15  17
ENDBRANCH   7  15
TORSDOF 5
ENDMDL
MODEL 9
REMARK VINA RESULT:      -5.7      4.431      5.920
REMARK  5 active torsions:
REMARK  status: ('A' for Active; 'I' for Inactive)
REMARK    1  A    between atoms: O1_2  and  C2_3 
REMARK    2  A    between atoms: C6_9  and  N3_10 
REMARK    3  A    between atoms: N3_10  and  C7_11 
REMARK    4  A    between atoms: C8_12  and  C9_13 
REMARK    5  A    between atoms: C9_13  and  C10_14 
ROOT
HETATM    1  C2  UNL     1      25.268  -0.572  53.908  1.00  0.00     0.081 C 
HETATM    2  C3  UNL     1      24.115  -1.122  54.390  1.00  0.00     0.059 C 
HETATM    3  C4  UNL     1      23.068  -1.203  55.208  1.00  0.00     0.177 C 
HETATM    4  N1  UNL     1      22.060  -1.697  54.346  1.00  0.00    -0.275 NA
HETATM    5  C5  UNL     1      20.826  -1.064  54.521  1.00  0.00     0.229 C 
HETATM    6  N2  UNL     1      21.005   0.226  54.390  1.00  0.00    -0.225 NA
HETATM    7  C6  UNL     1      21.560   0.887  53.369  1.00  0.00     0.128 C 
HETATM    8  C11 UNL     1      22.598   1.485  52.611  1.00  0.00     0.053 C 
HETATM    9  C12 UNL     1      23.782   0.949  52.147  1.00  0.00     0.043 C 
HETATM   10  C13 UNL     1      24.561   0.256  53.047  1.00  0.00     0.097 C 
HETATM   11  O2  UNL     1      25.176   1.308  53.405  1.00  0.00    -0.353 OA
HETATM   12  C14 UNL     1      25.820   2.411  53.780  1.00  0.00     0.210 C 
ENDROOT
BRANCH   1  13
HETATM   13  O1  UNL     1      26.548  -0.662  54.046  1.00  0.00    -0.357 OA
HETATM   14  C1  UNL     1      27.659  -0.882  53.304  1.00  0.00     0.209 C 
ENDBRANCH   1  13
BRANCH   7  15
HETATM   15  N3  UNL     1      20.247   1.023  52.749  1.00  0.00    -0.351 N 
HETATM   16  H7  UNL     1      19.511   0.656  53.426  1.00  0.00     0.166 HD
BRANCH  15  17
HETATM   17  C7  UNL     1      19.630   1.520  51.513  1.00  0.00     0.090 C 
HETATM   18  C8  UNL     1      19.775   0.966  50.296  1.00  0.00     0.018 C 
BRANCH  18  19
HETATM   19  C9  UNL     1      18.933   1.996  49.676  1.00  0.00     0.009 C 
BRANCH  19  20
HETATM   20  C10 UNL     1      20.109   2.676  49.594  1.00  0.00     0.056 C 
HETATM   21 BR1  UNL     1      20.359   2.948  47.712  1.00  0.00    -0.064 Br
ENDBRANCH  19  20
ENDBRANCH  18  19
ENDBRANCH  15  17
ENDBRANCH   7  15
TORSDOF 5
ENDMDL
