MODEL 1
REMARK VINA RESULT:      -7.2      0.000      0.000
REMARK  10 active torsions:
REMARK  status: ('A' for Active; 'I' for Inactive)
REMARK    1  A    between atoms: N1_1  and  C1_2 
REMARK    2  A    between atoms: C1_2  and  C2_3 
REMARK    3  A    between atoms: C3_4  and  C16_26 
REMARK    4  A    between atoms: C5_6  and  C6_7 
REMARK    5  A    between atoms: C7_9  and  N3_10 
REMARK    6  A    between atoms: N5_14  and  N6_15 
REMARK    7  A    between atoms: N6_15  and  C10_16 
REMARK    8  A    between atoms: C11_17  and  C12_18 
REMARK    9  A    between atoms: C12_18  and  C13_20 
REMARK   10  A    between atoms: C14_21  and  C15_22 
ROOT
HETATM    1  N3  UNL     1      22.467   1.776  50.860  1.00  0.00    -0.158 NA
HETATM    2  C8  UNL     1      22.090   1.438  49.524  1.00  0.00     0.168 C 
HETATM    3  C9  UNL     1      20.665   1.002  49.706  1.00  0.00     0.131 C 
HETATM    4  N4  UNL     1      20.440   0.876  50.974  1.00  0.00    -0.155 NA
HETATM    5  N5  UNL     1      21.584   1.184  51.728  1.00  0.00    -0.128 N 
ENDROOT
BRANCH   1   6
HETATM    6  C7  UNL     1      22.813   3.090  50.992  1.00  0.00     0.234 C 
HETATM    7  N2  UNL     1      23.097   3.764  49.624  1.00  0.00    -0.271 NA
HETATM    8  C6  UNL     1      24.302   4.348  49.916  1.00  0.00     0.017 C 
HETATM    9  C18 UNL     1      25.377   3.267  49.797  1.00  0.00     0.082 C 
HETATM   10  C17 UNL     1      25.257   2.616  51.214  1.00  0.00    -0.014 C 
HETATM   11  C16 UNL     1      24.224   3.443  51.557  1.00  0.00    -0.039 C 
BRANCH   8  12
HETATM   12  C5  UNL     1      24.576   5.736  50.500  1.00  0.00     0.040 C 
HETATM   13  C2  UNL     1      25.682   6.355  49.601  1.00  0.00     0.031 C 
HETATM   14  C3  UNL     1      24.660   6.332  48.510  1.00  0.00     0.025 C 
HETATM   15  C4  UNL     1      23.745   6.741  49.686  1.00  0.00     0.020 C 
BRANCH  13  16
HETATM   16  C1  UNL     1      26.158   7.658  50.013  1.00  0.00     0.272 C 
BRANCH  16  17
HETATM   17  N1  UNL     1      27.572   7.851  49.615  1.00  0.00     0.078 N 
HETATM   18  H1  UNL     1      28.150   7.107  50.074  1.00  0.00     0.312 HD
HETATM   19  H2  UNL     1      27.935   8.767  49.946  1.00  0.00     0.312 HD
ENDBRANCH  16  17
ENDBRANCH  13  16
ENDBRANCH   8  12
ENDBRANCH   1   6
BRANCH   5  20
HETATM   20  N6  UNL     1      21.879   0.980  53.079  1.00  0.00    -0.278 N 
HETATM   21  H14 UNL     1      21.365   1.367  53.887  1.00  0.00     0.189 HD
BRANCH  20  22
HETATM   22  C10 UNL     1      23.031   0.130  53.221  1.00  0.00     0.114 C 
HETATM   23  C11 UNL     1      24.226   0.343  53.746  1.00  0.00     0.073 C 
BRANCH  23  24
HETATM   24  C12 UNL     1      25.342  -0.614  53.839  1.00  0.00     0.173 C 
HETATM   25  O1  UNL     1      25.414  -1.220  54.928  1.00  0.00    -0.288 OA
BRANCH  24  26
HETATM   26  C13 UNL     1      26.256  -0.798  52.722  1.00  0.00     0.059 C 
HETATM   27  C14 UNL     1      27.453  -0.257  52.624  1.00  0.00     0.092 C 
BRANCH  27  28
HETATM   28  C15 UNL     1      28.017   0.627  53.670  1.00  0.00     0.408 C 
HETATM   29  F1  UNL     1      27.194   1.733  53.783  1.00  0.00    -0.167 F 
HETATM   30  F2  UNL     1      28.190  -0.043  54.867  1.00  0.00    -0.167 F 
HETATM   31  F3  UNL     1      29.291   1.051  53.270  1.00  0.00    -0.167 F 
ENDBRANCH  27  28
ENDBRANCH  24  26
ENDBRANCH  23  24
ENDBRANCH  20  22
ENDBRANCH   5  20
TORSDOF 10
ENDMDL
MODEL 2
REMARK VINA RESULT:      -7.2      1.531      1.963
REMARK  10 active torsions:
REMARK  status: ('A' for Active; 'I' for Inactive)
REMARK    1  A    between atoms: N1_1  and  C1_2 
REMARK    2  A    between atoms: C1_2  and  C2_3 
REMARK    3  A    between atoms: C3_4  and  C16_26 
REMARK    4  A    between atoms: C5_6  and  C6_7 
REMARK    5  A    between atoms: C7_9  and  N3_10 
REMARK    6  A    between atoms: N5_14  and  N6_15 
REMARK    7  A    between atoms: N6_15  and  C10_16 
REMARK    8  A    between atoms: C11_17  and  C12_18 
REMARK    9  A    between atoms: C12_18  and  C13_20 
REMARK   10  A    between atoms: C14_21  and  C15_22 
ROOT
HETATM    1  N3  UNL     1      22.177   0.962  52.108  1.00  0.00    -0.158 NA
HETATM    2  C8  UNL     1      21.244   0.702  51.057  1.00  0.00     0.168 C 
HETATM    3  C9  UNL     1      20.136   0.006  51.793  1.00  0.00     0.131 C 
HETATM    4  N4  UNL     1      20.561  -0.287  52.979  1.00  0.00    -0.155 NA
HETATM    5  N5  UNL     1      21.886   0.138  53.166  1.00  0.00    -0.128 N 
ENDROOT
BRANCH   1   6
HETATM    6  C7  UNL     1      22.402   2.295  52.293  1.00  0.00     0.234 C 
HETATM    7  N2  UNL     1      21.908   3.148  51.095  1.00  0.00    -0.271 NA
HETATM    8  C6  UNL     1      23.033   3.903  50.887  1.00  0.00     0.017 C 
HETATM    9  C18 UNL     1      24.019   3.049  50.091  1.00  0.00     0.082 C 
HETATM   10  C17 UNL     1      24.677   2.243  51.259  1.00  0.00    -0.014 C 
HETATM   11  C16 UNL     1      23.863   2.833  52.185  1.00  0.00    -0.039 C 
BRANCH   8  12
HETATM   12  C5  UNL     1      23.409   5.250  51.511  1.00  0.00     0.040 C 
HETATM   13  C2  UNL     1      24.083   6.062  50.371  1.00  0.00     0.031 C 
HETATM   14  C3  UNL     1      22.745   6.039  49.707  1.00  0.00     0.025 C 
HETATM   15  C4  UNL     1      22.283   6.238  51.168  1.00  0.00     0.020 C 
BRANCH  13  16
HETATM   16  C1  UNL     1      24.593   7.361  50.754  1.00  0.00     0.272 C 
BRANCH  16  17
HETATM   17  N1  UNL     1      26.074   7.366  50.755  1.00  0.00     0.078 N 
HETATM   18  H1  UNL     1      26.402   8.348  50.923  1.00  0.00     0.312 HD
HETATM   19  H2  UNL     1      26.453   7.072  49.832  1.00  0.00     0.312 HD
ENDBRANCH  16  17
ENDBRANCH  13  16
ENDBRANCH   8  12
ENDBRANCH   1   6
BRANCH   5  20
HETATM   20  N6  UNL     1      22.812  -0.150  54.173  1.00  0.00    -0.278 N 
HETATM   21  H14 UNL     1      22.626  -0.183  55.188  1.00  0.00     0.189 HD
BRANCH  20  22
HETATM   22  C10 UNL     1      24.109  -0.406  53.608  1.00  0.00     0.114 C 
HETATM   23  C11 UNL     1      25.330  -0.253  54.093  1.00  0.00     0.073 C 
BRANCH  23  24
HETATM   24  C12 UNL     1      26.603  -0.553  53.415  1.00  0.00     0.173 C 
HETATM   25  O1  UNL     1      26.478  -1.009  52.260  1.00  0.00    -0.288 OA
BRANCH  24  26
HETATM   26  C13 UNL     1      27.873  -0.319  54.085  1.00  0.00     0.059 C 
HETATM   27  C14 UNL     1      28.537   0.819  54.079  1.00  0.00     0.092 C 
BRANCH  27  28
HETATM   28  C15 UNL     1      28.049   2.023  53.365  1.00  0.00     0.408 C 
HETATM   29  F1  UNL     1      29.019   3.003  53.472  1.00  0.00    -0.167 F 
HETATM   30  F2  UNL     1      27.709   1.739  52.056  1.00  0.00    -0.167 F 
HETATM   31  F3  UNL     1      26.878   2.476  53.987  1.00  0.00    -0.167 F 
ENDBRANCH  27  28
ENDBRANCH  24  26
ENDBRANCH  23  24
ENDBRANCH  20  22
ENDBRANCH   5  20
TORSDOF 10
ENDMDL
MODEL 3
REMARK VINA RESULT:      -6.7      3.626      6.226
REMARK  10 active torsions:
REMARK  status: ('A' for Active; 'I' for Inactive)
REMARK    1  A    between atoms: N1_1  and  C1_2 
REMARK    2  A    between atoms: C1_2  and  C2_3 
REMARK    3  A    between atoms: C3_4  and  C16_26 
REMARK    4  A    between atoms: C5_6  and  C6_7 
REMARK    5  A    between atoms: C7_9  and  N3_10 
REMARK    6  A    between atoms: N5_14  and  N6_15 
REMARK    7  A    between atoms: N6_15  and  C10_16 
REMARK    8  A    between atoms: C11_17  and  C12_18 
REMARK    9  A    between atoms: C12_18  and  C13_20 
REMARK   10  A    between atoms: C14_21  and  C15_22 
ROOT
HETATM    1  N3  UNL     1      22.146   1.427  51.534  1.00  0.00    -0.158 NA
HETATM    2  C8  UNL     1      21.419   1.344  52.761  1.00  0.00     0.168 C 
HETATM    3  C9  UNL     1      20.314   0.393  52.401  1.00  0.00     0.131 C 
HETATM    4  N4  UNL     1      20.319   0.235  51.117  1.00  0.00    -0.155 NA
HETATM    5  N5  UNL     1      21.337   0.992  50.515  1.00  0.00    -0.128 N 
ENDROOT
BRANCH   1   6
HETATM    6  C7  UNL     1      23.431   0.983  51.653  1.00  0.00     0.234 C 
HETATM    7  N2  UNL     1      23.826   0.713  53.129  1.00  0.00    -0.271 NA
HETATM    8  C6  UNL     1      25.011   1.401  53.166  1.00  0.00     0.017 C 
HETATM    9  C18 UNL     1      24.678   2.881  53.349  1.00  0.00     0.082 C 
HETATM   10  C17 UNL     1      24.401   3.278  51.862  1.00  0.00    -0.014 C 
HETATM   11  C16 UNL     1      24.599   1.995  51.435  1.00  0.00    -0.039 C 
BRANCH   8  12
HETATM   12  C5  UNL     1      26.420   0.896  52.842  1.00  0.00     0.040 C 
HETATM   13  C2  UNL     1      27.286   1.258  54.080  1.00  0.00     0.031 C 
HETATM   14  C3  UNL     1      26.436   0.284  54.828  1.00  0.00     0.025 C 
HETATM   15  C4  UNL     1      26.567  -0.487  53.495  1.00  0.00     0.020 C 
BRANCH  13  16
HETATM   16  C1  UNL     1      28.693   0.936  53.968  1.00  0.00     0.272 C 
BRANCH  16  17
HETATM   17  N1  UNL     1      29.530   2.056  54.457  1.00  0.00     0.078 N 
HETATM   18  H1  UNL     1      29.069   2.469  55.303  1.00  0.00     0.312 HD
HETATM   19  H2  UNL     1      29.598   2.814  53.747  1.00  0.00     0.312 HD
ENDBRANCH  16  17
ENDBRANCH  13  16
ENDBRANCH   8  12
ENDBRANCH   1   6
BRANCH   5  20
HETATM   20  N6  UNL     1      21.579   1.308  49.174  1.00  0.00    -0.278 N 
HETATM   21  H14 UNL     1      21.621   0.644  48.384  1.00  0.00     0.189 HD
BRANCH  20  22
HETATM   22  C10 UNL     1      21.772   2.724  49.016  1.00  0.00     0.114 C 
HETATM   23  C11 UNL     1      22.614   3.424  48.274  1.00  0.00     0.073 C 
BRANCH  23  24
HETATM   24  C12 UNL     1      22.722   4.890  48.190  1.00  0.00     0.173 C 
HETATM   25  O1  UNL     1      22.630   5.351  47.033  1.00  0.00    -0.288 OA
BRANCH  24  26
HETATM   26  C13 UNL     1      22.921   5.688  49.390  1.00  0.00     0.059 C 
HETATM   27  C14 UNL     1      24.073   6.187  49.789  1.00  0.00     0.092 C 
BRANCH  27  28
HETATM   28  C15 UNL     1      25.333   5.981  49.037  1.00  0.00     0.408 C 
HETATM   29  F1  UNL     1      25.563   4.619  48.955  1.00  0.00    -0.167 F 
HETATM   30  F2  UNL     1      25.299   6.599  47.801  1.00  0.00    -0.167 F 
HETATM   31  F3  UNL     1      26.387   6.575  49.744  1.00  0.00    -0.167 F 
ENDBRANCH  27  28
ENDBRANCH  24  26
ENDBRANCH  23  24
ENDBRANCH  20  22
ENDBRANCH   5  20
TORSDOF 10
ENDMDL
MODEL 4
REMARK VINA RESULT:      -6.7      2.356      5.716
REMARK  10 active torsions:
REMARK  status: ('A' for Active; 'I' for Inactive)
REMARK    1  A    between atoms: N1_1  and  C1_2 
REMARK    2  A    between atoms: C1_2  and  C2_3 
REMARK    3  A    between atoms: C3_4  and  C16_26 
REMARK    4  A    between atoms: C5_6  and  C6_7 
REMARK    5  A    between atoms: C7_9  and  N3_10 
REMARK    6  A    between atoms: N5_14  and  N6_15 
REMARK    7  A    between atoms: N6_15  and  C10_16 
REMARK    8  A    between atoms: C11_17  and  C12_18 
REMARK    9  A    between atoms: C12_18  and  C13_20 
REMARK   10  A    between atoms: C14_21  and  C15_22 
ROOT
HETATM    1  N3  UNL     1      23.428   3.555  51.715  1.00  0.00    -0.158 NA
HETATM    2  C8  UNL     1      22.895   4.735  52.318  1.00  0.00     0.168 C 
HETATM    3  C9  UNL     1      23.601   5.818  51.555  1.00  0.00     0.131 C 
HETATM    4  N4  UNL     1      24.549   5.272  50.863  1.00  0.00    -0.155 NA
HETATM    5  N5  UNL     1      24.589   3.883  51.061  1.00  0.00    -0.128 N 
ENDROOT
BRANCH   1   6
HETATM    6  C7  UNL     1      22.469   2.793  51.112  1.00  0.00     0.234 C 
HETATM    7  N2  UNL     1      21.058   3.046  51.705  1.00  0.00    -0.271 NA
HETATM    8  C6  UNL     1      20.678   1.747  51.922  1.00  0.00     0.017 C 
HETATM    9  C18 UNL     1      21.329   1.290  53.227  1.00  0.00     0.082 C 
HETATM   10  C17 UNL     1      22.737   0.873  52.690  1.00  0.00    -0.014 C 
HETATM   11  C16 UNL     1      22.419   1.264  51.420  1.00  0.00    -0.039 C 
BRANCH   8  12
HETATM   12  C5  UNL     1      19.954   0.790  50.971  1.00  0.00     0.040 C 
HETATM   13  C2  UNL     1      18.579   0.505  51.634  1.00  0.00     0.031 C 
HETATM   14  C3  UNL     1      18.285   1.951  51.400  1.00  0.00     0.025 C 
HETATM   15  C4  UNL     1      19.034   1.644  50.084  1.00  0.00     0.020 C 
BRANCH  13  16
HETATM   16  C1  UNL     1      17.740  -0.446  50.937  1.00  0.00     0.272 C 
BRANCH  16  17
HETATM   17  N1  UNL     1      16.384  -0.486  51.532  1.00  0.00     0.078 N 
HETATM   18  H1  UNL     1      16.114  -1.489  51.673  1.00  0.00     0.312 HD
HETATM   19  H2  UNL     1      15.679  -0.069  50.892  1.00  0.00     0.312 HD
ENDBRANCH  16  17
ENDBRANCH  13  16
ENDBRANCH   8  12
ENDBRANCH   1   6
BRANCH   5  20
HETATM   20  N6  UNL     1      25.552   2.930  50.713  1.00  0.00    -0.278 N 
HETATM   21  H14 UNL     1      25.904   2.731  49.762  1.00  0.00     0.189 HD
BRANCH  20  22
HETATM   22  C10 UNL     1      26.015   2.231  51.880  1.00  0.00     0.114 C 
HETATM   23  C11 UNL     1      27.224   2.068  52.391  1.00  0.00     0.073 C 
BRANCH  23  24
HETATM   24  C12 UNL     1      27.584   1.321  53.608  1.00  0.00     0.173 C 
HETATM   25  O1  UNL     1      26.944   1.653  54.627  1.00  0.00    -0.288 OA
BRANCH  24  26
HETATM   26  C13 UNL     1      28.612   0.292  53.570  1.00  0.00     0.059 C 
HETATM   27  C14 UNL     1      28.424  -0.956  53.192  1.00  0.00     0.092 C 
BRANCH  27  28
HETATM   28  C15 UNL     1      27.103  -1.465  52.752  1.00  0.00     0.408 C 
HETATM   29  F1  UNL     1      26.200  -1.247  53.777  1.00  0.00    -0.167 F 
HETATM   30  F2  UNL     1      26.710  -0.899  51.554  1.00  0.00    -0.167 F 
HETATM   31  F3  UNL     1      27.201  -2.844  52.522  1.00  0.00    -0.167 F 
ENDBRANCH  27  28
ENDBRANCH  24  26
ENDBRANCH  23  24
ENDBRANCH  20  22
ENDBRANCH   5  20
TORSDOF 10
ENDMDL
MODEL 5
REMARK VINA RESULT:      -6.7      2.714      6.320
REMARK  10 active torsions:
REMARK  status: ('A' for Active; 'I' for Inactive)
REMARK    1  A    between atoms: N1_1  and  C1_2 
REMARK    2  A    between atoms: C1_2  and  C2_3 
REMARK    3  A    between atoms: C3_4  and  C16_26 
REMARK    4  A    between atoms: C5_6  and  C6_7 
REMARK    5  A    between atoms: C7_9  and  N3_10 
REMARK    6  A    between atoms: N5_14  and  N6_15 
REMARK    7  A    between atoms: N6_15  and  C10_16 
REMARK    8  A    between atoms: C11_17  and  C12_18 
REMARK    9  A    between atoms: C12_18  and  C13_20 
REMARK   10  A    between atoms: C14_21  and  C15_22 
ROOT
HETATM    1  N3  UNL     1      22.045   2.795  51.755  1.00  0.00    -0.158 NA
HETATM    2  C8  UNL     1      21.378   4.028  52.027  1.00  0.00     0.168 C 
HETATM    3  C9  UNL     1      21.948   4.928  50.969  1.00  0.00     0.131 C 
HETATM    4  N4  UNL     1      22.951   4.322  50.420  1.00  0.00    -0.155 NA
HETATM    5  N5  UNL     1      23.157   3.056  50.994  1.00  0.00    -0.128 N 
ENDROOT
BRANCH   1   6
HETATM    6  C7  UNL     1      21.182   1.792  51.422  1.00  0.00     0.234 C 
HETATM    7  N2  UNL     1      19.785   1.978  52.071  1.00  0.00    -0.271 NA
HETATM    8  C6  UNL     1      19.622   0.725  52.600  1.00  0.00     0.017 C 
HETATM    9  C18 UNL     1      20.410   0.672  53.908  1.00  0.00     0.082 C 
HETATM   10  C17 UNL     1      21.833   0.339  53.349  1.00  0.00    -0.014 C 
HETATM   11  C16 UNL     1      21.385   0.382  52.059  1.00  0.00    -0.039 C 
BRANCH   8  12
HETATM   12  C5  UNL     1      19.000  -0.514  51.949  1.00  0.00     0.040 C 
HETATM   13  C2  UNL     1      17.724  -0.823  52.779  1.00  0.00     0.031 C 
HETATM   14  C3  UNL     1      17.201   0.477  52.261  1.00  0.00     0.025 C 
HETATM   15  C4  UNL     1      17.912  -0.020  50.983  1.00  0.00     0.020 C 
BRANCH  13  16
HETATM   16  C1  UNL     1      17.001  -2.013  52.385  1.00  0.00     0.272 C 
BRANCH  16  17
HETATM   17  N1  UNL     1      16.805  -2.917  53.541  1.00  0.00     0.078 N 
HETATM   18  H1  UNL     1      16.414  -3.824  53.190  1.00  0.00     0.312 HD
HETATM   19  H2  UNL     1      16.113  -2.526  54.212  1.00  0.00     0.312 HD
ENDBRANCH  16  17
ENDBRANCH  13  16
ENDBRANCH   8  12
ENDBRANCH   1   6
BRANCH   5  20
HETATM   20  N6  UNL     1      24.225   2.160  50.887  1.00  0.00    -0.278 N 
HETATM   21  H14 UNL     1      24.425   1.534  50.090  1.00  0.00     0.189 HD
BRANCH  20  22
HETATM   22  C10 UNL     1      25.046   2.211  52.066  1.00  0.00     0.114 C 
HETATM   23  C11 UNL     1      26.322   1.922  52.268  1.00  0.00     0.073 C 
BRANCH  23  24
HETATM   24  C12 UNL     1      27.067   2.015  53.534  1.00  0.00     0.173 C 
HETATM   25  O1  UNL     1      26.358   1.930  54.559  1.00  0.00    -0.288 OA
BRANCH  24  26
HETATM   26  C13 UNL     1      28.510   2.193  53.534  1.00  0.00     0.059 C 
HETATM   27  C14 UNL     1      29.394   1.236  53.732  1.00  0.00     0.092 C 
BRANCH  27  28
HETATM   28  C15 UNL     1      29.002  -0.170  53.987  1.00  0.00     0.408 C 
HETATM   29  F1  UNL     1      28.416  -0.228  55.239  1.00  0.00    -0.167 F 
HETATM   30  F2  UNL     1      28.189  -0.665  52.985  1.00  0.00    -0.167 F 
HETATM   31  F3  UNL     1      30.153  -0.970  53.990  1.00  0.00    -0.167 F 
ENDBRANCH  27  28
ENDBRANCH  24  26
ENDBRANCH  23  24
ENDBRANCH  20  22
ENDBRANCH   5  20
TORSDOF 10
ENDMDL
MODEL 6
REMARK VINA RESULT:      -6.7      1.668      1.985
REMARK  10 active torsions:
REMARK  status: ('A' for Active; 'I' for Inactive)
REMARK    1  A    between atoms: N1_1  and  C1_2 
REMARK    2  A    between atoms: C1_2  and  C2_3 
REMARK    3  A    between atoms: C3_4  and  C16_26 
REMARK    4  A    between atoms: C5_6  and  C6_7 
REMARK    5  A    between atoms: C7_9  and  N3_10 
REMARK    6  A    between atoms: N5_14  and  N6_15 
REMARK    7  A    between atoms: N6_15  and  C10_16 
REMARK    8  A    between atoms: C11_17  and  C12_18 
REMARK    9  A    between atoms: C12_18  and  C13_20 
REMARK   10  A    between atoms: C14_21  and  C15_22 
ROOT
HETATM    1  N3  UNL     1      21.945   2.751  51.227  1.00  0.00    -0.158 NA
HETATM    2  C8  UNL     1      20.613   3.255  51.121  1.00  0.00     0.168 C 
HETATM    3  C9  UNL     1      19.955   2.644  52.325  1.00  0.00     0.131 C 
HETATM    4  N4  UNL     1      20.754   1.749  52.811  1.00  0.00    -0.155 NA
HETATM    5  N5  UNL     1      21.937   1.661  52.060  1.00  0.00    -0.128 N 
ENDROOT
BRANCH   1   6
HETATM    6  C7  UNL     1      22.872   3.742  51.371  1.00  0.00     0.234 C 
HETATM    7  N2  UNL     1      22.393   5.089  50.769  1.00  0.00    -0.271 NA
HETATM    8  C6  UNL     1      23.498   5.398  50.020  1.00  0.00     0.017 C 
HETATM    9  C18 UNL     1      23.413   4.594  48.723  1.00  0.00     0.082 C 
HETATM   10  C17 UNL     1      24.021   3.238  49.210  1.00  0.00    -0.014 C 
HETATM   11  C16 UNL     1      24.157   3.705  50.487  1.00  0.00    -0.039 C 
BRANCH   8  12
HETATM   12  C5  UNL     1      24.744   6.186  50.433  1.00  0.00     0.040 C 
HETATM   13  C2  UNL     1      25.063   7.118  49.232  1.00  0.00     0.031 C 
HETATM   14  C3  UNL     1      23.769   7.794  49.549  1.00  0.00     0.025 C 
HETATM   15  C4  UNL     1      24.262   7.535  50.990  1.00  0.00     0.020 C 
BRANCH  13  16
HETATM   16  C1  UNL     1      26.261   7.918  49.369  1.00  0.00     0.272 C 
BRANCH  16  17
HETATM   17  N1  UNL     1      27.472   7.068  49.305  1.00  0.00     0.078 N 
HETATM   18  H1  UNL     1      27.176   6.084  49.099  1.00  0.00     0.312 HD
HETATM   19  H2  UNL     1      27.970   7.051  50.218  1.00  0.00     0.312 HD
ENDBRANCH  16  17
ENDBRANCH  13  16
ENDBRANCH   8  12
ENDBRANCH   1   6
BRANCH   5  20
HETATM   20  N6  UNL     1      22.963   0.711  52.068  1.00  0.00    -0.278 N 
HETATM   21  H14 UNL     1      23.018  -0.140  51.485  1.00  0.00     0.189 HD
BRANCH  20  22
HETATM   22  C10 UNL     1      23.977   1.072  53.021  1.00  0.00     0.114 C 
HETATM   23  C11 UNL     1      25.247   0.717  53.138  1.00  0.00     0.073 C 
BRANCH  23  24
HETATM   24  C12 UNL     1      26.203   1.156  54.168  1.00  0.00     0.173 C 
HETATM   25  O1  UNL     1      26.226   2.389  54.360  1.00  0.00    -0.288 OA
BRANCH  24  26
HETATM   26  C13 UNL     1      27.031   0.188  54.871  1.00  0.00     0.059 C 
HETATM   27  C14 UNL     1      28.329   0.034  54.704  1.00  0.00     0.092 C 
BRANCH  27  28
HETATM   28  C15 UNL     1      29.112   0.853  53.749  1.00  0.00     0.408 C 
HETATM   29  F1  UNL     1      30.346   0.251  53.585  1.00  0.00    -0.167 F 
HETATM   30  F2  UNL     1      28.437   1.037  52.558  1.00  0.00    -0.167 F 
HETATM   31  F3  UNL     1      29.302   2.130  54.295  1.00  0.00    -0.167 F 
ENDBRANCH  27  28
ENDBRANCH  24  26
ENDBRANCH  23  24
ENDBRANCH  20  22
ENDBRANCH   5  20
TORSDOF 10
ENDMDL
MODEL 7
REMARK VINA RESULT:      -6.5      4.001      7.262
REMARK  10 active torsions:
REMARK  status: ('A' for Active; 'I' for Inactive)
REMARK    1  A    between atoms: N1_1  and  C1_2 
REMARK    2  A    between atoms: C1_2  and  C2_3 
REMARK    3  A    between atoms: C3_4  and  C16_26 
REMARK    4  A    between atoms: C5_6  and  C6_7 
REMARK    5  A    between atoms: C7_9  and  N3_10 
REMARK    6  A    between atoms: N5_14  and  N6_15 
REMARK    7  A    between atoms: N6_15  and  C10_16 
REMARK    8  A    between atoms: C11_17  and  C12_18 
REMARK    9  A    between atoms: C12_18  and  C13_20 
REMARK   10  A    between atoms: C14_21  and  C15_22 
ROOT
HETATM    1  N3  UNL     1      24.119   4.066  51.530  1.00  0.00    -0.158 NA
HETATM    2  C8  UNL     1      23.485   4.572  52.706  1.00  0.00     0.168 C 
HETATM    3  C9  UNL     1      22.212   5.140  52.151  1.00  0.00     0.131 C 
HETATM    4  N4  UNL     1      22.309   5.166  50.861  1.00  0.00    -0.155 NA
HETATM    5  N5  UNL     1      23.549   4.663  50.434  1.00  0.00    -0.128 N 
ENDROOT
BRANCH   1   6
HETATM    6  C7  UNL     1      24.313   2.716  51.577  1.00  0.00     0.234 C 
HETATM    7  N2  UNL     1      24.767   2.235  52.981  1.00  0.00    -0.271 NA
HETATM    8  C6  UNL     1      25.844   1.472  52.612  1.00  0.00     0.017 C 
HETATM    9  C18 UNL     1      27.018   2.421  52.372  1.00  0.00     0.082 C 
HETATM   10  C17 UNL     1      26.715   2.851  50.899  1.00  0.00    -0.014 C 
HETATM   11  C16 UNL     1      25.566   2.112  50.870  1.00  0.00    -0.039 C 
BRANCH   8  12
HETATM   12  C5  UNL     1      25.882  -0.014  52.243  1.00  0.00     0.040 C 
HETATM   13  C2  UNL     1      27.127  -0.591  52.971  1.00  0.00     0.031 C 
HETATM   14  C3  UNL     1      26.396  -0.285  54.238  1.00  0.00     0.025 C 
HETATM   15  C4  UNL     1      25.205  -0.782  53.389  1.00  0.00     0.020 C 
BRANCH  13  16
HETATM   16  C1  UNL     1      27.409  -1.985  52.708  1.00  0.00     0.272 C 
BRANCH  16  17
HETATM   17  N1  UNL     1      28.681  -2.395  53.346  1.00  0.00     0.078 N 
HETATM   18  H1  UNL     1      29.263  -2.895  52.632  1.00  0.00     0.312 HD
HETATM   19  H2  UNL     1      28.514  -3.062  54.125  1.00  0.00     0.312 HD
ENDBRANCH  16  17
ENDBRANCH  13  16
ENDBRANCH   8  12
ENDBRANCH   1   6
BRANCH   5  20
HETATM   20  N6  UNL     1      24.178   4.702  49.186  1.00  0.00    -0.278 N 
HETATM   21  H14 UNL     1      24.081   4.008  48.427  1.00  0.00     0.189 HD
BRANCH  20  22
HETATM   22  C10 UNL     1      25.009   5.869  49.075  1.00  0.00     0.114 C 
HETATM   23  C11 UNL     1      26.234   6.041  48.604  1.00  0.00     0.073 C 
BRANCH  23  24
HETATM   24  C12 UNL     1      26.995   7.300  48.540  1.00  0.00     0.173 C 
HETATM   25  O1  UNL     1      27.076   7.912  49.625  1.00  0.00    -0.288 OA
BRANCH  24  26
HETATM   26  C13 UNL     1      27.583   7.748  47.286  1.00  0.00     0.059 C 
HETATM   27  C14 UNL     1      28.801   7.462  46.873  1.00  0.00     0.092 C 
BRANCH  27  28
HETATM   28  C15 UNL     1      29.736   6.629  47.665  1.00  0.00     0.408 C 
HETATM   29  F1  UNL     1      30.887   6.454  46.917  1.00  0.00    -0.167 F 
HETATM   30  F2  UNL     1      29.978   7.175  48.911  1.00  0.00    -0.167 F 
HETATM   31  F3  UNL     1      29.149   5.376  47.891  1.00  0.00    -0.167 F 
ENDBRANCH  27  28
ENDBRANCH  24  26
ENDBRANCH  23  24
ENDBRANCH  20  22
ENDBRANCH   5  20
TORSDOF 10
ENDMDL
MODEL 8
REMARK VINA RESULT:      -6.4      1.930      2.389
REMARK  10 active torsions:
REMARK  status: ('A' for Active; 'I' for Inactive)
REMARK    1  A    between atoms: N1_1  and  C1_2 
REMARK    2  A    between atoms: C1_2  and  C2_3 
REMARK    3  A    between atoms: C3_4  and  C16_26 
REMARK    4  A    between atoms: C5_6  and  C6_7 
REMARK    5  A    between atoms: C7_9  and  N3_10 
REMARK    6  A    between atoms: N5_14  and  N6_15 
REMARK    7  A    between atoms: N6_15  and  C10_16 
REMARK    8  A    between atoms: C11_17  and  C12_18 
REMARK    9  A    between atoms: C12_18  and  C13_20 
REMARK   10  A    between atoms: C14_21  and  C15_22 
ROOT
HETATM    1  N3  UNL     1      22.907   1.652  51.444  1.00  0.00    -0.158 NA
HETATM    2  C8  UNL     1      22.025   1.231  50.402  1.00  0.00     0.168 C 
HETATM    3  C9  UNL     1      21.081   0.328  51.143  1.00  0.00     0.131 C 
HETATM    4  N4  UNL     1      21.572   0.109  52.320  1.00  0.00    -0.155 NA
HETATM    5  N5  UNL     1      22.795   0.777  52.494  1.00  0.00    -0.128 N 
ENDROOT
BRANCH   1   6
HETATM    6  C7  UNL     1      22.877   3.002  51.644  1.00  0.00     0.234 C 
HETATM    7  N2  UNL     1      21.894   3.718  50.680  1.00  0.00    -0.271 NA
HETATM    8  C6  UNL     1      22.722   4.710  50.223  1.00  0.00     0.017 C 
HETATM    9  C18 UNL     1      23.610   4.103  49.137  1.00  0.00     0.082 C 
HETATM   10  C17 UNL     1      24.728   3.470  50.030  1.00  0.00    -0.014 C 
HETATM   11  C16 UNL     1      24.095   3.859  51.177  1.00  0.00    -0.039 C 
BRANCH   8  12
HETATM   12  C5  UNL     1      22.953   6.108  50.804  1.00  0.00     0.040 C 
HETATM   13  C2  UNL     1      23.174   7.036  49.579  1.00  0.00     0.031 C 
HETATM   14  C3  UNL     1      21.753   6.737  49.228  1.00  0.00     0.025 C 
HETATM   15  C4  UNL     1      21.604   6.843  50.762  1.00  0.00     0.020 C 
BRANCH  13  16
HETATM   16  C1  UNL     1      23.486   8.414  49.893  1.00  0.00     0.272 C 
BRANCH  16  17
HETATM   17  N1  UNL     1      24.789   8.513  50.592  1.00  0.00     0.078 N 
HETATM   18  H1  UNL     1      24.796   7.819  51.378  1.00  0.00     0.312 HD
HETATM   19  H2  UNL     1      24.920   9.454  51.014  1.00  0.00     0.312 HD
ENDBRANCH  16  17
ENDBRANCH  13  16
ENDBRANCH   8  12
ENDBRANCH   1   6
BRANCH   5  20
HETATM   20  N6  UNL     1      23.775   0.661  53.485  1.00  0.00    -0.278 N 
HETATM   21  H14 UNL     1      23.627   0.364  54.464  1.00  0.00     0.189 HD
BRANCH  20  22
HETATM   22  C10 UNL     1      25.066   1.017  52.963  1.00  0.00     0.114 C 
HETATM   23  C11 UNL     1      26.028   1.791  53.437  1.00  0.00     0.073 C 
BRANCH  23  24
HETATM   24  C12 UNL     1      27.326   2.086  52.807  1.00  0.00     0.173 C 
HETATM   25  O1  UNL     1      27.298   2.131  51.560  1.00  0.00    -0.288 OA
BRANCH  24  26
HETATM   26  C13 UNL     1      28.514   2.297  53.620  1.00  0.00     0.059 C 
HETATM   27  C14 UNL     1      29.218   1.345  54.199  1.00  0.00     0.092 C 
BRANCH  27  28
HETATM   28  C15 UNL     1      28.866  -0.090  54.083  1.00  0.00     0.408 C 
HETATM   29  F1  UNL     1      30.002  -0.830  54.353  1.00  0.00    -0.167 F 
HETATM   30  F2  UNL     1      27.798  -0.422  54.895  1.00  0.00    -0.167 F 
HETATM   31  F3  UNL     1      28.457  -0.353  52.768  1.00  0.00    -0.167 F 
ENDBRANCH  27  28
ENDBRANCH  24  26
ENDBRANCH  23  24
ENDBRANCH  20  22
ENDBRANCH   5  20
TORSDOF 10
ENDMDL
MODEL 9
REMARK VINA RESULT:      -6.4      2.194      5.086
REMARK  10 active torsions:
REMARK  status: ('A' for Active; 'I' for Inactive)
REMARK    1  A    between atoms: N1_1  and  C1_2 
REMARK    2  A    between atoms: C1_2  and  C2_3 
REMARK    3  A    between atoms: C3_4  and  C16_26 
REMARK    4  A    between atoms: C5_6  and  C6_7 
REMARK    5  A    between atoms: C7_9  and  N3_10 
REMARK    6  A    between atoms: N5_14  and  N6_15 
REMARK    7  A    between atoms: N6_15  and  C10_16 
REMARK    8  A    between atoms: C11_17  and  C12_18 
REMARK    9  A    between atoms: C12_18  and  C13_20 
REMARK   10  A    between atoms: C14_21  and  C15_22 
ROOT
HETATM    1  N3  UNL     1      24.402   4.547  50.567  1.00  0.00    -0.158 NA
HETATM    2  C8  UNL     1      24.168   5.839  51.129  1.00  0.00     0.168 C 
HETATM    3  C9  UNL     1      25.189   6.676  50.413  1.00  0.00     0.131 C 
HETATM    4  N4  UNL     1      25.998   5.881  49.790  1.00  0.00    -0.155 NA
HETATM    5  N5  UNL     1      25.649   4.537  49.994  1.00  0.00    -0.128 N 
ENDROOT
BRANCH   1   6
HETATM    6  C7  UNL     1      23.315   4.059  49.901  1.00  0.00     0.234 C 
HETATM    7  N2  UNL     1      22.021   4.848  50.229  1.00  0.00    -0.271 NA
HETATM    8  C6  UNL     1      21.192   3.796  50.518  1.00  0.00     0.017 C 
HETATM    9  C18 UNL     1      21.489   3.357  51.952  1.00  0.00     0.082 C 
HETATM   10  C17 UNL     1      22.718   2.424  51.695  1.00  0.00    -0.014 C 
HETATM   11  C16 UNL     1      22.704   2.697  50.356  1.00  0.00    -0.039 C 
BRANCH   8  12
HETATM   12  C5  UNL     1      20.297   2.995  49.569  1.00  0.00     0.040 C 
HETATM   13  C2  UNL     1      18.899   2.960  50.245  1.00  0.00     0.031 C 
HETATM   14  C3  UNL     1      18.872   4.438  50.023  1.00  0.00     0.025 C 
HETATM   15  C4  UNL     1      19.539   4.009  48.697  1.00  0.00     0.020 C 
BRANCH  13  16
HETATM   16  C1  UNL     1      17.893   2.184  49.552  1.00  0.00     0.272 C 
BRANCH  16  17
HETATM   17  N1  UNL     1      18.216   0.739  49.602  1.00  0.00     0.078 N 
HETATM   18  H1  UNL     1      17.318   0.199  49.598  1.00  0.00     0.312 HD
HETATM   19  H2  UNL     1      18.715   0.495  50.481  1.00  0.00     0.312 HD
ENDBRANCH  16  17
ENDBRANCH  13  16
ENDBRANCH   8  12
ENDBRANCH   1   6
BRANCH   5  20
HETATM   20  N6  UNL     1      26.340   3.354  49.715  1.00  0.00    -0.278 N 
HETATM   21  H14 UNL     1      26.820   3.115  48.832  1.00  0.00     0.189 HD
BRANCH  20  22
HETATM   22  C10 UNL     1      26.305   2.470  50.849  1.00  0.00     0.114 C 
HETATM   23  C11 UNL     1      27.002   2.446  51.973  1.00  0.00     0.073 C 
BRANCH  23  24
HETATM   24  C12 UNL     1      26.878   1.480  53.078  1.00  0.00     0.173 C 
HETATM   25  O1  UNL     1      26.756   1.999  54.207  1.00  0.00    -0.288 OA
BRANCH  24  26
HETATM   26  C13 UNL     1      26.904   0.049  52.818  1.00  0.00     0.059 C 
HETATM   27  C14 UNL     1      27.874  -0.770  53.170  1.00  0.00     0.092 C 
BRANCH  27  28
HETATM   28  C15 UNL     1      29.085  -0.308  53.889  1.00  0.00     0.408 C 
HETATM   29  F1  UNL     1      29.623   0.751  53.181  1.00  0.00    -0.167 F 
HETATM   30  F2  UNL     1      28.809   0.006  55.206  1.00  0.00    -0.167 F 
HETATM   31  F3  UNL     1      30.020  -1.352  53.921  1.00  0.00    -0.167 F 
ENDBRANCH  27  28
ENDBRANCH  24  26
ENDBRANCH  23  24
ENDBRANCH  20  22
ENDBRANCH   5  20
TORSDOF 10
ENDMDL
