MODEL 1
REMARK VINA RESULT:      -7.7      0.000      0.000
REMARK  5 active torsions:
REMARK  status: ('A' for Active; 'I' for Inactive)
REMARK    1  A    between atoms: C1_2  and  C2_3 
REMARK       I    between atoms: C1_2  and  N1_11 
REMARK    2  A    between atoms: C2_3  and  C3_4 
REMARK    3  A    between atoms: N1_11  and  S1_12 
REMARK    4  A    between atoms: S1_12  and  N2_15 
REMARK    5  A    between atoms: N2_15  and  C9_16 
ROOT
HETATM    1  O1  UNL     1      24.007   2.791  53.201  1.00  0.00    -0.272 OA
HETATM    2  C1  UNL     1      24.007   1.635  52.658  1.00  0.00     0.236 C 
HETATM    3  N1  UNL     1      23.842   1.659  51.245  1.00  0.00    -0.237 N 
HETATM    4  H7  UNL     1      23.837   0.733  50.760  1.00  0.00     0.183 HD
ENDROOT
BRANCH   3   5
HETATM    5  S1  UNL     1      23.669   3.205  50.479  1.00  0.00     0.326 S 
HETATM    6  O2  UNL     1      23.702   2.973  49.001  1.00  0.00    -0.182 OA
HETATM    7  O3  UNL     1      22.312   3.747  50.828  1.00  0.00    -0.182 OA
BRANCH   5   8
HETATM    8  N2  UNL     1      24.851   4.322  51.022  1.00  0.00    -0.268 N 
HETATM    9  H8  UNL     1      25.003   4.650  52.001  1.00  0.00     0.180 HD
BRANCH   8  10
HETATM   10  C9  UNL     1      25.755   4.899  50.096  1.00  0.00     0.043 A 
HETATM   11  C10 UNL     1      25.666   6.217  49.701  1.00  0.00     0.030 A 
HETATM   12  C11 UNL     1      26.525   6.817  48.803  1.00  0.00     0.002 A 
HETATM   13  C12 UNL     1      27.544   6.069  48.256  1.00  0.00     0.000 A 
HETATM   14  C13 UNL     1      27.679   4.731  48.622  1.00  0.00     0.002 A 
HETATM   15  C14 UNL     1      26.795   4.189  49.519  1.00  0.00     0.030 A 
ENDBRANCH   8  10
ENDBRANCH   5   8
ENDBRANCH   3   5
BRANCH   2  16
HETATM   16  C2  UNL     1      24.168   0.386  53.447  1.00  0.00     0.142 C 
BRANCH  16  17
HETATM   17  C3  UNL     1      25.601   0.074  53.551  1.00  0.00    -0.049 A 
HETATM   18  C4  UNL     1      26.125  -0.801  52.607  1.00  0.00     0.009 A 
HETATM   19  C5  UNL     1      27.479  -1.144  52.644  1.00  0.00     0.024 A 
HETATM   20  C6  UNL     1      28.281  -0.593  53.639  1.00  0.00     0.034 A 
HETATM   21 CL1  UNL     1      29.998  -0.953  53.783  1.00  0.00    -0.084 Cl
HETATM   22  C7  UNL     1      27.753   0.280  54.580  1.00  0.00     0.024 A 
HETATM   23  C8  UNL     1      26.414   0.613  54.535  1.00  0.00     0.009 A 
ENDBRANCH  16  17
ENDBRANCH   2  16
TORSDOF 5
ENDMDL
MODEL 2
REMARK VINA RESULT:      -7.7      1.503      1.979
REMARK  5 active torsions:
REMARK  status: ('A' for Active; 'I' for Inactive)
REMARK    1  A    between atoms: C1_2  and  C2_3 
REMARK       I    between atoms: C1_2  and  N1_11 
REMARK    2  A    between atoms: C2_3  and  C3_4 
REMARK    3  A    between atoms: N1_11  and  S1_12 
REMARK    4  A    between atoms: S1_12  and  N2_15 
REMARK    5  A    between atoms: N2_15  and  C9_16 
ROOT
HETATM    1  O1  UNL     1      22.569   1.081  51.365  1.00  0.00    -0.272 OA
HETATM    2  C1  UNL     1      23.234   1.141  52.454  1.00  0.00     0.236 C 
HETATM    3  N1  UNL     1      23.438   2.464  52.936  1.00  0.00    -0.237 N 
HETATM    4  H7  UNL     1      23.978   2.559  53.826  1.00  0.00     0.183 HD
ENDROOT
BRANCH   3   5
HETATM    5  S1  UNL     1      22.776   3.772  52.009  1.00  0.00     0.326 S 
HETATM    6  O2  UNL     1      21.306   3.811  52.285  1.00  0.00    -0.182 OA
HETATM    7  O3  UNL     1      23.373   5.052  52.519  1.00  0.00    -0.182 OA
BRANCH   5   8
HETATM    8  N2  UNL     1      23.155   3.627  50.342  1.00  0.00    -0.268 N 
HETATM    9  H8  UNL     1      22.529   3.276  49.584  1.00  0.00     0.180 HD
BRANCH   8  10
HETATM   10  C9  UNL     1      24.437   4.008  49.874  1.00  0.00     0.043 A 
HETATM   11  C10 UNL     1      24.678   5.238  49.300  1.00  0.00     0.030 A 
HETATM   12  C11 UNL     1      25.910   5.647  48.833  1.00  0.00     0.002 A 
HETATM   13  C12 UNL     1      26.980   4.788  48.939  1.00  0.00     0.000 A 
HETATM   14  C13 UNL     1      26.792   3.531  49.512  1.00  0.00     0.002 A 
HETATM   15  C14 UNL     1      25.544   3.180  49.959  1.00  0.00     0.030 A 
ENDBRANCH   8  10
ENDBRANCH   5   8
ENDBRANCH   3   5
BRANCH   2  16
HETATM   16  C2  UNL     1      23.742  -0.073  53.143  1.00  0.00     0.142 C 
BRANCH  16  17
HETATM   17  C3  UNL     1      25.206   0.019  53.244  1.00  0.00    -0.049 A 
HETATM   18  C4  UNL     1      25.756  -0.072  54.517  1.00  0.00     0.009 A 
HETATM   19  C5  UNL     1      27.141   0.007  54.690  1.00  0.00     0.024 A 
HETATM   20  C6  UNL     1      27.946   0.176  53.568  1.00  0.00     0.034 A 
HETATM   21 CL1  UNL     1      29.699   0.289  53.665  1.00  0.00    -0.084 Cl
HETATM   22  C7  UNL     1      27.392   0.267  52.298  1.00  0.00     0.024 A 
HETATM   23  C8  UNL     1      26.023   0.187  52.138  1.00  0.00     0.009 A 
ENDBRANCH  16  17
ENDBRANCH   2  16
TORSDOF 5
ENDMDL
MODEL 3
REMARK VINA RESULT:      -7.3      3.492      7.405
REMARK  5 active torsions:
REMARK  status: ('A' for Active; 'I' for Inactive)
REMARK    1  A    between atoms: C1_2  and  C2_3 
REMARK       I    between atoms: C1_2  and  N1_11 
REMARK    2  A    between atoms: C2_3  and  C3_4 
REMARK    3  A    between atoms: N1_11  and  S1_12 
REMARK    4  A    between atoms: S1_12  and  N2_15 
REMARK    5  A    between atoms: N2_15  and  C9_16 
ROOT
HETATM    1  O1  UNL     1      24.724   2.476  50.541  1.00  0.00    -0.272 OA
HETATM    2  C1  UNL     1      25.936   2.880  50.559  1.00  0.00     0.236 C 
HETATM    3  N1  UNL     1      26.566   2.764  51.830  1.00  0.00    -0.237 N 
HETATM    4  H7  UNL     1      27.559   3.084  51.889  1.00  0.00     0.183 HD
ENDROOT
BRANCH   3   5
HETATM    5  S1  UNL     1      25.632   2.111  53.137  1.00  0.00     0.326 S 
HETATM    6  O2  UNL     1      26.537   2.022  54.326  1.00  0.00    -0.182 OA
HETATM    7  O3  UNL     1      24.541   3.089  53.463  1.00  0.00    -0.182 OA
BRANCH   5   8
HETATM    8  N2  UNL     1      24.907   0.615  52.717  1.00  0.00    -0.268 N 
HETATM    9  H8  UNL     1      25.236  -0.062  51.994  1.00  0.00     0.180 HD
BRANCH   8  10
HETATM   10  C9  UNL     1      23.734   0.187  53.387  1.00  0.00     0.043 A 
HETATM   11  C10 UNL     1      23.761  -0.749  54.398  1.00  0.00     0.030 A 
HETATM   12  C11 UNL     1      22.643  -1.192  55.075  1.00  0.00     0.002 A 
HETATM   13  C12 UNL     1      21.412  -0.677  54.734  1.00  0.00     0.000 A 
HETATM   14  C13 UNL     1      21.328   0.273  53.717  1.00  0.00     0.002 A 
HETATM   15  C14 UNL     1      22.474   0.674  53.081  1.00  0.00     0.030 A 
ENDBRANCH   8  10
ENDBRANCH   5   8
ENDBRANCH   3   5
BRANCH   2  16
HETATM   16  C2  UNL     1      26.612   3.420  49.351  1.00  0.00     0.142 C 
BRANCH  16  17
HETATM   17  C3  UNL     1      26.492   4.886  49.358  1.00  0.00    -0.049 A 
HETATM   18  C4  UNL     1      27.417   5.596  48.603  1.00  0.00     0.009 A 
HETATM   19  C5  UNL     1      27.364   6.992  48.562  1.00  0.00     0.024 A 
HETATM   20  C6  UNL     1      26.374   7.646  49.289  1.00  0.00     0.034 A 
HETATM   21 CL1  UNL     1      26.213   9.398  49.312  1.00  0.00    -0.084 Cl
HETATM   22  C7  UNL     1      25.453   6.932  50.043  1.00  0.00     0.024 A 
HETATM   23  C8  UNL     1      25.513   5.552  50.077  1.00  0.00     0.009 A 
ENDBRANCH  16  17
ENDBRANCH   2  16
TORSDOF 5
ENDMDL
MODEL 4
REMARK VINA RESULT:      -7.3      2.699      5.702
REMARK  5 active torsions:
REMARK  status: ('A' for Active; 'I' for Inactive)
REMARK    1  A    between atoms: C1_2  and  C2_3 
REMARK       I    between atoms: C1_2  and  N1_11 
REMARK    2  A    between atoms: C2_3  and  C3_4 
REMARK    3  A    between atoms: N1_11  and  S1_12 
REMARK    4  A    between atoms: S1_12  and  N2_15 
REMARK    5  A    between atoms: N2_15  and  C9_16 
ROOT
HETATM    1  O1  UNL     1      22.997   1.952  50.053  1.00  0.00    -0.272 OA
HETATM    2  C1  UNL     1      23.320   2.845  50.908  1.00  0.00     0.236 C 
HETATM    3  N1  UNL     1      22.253   3.239  51.764  1.00  0.00    -0.237 N 
HETATM    4  H7  UNL     1      22.474   3.969  52.479  1.00  0.00     0.183 HD
ENDROOT
BRANCH   3   5
HETATM    5  S1  UNL     1      20.712   2.477  51.536  1.00  0.00     0.326 S 
HETATM    6  O2  UNL     1      19.808   2.975  52.620  1.00  0.00    -0.182 OA
HETATM    7  O3  UNL     1      20.153   2.942  50.222  1.00  0.00    -0.182 OA
BRANCH   5   8
HETATM    8  N2  UNL     1      20.847   0.768  51.490  1.00  0.00    -0.268 N 
HETATM    9  H8  UNL     1      20.570   0.136  50.707  1.00  0.00     0.180 HD
BRANCH   8  10
HETATM   10  C9  UNL     1      21.388   0.073  52.601  1.00  0.00     0.043 A 
HETATM   11  C10 UNL     1      20.595  -0.591  53.513  1.00  0.00     0.030 A 
HETATM   12  C11 UNL     1      21.080  -1.279  54.606  1.00  0.00     0.002 A 
HETATM   13  C12 UNL     1      22.440  -1.319  54.816  1.00  0.00     0.000 A 
HETATM   14  C13 UNL     1      23.288  -0.665  53.923  1.00  0.00     0.002 A 
HETATM   15  C14 UNL     1      22.747   0.003  52.855  1.00  0.00     0.030 A 
ENDBRANCH   8  10
ENDBRANCH   5   8
ENDBRANCH   3   5
BRANCH   2  16
HETATM   16  C2  UNL     1      24.691   3.412  50.987  1.00  0.00     0.142 C 
BRANCH  16  17
HETATM   17  C3  UNL     1      25.506   2.556  51.862  1.00  0.00    -0.049 A 
HETATM   18  C4  UNL     1      25.292   2.670  53.230  1.00  0.00     0.009 A 
HETATM   19  C5  UNL     1      26.030   1.887  54.123  1.00  0.00     0.024 A 
HETATM   20  C6  UNL     1      26.973   1.001  53.613  1.00  0.00     0.034 A 
HETATM   21 CL1  UNL     1      27.959  -0.032  54.641  1.00  0.00    -0.084 Cl
HETATM   22  C7  UNL     1      27.184   0.891  52.246  1.00  0.00     0.024 A 
HETATM   23  C8  UNL     1      26.450   1.669  51.372  1.00  0.00     0.009 A 
ENDBRANCH  16  17
ENDBRANCH   2  16
TORSDOF 5
ENDMDL
MODEL 5
REMARK VINA RESULT:      -7.2      1.422      2.185
REMARK  5 active torsions:
REMARK  status: ('A' for Active; 'I' for Inactive)
REMARK    1  A    between atoms: C1_2  and  C2_3 
REMARK       I    between atoms: C1_2  and  N1_11 
REMARK    2  A    between atoms: C2_3  and  C3_4 
REMARK    3  A    between atoms: N1_11  and  S1_12 
REMARK    4  A    between atoms: S1_12  and  N2_15 
REMARK    5  A    between atoms: N2_15  and  C9_16 
ROOT
HETATM    1  O1  UNL     1      24.111   2.265  50.763  1.00  0.00    -0.272 OA
HETATM    2  C1  UNL     1      24.221   2.662  51.972  1.00  0.00     0.236 C 
HETATM    3  N1  UNL     1      24.281   4.077  52.113  1.00  0.00    -0.237 N 
HETATM    4  H7  UNL     1      24.371   4.445  53.087  1.00  0.00     0.183 HD
ENDROOT
BRANCH   3   5
HETATM    5  S1  UNL     1      24.198   5.037  50.671  1.00  0.00     0.326 S 
HETATM    6  O2  UNL     1      22.756   5.127  50.282  1.00  0.00    -0.182 OA
HETATM    7  O3  UNL     1      24.671   6.422  51.007  1.00  0.00    -0.182 OA
BRANCH   5   8
HETATM    8  N2  UNL     1      25.203   4.410  49.430  1.00  0.00    -0.268 N 
HETATM    9  H8  UNL     1      25.134   3.471  48.980  1.00  0.00     0.180 HD
BRANCH   8  10
HETATM   10  C9  UNL     1      26.260   5.199  48.912  1.00  0.00     0.043 A 
HETATM   11  C10 UNL     1      27.561   4.747  48.860  1.00  0.00     0.030 A 
HETATM   12  C11 UNL     1      28.618   5.482  48.364  1.00  0.00     0.002 A 
HETATM   13  C12 UNL     1      28.378   6.750  47.884  1.00  0.00     0.000 A 
HETATM   14  C13 UNL     1      27.080   7.256  47.913  1.00  0.00     0.002 A 
HETATM   15  C14 UNL     1      26.070   6.479  48.419  1.00  0.00     0.030 A 
ENDBRANCH   8  10
ENDBRANCH   5   8
ENDBRANCH   3   5
BRANCH   2  16
HETATM   16  C2  UNL     1      24.280   1.717  53.117  1.00  0.00     0.142 C 
BRANCH  16  17
HETATM   17  C3  UNL     1      25.622   1.117  53.165  1.00  0.00    -0.049 A 
HETATM   18  C4  UNL     1      26.647   1.906  53.673  1.00  0.00     0.009 A 
HETATM   19  C5  UNL     1      27.948   1.401  53.750  1.00  0.00     0.024 A 
HETATM   20  C6  UNL     1      28.189   0.103  53.310  1.00  0.00     0.034 A 
HETATM   21 CL1  UNL     1      29.785  -0.635  53.359  1.00  0.00    -0.084 Cl
HETATM   22  C7  UNL     1      27.162  -0.681  52.803  1.00  0.00     0.024 A 
HETATM   23  C8  UNL     1      25.879  -0.174  52.732  1.00  0.00     0.009 A 
ENDBRANCH  16  17
ENDBRANCH   2  16
TORSDOF 5
ENDMDL
MODEL 6
REMARK VINA RESULT:      -7.1      2.423      3.107
REMARK  5 active torsions:
REMARK  status: ('A' for Active; 'I' for Inactive)
REMARK    1  A    between atoms: C1_2  and  C2_3 
REMARK       I    between atoms: C1_2  and  N1_11 
REMARK    2  A    between atoms: C2_3  and  C3_4 
REMARK    3  A    between atoms: N1_11  and  S1_12 
REMARK    4  A    between atoms: S1_12  and  N2_15 
REMARK    5  A    between atoms: N2_15  and  C9_16 
ROOT
HETATM    1  O1  UNL     1      23.067   0.640  51.829  1.00  0.00    -0.272 OA
HETATM    2  C1  UNL     1      23.696   0.914  52.906  1.00  0.00     0.236 C 
HETATM    3  N1  UNL     1      23.942   2.303  53.097  1.00  0.00    -0.237 N 
HETATM    4  H7  UNL     1      24.455   2.571  53.967  1.00  0.00     0.183 HD
ENDROOT
BRANCH   3   5
HETATM    5  S1  UNL     1      23.370   3.397  51.879  1.00  0.00     0.326 S 
HETATM    6  O2  UNL     1      21.875   3.330  51.888  1.00  0.00    -0.182 OA
HETATM    7  O3  UNL     1      23.770   4.788  52.280  1.00  0.00    -0.182 OA
BRANCH   5   8
HETATM    8  N2  UNL     1      24.060   3.060  50.345  1.00  0.00    -0.268 N 
HETATM    9  H8  UNL     1      24.960   2.568  50.155  1.00  0.00     0.180 HD
BRANCH   8  10
HETATM   10  C9  UNL     1      23.387   3.464  49.165  1.00  0.00     0.043 A 
HETATM   11  C10 UNL     1      22.720   2.571  48.354  1.00  0.00     0.030 A 
HETATM   12  C11 UNL     1      22.052   2.922  47.198  1.00  0.00     0.002 A 
HETATM   13  C12 UNL     1      22.040   4.244  46.814  1.00  0.00     0.000 A 
HETATM   14  C13 UNL     1      22.699   5.189  47.599  1.00  0.00     0.002 A 
HETATM   15  C14 UNL     1      23.345   4.780  48.736  1.00  0.00     0.030 A 
ENDBRANCH   8  10
ENDBRANCH   5   8
ENDBRANCH   3   5
BRANCH   2  16
HETATM   16  C2  UNL     1      24.126  -0.137  53.865  1.00  0.00     0.142 C 
BRANCH  16  17
HETATM   17  C3  UNL     1      25.586  -0.289  53.776  1.00  0.00    -0.049 A 
HETATM   18  C4  UNL     1      26.342   0.279  54.794  1.00  0.00     0.009 A 
HETATM   19  C5  UNL     1      27.735   0.174  54.775  1.00  0.00     0.024 A 
HETATM   20  C6  UNL     1      28.341  -0.506  53.723  1.00  0.00     0.034 A 
HETATM   21 CL1  UNL     1      30.085  -0.700  53.596  1.00  0.00    -0.084 Cl
HETATM   22  C7  UNL     1      27.582  -1.071  52.708  1.00  0.00     0.024 A 
HETATM   23  C8  UNL     1      26.205  -0.962  52.735  1.00  0.00     0.009 A 
ENDBRANCH  16  17
ENDBRANCH   2  16
TORSDOF 5
ENDMDL
MODEL 7
REMARK VINA RESULT:      -7.1      5.993      8.279
REMARK  5 active torsions:
REMARK  status: ('A' for Active; 'I' for Inactive)
REMARK    1  A    between atoms: C1_2  and  C2_3 
REMARK       I    between atoms: C1_2  and  N1_11 
REMARK    2  A    between atoms: C2_3  and  C3_4 
REMARK    3  A    between atoms: N1_11  and  S1_12 
REMARK    4  A    between atoms: S1_12  and  N2_15 
REMARK    5  A    between atoms: N2_15  and  C9_16 
ROOT
HETATM    1  O1  UNL     1      29.391   9.791  47.382  1.00  0.00    -0.272 OA
HETATM    2  C1  UNL     1      30.049   9.588  48.458  1.00  0.00     0.236 C 
HETATM    3  N1  UNL     1      29.244   9.556  49.631  1.00  0.00    -0.237 N 
HETATM    4  H7  UNL     1      29.743   9.392  50.535  1.00  0.00     0.183 HD
ENDROOT
BRANCH   3   5
HETATM    5  S1  UNL     1      27.536   9.790  49.444  1.00  0.00     0.326 S 
HETATM    6  O2  UNL     1      26.924   9.690  50.806  1.00  0.00    -0.182 OA
HETATM    7  O3  UNL     1      27.310  11.188  48.942  1.00  0.00    -0.182 OA
BRANCH   5   8
HETATM    8  N2  UNL     1      26.862   8.694  48.310  1.00  0.00    -0.268 N 
HETATM    9  H8  UNL     1      26.332   8.933  47.444  1.00  0.00     0.180 HD
BRANCH   8  10
HETATM   10  C9  UNL     1      27.005   7.298  48.508  1.00  0.00     0.043 A 
HETATM   11  C10 UNL     1      26.027   6.534  49.106  1.00  0.00     0.030 A 
HETATM   12  C11 UNL     1      26.126   5.174  49.316  1.00  0.00     0.002 A 
HETATM   13  C12 UNL     1      27.267   4.520  48.908  1.00  0.00     0.000 A 
HETATM   14  C13 UNL     1      28.288   5.246  48.297  1.00  0.00     0.002 A 
HETATM   15  C14 UNL     1      28.133   6.595  48.115  1.00  0.00     0.030 A 
ENDBRANCH   8  10
ENDBRANCH   5   8
ENDBRANCH   3   5
BRANCH   2  16
HETATM   16  C2  UNL     1      31.523   9.403  48.466  1.00  0.00     0.142 C 
BRANCH  16  17
HETATM   17  C3  UNL     1      31.820   7.968  48.339  1.00  0.00    -0.049 A 
HETATM   18  C4  UNL     1      32.155   7.504  47.073  1.00  0.00     0.009 A 
HETATM   19  C5  UNL     1      32.450   6.151  46.877  1.00  0.00     0.024 A 
HETATM   20  C6  UNL     1      32.400   5.291  47.970  1.00  0.00     0.034 A 
HETATM   21 CL1  UNL     1      32.751   3.572  47.841  1.00  0.00    -0.084 Cl
HETATM   22  C7  UNL     1      32.064   5.759  49.232  1.00  0.00     0.024 A 
HETATM   23  C8  UNL     1      31.775   7.097  49.416  1.00  0.00     0.009 A 
ENDBRANCH  16  17
ENDBRANCH   2  16
TORSDOF 5
ENDMDL
MODEL 8
REMARK VINA RESULT:      -7.0      3.118      7.051
REMARK  5 active torsions:
REMARK  status: ('A' for Active; 'I' for Inactive)
REMARK    1  A    between atoms: C1_2  and  C2_3 
REMARK       I    between atoms: C1_2  and  N1_11 
REMARK    2  A    between atoms: C2_3  and  C3_4 
REMARK    3  A    between atoms: N1_11  and  S1_12 
REMARK    4  A    between atoms: S1_12  and  N2_15 
REMARK    5  A    between atoms: N2_15  and  C9_16 
ROOT
HETATM    1  O1  UNL     1      25.627   3.567  49.348  1.00  0.00    -0.272 OA
HETATM    2  C1  UNL     1      24.986   4.541  49.871  1.00  0.00     0.236 C 
HETATM    3  N1  UNL     1      24.652   4.346  51.240  1.00  0.00    -0.237 N 
HETATM    4  H7  UNL     1      24.126   5.120  51.707  1.00  0.00     0.183 HD
ENDROOT
BRANCH   3   5
HETATM    5  S1  UNL     1      25.146   2.861  51.988  1.00  0.00     0.326 S 
HETATM    6  O2  UNL     1      24.763   2.945  53.432  1.00  0.00    -0.182 OA
HETATM    7  O3  UNL     1      24.357   1.744  51.368  1.00  0.00    -0.182 OA
BRANCH   5   8
HETATM    8  N2  UNL     1      26.813   2.547  51.740  1.00  0.00    -0.268 N 
HETATM    9  H8  UNL     1      27.408   2.892  50.954  1.00  0.00     0.180 HD
BRANCH   8  10
HETATM   10  C9  UNL     1      27.524   1.741  52.663  1.00  0.00     0.043 A 
HETATM   11  C10 UNL     1      27.318   0.382  52.768  1.00  0.00     0.030 A 
HETATM   12  C11 UNL     1      27.989  -0.438  53.652  1.00  0.00     0.002 A 
HETATM   13  C12 UNL     1      28.929   0.117  54.491  1.00  0.00     0.000 A 
HETATM   14  C13 UNL     1      29.177   1.487  54.426  1.00  0.00     0.002 A 
HETATM   15  C14 UNL     1      28.479   2.251  53.527  1.00  0.00     0.030 A 
ENDBRANCH   8  10
ENDBRANCH   5   8
ENDBRANCH   3   5
BRANCH   2  16
HETATM   16  C2  UNL     1      24.628   5.761  49.102  1.00  0.00     0.142 C 
BRANCH  16  17
HETATM   17  C3  UNL     1      25.741   6.719  49.192  1.00  0.00    -0.049 A 
HETATM   18  C4  UNL     1      26.791   6.549  48.299  1.00  0.00     0.009 A 
HETATM   19  C5  UNL     1      27.883   7.422  48.326  1.00  0.00     0.024 A 
HETATM   20  C6  UNL     1      27.891   8.454  49.259  1.00  0.00     0.034 A 
HETATM   21 CL1  UNL     1      29.210   9.611  49.384  1.00  0.00    -0.084 Cl
HETATM   22  C7  UNL     1      26.839   8.619  50.149  1.00  0.00     0.024 A 
HETATM   23  C8  UNL     1      25.765   7.752  50.114  1.00  0.00     0.009 A 
ENDBRANCH  16  17
ENDBRANCH   2  16
TORSDOF 5
ENDMDL
MODEL 9
REMARK VINA RESULT:      -6.9      4.465      7.597
REMARK  5 active torsions:
REMARK  status: ('A' for Active; 'I' for Inactive)
REMARK    1  A    between atoms: C1_2  and  C2_3 
REMARK       I    between atoms: C1_2  and  N1_11 
REMARK    2  A    between atoms: C2_3  and  C3_4 
REMARK    3  A    between atoms: N1_11  and  S1_12 
REMARK    4  A    between atoms: S1_12  and  N2_15 
REMARK    5  A    between atoms: N2_15  and  C9_16 
ROOT
HETATM    1  O1  UNL     1      24.271   3.025  51.278  1.00  0.00    -0.272 OA
HETATM    2  C1  UNL     1      24.076   3.708  52.339  1.00  0.00     0.236 C 
HETATM    3  N1  UNL     1      24.817   3.253  53.466  1.00  0.00    -0.237 N 
HETATM    4  H7  UNL     1      24.686   3.785  54.356  1.00  0.00     0.183 HD
ENDROOT
BRANCH   3   5
HETATM    5  S1  UNL     1      25.851   1.877  53.249  1.00  0.00     0.326 S 
HETATM    6  O2  UNL     1      26.990   2.312  52.381  1.00  0.00    -0.182 OA
HETATM    7  O3  UNL     1      26.413   1.503  54.591  1.00  0.00    -0.182 OA
BRANCH   5   8
HETATM    8  N2  UNL     1      24.994   0.528  52.628  1.00  0.00    -0.268 N 
HETATM    9  H8  UNL     1      25.210  -0.008  51.759  1.00  0.00     0.180 HD
BRANCH   8  10
HETATM   10  C9  UNL     1      23.862   0.032  53.320  1.00  0.00     0.043 A 
HETATM   11  C10 UNL     1      23.972  -0.764  54.440  1.00  0.00     0.030 A 
HETATM   12  C11 UNL     1      22.896  -1.267  55.143  1.00  0.00     0.002 A 
HETATM   13  C12 UNL     1      21.623  -0.965  54.715  1.00  0.00     0.000 A 
HETATM   14  C13 UNL     1      21.455  -0.163  53.587  1.00  0.00     0.002 A 
HETATM   15  C14 UNL     1      22.562   0.307  52.929  1.00  0.00     0.030 A 
ENDBRANCH   8  10
ENDBRANCH   5   8
ENDBRANCH   3   5
BRANCH   2  16
HETATM   16  C2  UNL     1      23.153   4.872  52.377  1.00  0.00     0.142 C 
BRANCH  16  17
HETATM   17  C3  UNL     1      21.842   4.452  51.860  1.00  0.00    -0.049 A 
HETATM   18  C4  UNL     1      21.389   5.083  50.708  1.00  0.00     0.009 A 
HETATM   19  C5  UNL     1      20.152   4.735  50.158  1.00  0.00     0.024 A 
HETATM   20  C6  UNL     1      19.393   3.753  50.787  1.00  0.00     0.034 A 
HETATM   21 CL1  UNL     1      17.822   3.236  50.187  1.00  0.00    -0.084 Cl
HETATM   22  C7  UNL     1      19.849   3.127  51.939  1.00  0.00     0.024 A 
HETATM   23  C8  UNL     1      21.074   3.477  52.474  1.00  0.00     0.009 A 
ENDBRANCH  16  17
ENDBRANCH   2  16
TORSDOF 5
ENDMDL
