MODEL 1
REMARK VINA RESULT:      -9.0      0.000      0.000
REMARK  4 active torsions:
REMARK  status: ('A' for Active; 'I' for Inactive)
REMARK    1  A    between atoms: C2_2  and  C3_3 
REMARK    2  A    between atoms: C2_2  and  N2_12 
REMARK    3  A    between atoms: C4_4  and  C5_5 
REMARK    4  A    between atoms: N2_12  and  C9_13 
ROOT
HETATM    1  C9  UNL     1      23.603   2.675  50.873  1.00  0.00     0.241 C 
HETATM    2  N3  UNL     1      23.838   3.869  51.676  1.00  0.00    -0.273 NA
HETATM    3  C10 UNL     1      22.835   4.722  51.810  1.00  0.00     0.116 C 
HETATM    4  C11 UNL     1      21.465   5.237  51.603  1.00  0.00     0.345 C 
HETATM    5  N4  UNL     1      20.691   4.509  50.887  1.00  0.00    -0.399 NA
HETATM    6  C12 UNL     1      19.362   4.744  50.534  1.00  0.00     0.188 C 
HETATM    7  N5  UNL     1      18.872   3.704  51.173  1.00  0.00    -0.267 NA
HETATM    8  C13 UNL     1      19.739   2.819  51.907  1.00  0.00     0.272 C 
HETATM    9  N6  UNL     1      20.492   1.900  51.068  1.00  0.00    -0.371 N 
HETATM   10  C14 UNL     1      21.582   1.274  51.787  1.00  0.00     0.041 A 
HETATM   11  C15 UNL     1      21.261   0.246  52.634  1.00  0.00     0.053 A 
HETATM   12  C16 UNL     1      22.149  -0.465  53.426  1.00  0.00     0.036 A 
HETATM   13 CL1  UNL     1      21.507  -1.740  54.433  1.00  0.00    -0.084 Cl
HETATM   14  C17 UNL     1      23.453  -0.076  53.325  1.00  0.00     0.024 A 
HETATM   15  C18 UNL     1      23.810   0.962  52.474  1.00  0.00     0.015 A 
HETATM   16  C19 UNL     1      22.921   1.663  51.689  1.00  0.00     0.012 A 
HETATM   17  H16 UNL     1      20.795   1.348  50.259  1.00  0.00     0.161 HD
ENDROOT
BRANCH   1  18
HETATM   18  N2  UNL     1      24.791   2.208  50.212  1.00  0.00    -0.357 N 
HETATM   19  H9  UNL     1      24.849   1.464  49.480  1.00  0.00     0.162 HD
BRANCH  18  20
HETATM   20  C2  UNL     1      26.008   2.820  50.588  1.00  0.00     0.075 C 
HETATM   21  C1  UNL     1      26.471   3.853  49.865  1.00  0.00     0.053 C 
BRANCH  20  22
HETATM   22  C3  UNL     1      26.817   2.428  51.708  1.00  0.00    -0.047 C 
HETATM   23  C4  UNL     1      27.498   2.080  52.639  1.00  0.00    -0.064 C 
BRANCH  23  24
HETATM   24  C5  UNL     1      28.316   1.652  53.775  1.00  0.00     0.258 C 
HETATM   25  N1  UNL     1      29.605   1.305  53.302  1.00  0.00    -0.398 N 
HETATM   26  C6  UNL     1      30.097   0.019  53.542  1.00  0.00     0.142 C 
HETATM   27  H4  UNL     1      29.894   1.790  52.442  1.00  0.00     0.155 HD
HETATM   28  C7  UNL     1      29.123  -1.053  53.845  1.00  0.00     0.198 C 
HETATM   29  O1  UNL     1      28.122  -0.664  54.776  1.00  0.00    -0.318 OA
HETATM   30  C8  UNL     1      27.607   0.615  54.519  1.00  0.00     0.293 C 
HETATM   31  O2  UNL     1      26.466   1.041  54.892  1.00  0.00    -0.262 OA
ENDBRANCH  23  24
ENDBRANCH  20  22
ENDBRANCH  18  20
ENDBRANCH   1  18
TORSDOF 4
ENDMDL
MODEL 2
REMARK VINA RESULT:      -8.7      2.349      3.239
REMARK  4 active torsions:
REMARK  status: ('A' for Active; 'I' for Inactive)
REMARK    1  A    between atoms: C2_2  and  C3_3 
REMARK    2  A    between atoms: C2_2  and  N2_12 
REMARK    3  A    between atoms: C4_4  and  C5_5 
REMARK    4  A    between atoms: N2_12  and  C9_13 
ROOT
HETATM    1  C9  UNL     1      20.817   1.346  51.697  1.00  0.00     0.241 C 
HETATM    2  N3  UNL     1      20.637   2.575  52.461  1.00  0.00    -0.273 NA
HETATM    3  C10 UNL     1      20.010   3.577  51.867  1.00  0.00     0.116 C 
HETATM    4  C11 UNL     1      19.306   4.265  50.764  1.00  0.00     0.345 C 
HETATM    5  N4  UNL     1      19.140   3.584  49.691  1.00  0.00    -0.399 NA
HETATM    6  C12 UNL     1      18.515   3.973  48.506  1.00  0.00     0.188 C 
HETATM    7  N5  UNL     1      17.536   3.097  48.581  1.00  0.00    -0.267 NA
HETATM    8  C13 UNL     1      17.456   2.181  49.690  1.00  0.00     0.272 C 
HETATM    9  N6  UNL     1      18.392   1.072  49.608  1.00  0.00    -0.371 N 
HETATM   10  C14 UNL     1      18.524   0.375  50.871  1.00  0.00     0.041 A 
HETATM   11  C15 UNL     1      17.519  -0.491  51.213  1.00  0.00     0.053 A 
HETATM   12  C16 UNL     1      17.444  -1.233  52.382  1.00  0.00     0.036 A 
HETATM   13 CL1  UNL     1      16.061  -2.275  52.603  1.00  0.00    -0.084 Cl
HETATM   14  C17 UNL     1      18.486  -1.056  53.245  1.00  0.00     0.024 A 
HETATM   15  C18 UNL     1      19.521  -0.186  52.927  1.00  0.00     0.015 A 
HETATM   16  C19 UNL     1      19.587   0.547  51.761  1.00  0.00     0.012 A 
HETATM   17  H16 UNL     1      19.065   0.392  49.239  1.00  0.00     0.161 HD
ENDROOT
BRANCH   1  18
HETATM   18  N2  UNL     1      22.012   0.636  52.061  1.00  0.00    -0.357 N 
HETATM   19  H9  UNL     1      22.070  -0.317  52.486  1.00  0.00     0.162 HD
BRANCH  18  20
HETATM   20  C2  UNL     1      23.239   1.292  51.816  1.00  0.00     0.075 C 
HETATM   21  C1  UNL     1      23.430   1.903  50.634  1.00  0.00     0.053 C 
BRANCH  20  22
HETATM   22  C3  UNL     1      24.332   1.371  52.744  1.00  0.00    -0.047 C 
HETATM   23  C4  UNL     1      25.262   1.444  53.508  1.00  0.00    -0.064 C 
BRANCH  23  24
HETATM   24  C5  UNL     1      26.395   1.522  54.431  1.00  0.00     0.258 C 
HETATM   25  N1  UNL     1      27.363   2.401  53.888  1.00  0.00    -0.398 N 
HETATM   26  C6  UNL     1      28.660   1.931  53.663  1.00  0.00     0.142 C 
HETATM   27  H4  UNL     1      26.987   3.125  53.263  1.00  0.00     0.155 HD
HETATM   28  C7  UNL     1      28.862   0.470  53.548  1.00  0.00     0.198 C 
HETATM   29  O1  UNL     1      28.170  -0.278  54.538  1.00  0.00    -0.318 OA
HETATM   30  C8  UNL     1      26.859   0.173  54.744  1.00  0.00     0.293 C 
HETATM   31  O2  UNL     1      25.904  -0.521  55.225  1.00  0.00    -0.262 OA
ENDBRANCH  23  24
ENDBRANCH  20  22
ENDBRANCH  18  20
ENDBRANCH   1  18
TORSDOF 4
ENDMDL
MODEL 3
REMARK VINA RESULT:      -8.6      2.560      3.957
REMARK  4 active torsions:
REMARK  status: ('A' for Active; 'I' for Inactive)
REMARK    1  A    between atoms: C2_2  and  C3_3 
REMARK    2  A    between atoms: C2_2  and  N2_12 
REMARK    3  A    between atoms: C4_4  and  C5_5 
REMARK    4  A    between atoms: N2_12  and  C9_13 
ROOT
HETATM    1  C9  UNL     1      22.166   0.455  52.230  1.00  0.00     0.241 C 
HETATM    2  N3  UNL     1      22.348   1.628  53.077  1.00  0.00    -0.273 NA
HETATM    3  C10 UNL     1      22.866   2.710  52.518  1.00  0.00     0.116 C 
HETATM    4  C11 UNL     1      23.433   3.523  51.422  1.00  0.00     0.345 C 
HETATM    5  N4  UNL     1      23.523   2.946  50.282  1.00  0.00    -0.399 NA
HETATM    6  C12 UNL     1      24.012   3.467  49.083  1.00  0.00     0.188 C 
HETATM    7  N5  UNL     1      22.870   3.394  48.434  1.00  0.00    -0.267 NA
HETATM    8  C13 UNL     1      21.690   2.883  49.083  1.00  0.00     0.272 C 
HETATM    9  N6  UNL     1      21.667   1.435  49.212  1.00  0.00    -0.371 N 
HETATM   10  C14 UNL     1      20.659   0.986  50.149  1.00  0.00     0.041 A 
HETATM   11  C15 UNL     1      19.361   0.973  49.711  1.00  0.00     0.053 A 
HETATM   12  C16 UNL     1      18.251   0.603  50.455  1.00  0.00     0.036 A 
HETATM   13 CL1  UNL     1      16.687   0.667  49.681  1.00  0.00    -0.084 Cl
HETATM   14  C17 UNL     1      18.518   0.223  51.738  1.00  0.00     0.024 A 
HETATM   15  C18 UNL     1      19.824   0.224  52.213  1.00  0.00     0.015 A 
HETATM   16  C19 UNL     1      20.920   0.593  51.465  1.00  0.00     0.012 A 
HETATM   17  H16 UNL     1      21.888   0.443  49.077  1.00  0.00     0.161 HD
ENDROOT
BRANCH   1  18
HETATM   18  N2  UNL     1      22.288  -0.779  52.957  1.00  0.00    -0.357 N 
HETATM   19  H9  UNL     1      21.647  -1.603  52.904  1.00  0.00     0.162 HD
BRANCH  18  20
HETATM   20  C2  UNL     1      23.391  -0.892  53.833  1.00  0.00     0.075 C 
HETATM   21  C1  UNL     1      23.173  -1.209  55.120  1.00  0.00     0.053 C 
BRANCH  20  22
HETATM   22  C3  UNL     1      24.764  -0.698  53.460  1.00  0.00    -0.047 C 
HETATM   23  C4  UNL     1      25.910  -0.529  53.128  1.00  0.00    -0.064 C 
BRANCH  23  24
HETATM   24  C5  UNL     1      27.303  -0.336  52.719  1.00  0.00     0.258 C 
HETATM   25  N1  UNL     1      28.146  -0.938  53.683  1.00  0.00    -0.398 N 
HETATM   26  C6  UNL     1      29.109  -0.158  54.330  1.00  0.00     0.142 C 
HETATM   27  H4  UNL     1      27.725  -1.724  54.195  1.00  0.00     0.155 HD
HETATM   28  C7  UNL     1      28.917   1.309  54.350  1.00  0.00     0.198 C 
HETATM   29  O1  UNL     1      28.525   1.848  53.095  1.00  0.00    -0.318 OA
HETATM   30  C8  UNL     1      27.539   1.081  52.457  1.00  0.00     0.293 C 
HETATM   31  O2  UNL     1      26.724   1.509  51.576  1.00  0.00    -0.262 OA
ENDBRANCH  23  24
ENDBRANCH  20  22
ENDBRANCH  18  20
ENDBRANCH   1  18
TORSDOF 4
ENDMDL
MODEL 4
REMARK VINA RESULT:      -8.6      2.100      2.509
REMARK  4 active torsions:
REMARK  status: ('A' for Active; 'I' for Inactive)
REMARK    1  A    between atoms: C2_2  and  C3_3 
REMARK    2  A    between atoms: C2_2  and  N2_12 
REMARK    3  A    between atoms: C4_4  and  C5_5 
REMARK    4  A    between atoms: N2_12  and  C9_13 
ROOT
HETATM    1  C9  UNL     1      23.740   4.324  50.444  1.00  0.00     0.241 C 
HETATM    2  N3  UNL     1      22.818   5.403  50.779  1.00  0.00    -0.273 NA
HETATM    3  C10 UNL     1      21.782   5.592  49.978  1.00  0.00     0.116 C 
HETATM    4  C11 UNL     1      20.910   5.327  48.814  1.00  0.00     0.345 C 
HETATM    5  N4  UNL     1      21.261   4.355  48.056  1.00  0.00    -0.399 NA
HETATM    6  C12 UNL     1      20.633   3.884  46.903  1.00  0.00     0.188 C 
HETATM    7  N5  UNL     1      20.337   2.699  47.391  1.00  0.00    -0.267 NA
HETATM    8  C13 UNL     1      20.705   2.349  48.739  1.00  0.00     0.272 C 
HETATM    9  N6  UNL     1      22.112   2.024  48.903  1.00  0.00    -0.371 N 
HETATM   10  C14 UNL     1      22.511   2.011  50.294  1.00  0.00     0.041 A 
HETATM   11  C15 UNL     1      22.166   0.910  51.033  1.00  0.00     0.053 A 
HETATM   12  C16 UNL     1      22.431   0.713  52.379  1.00  0.00     0.036 A 
HETATM   13 CL1  UNL     1      21.891  -0.777  53.111  1.00  0.00    -0.084 Cl
HETATM   14  C17 UNL     1      23.099   1.734  52.990  1.00  0.00     0.024 A 
HETATM   15  C18 UNL     1      23.465   2.864  52.269  1.00  0.00     0.015 A 
HETATM   16  C19 UNL     1      23.198   3.049  50.930  1.00  0.00     0.012 A 
HETATM   17  H16 UNL     1      23.083   1.772  48.690  1.00  0.00     0.161 HD
ENDROOT
BRANCH   1  18
HETATM   18  N2  UNL     1      25.089   4.598  50.859  1.00  0.00    -0.357 N 
HETATM   19  H9  UNL     1      25.410   5.386  51.465  1.00  0.00     0.162 HD
BRANCH  18  20
HETATM   20  C2  UNL     1      26.086   3.707  50.402  1.00  0.00     0.075 C 
HETATM   21  C1  UNL     1      26.728   3.977  49.253  1.00  0.00     0.053 C 
BRANCH  20  22
HETATM   22  C3  UNL     1      26.489   2.505  51.076  1.00  0.00    -0.047 C 
HETATM   23  C4  UNL     1      26.810   1.496  51.653  1.00  0.00    -0.064 C 
BRANCH  23  24
HETATM   24  C5  UNL     1      27.203   0.278  52.364  1.00  0.00     0.258 C 
HETATM   25  N1  UNL     1      26.039  -0.475  52.652  1.00  0.00    -0.398 N 
HETATM   26  C6  UNL     1      25.749  -0.800  53.980  1.00  0.00     0.142 C 
HETATM   27  H4  UNL     1      25.258  -0.330  51.999  1.00  0.00     0.155 HD
HETATM   28  C7  UNL     1      26.367   0.016  55.048  1.00  0.00     0.198 C 
HETATM   29  O1  UNL     1      27.748   0.278  54.835  1.00  0.00    -0.318 OA
HETATM   30  C8  UNL     1      28.036   0.632  53.509  1.00  0.00     0.293 C 
HETATM   31  O2  UNL     1      29.049   1.304  53.127  1.00  0.00    -0.262 OA
ENDBRANCH  23  24
ENDBRANCH  20  22
ENDBRANCH  18  20
ENDBRANCH   1  18
TORSDOF 4
ENDMDL
MODEL 5
REMARK VINA RESULT:      -8.5      3.431      6.075
REMARK  4 active torsions:
REMARK  status: ('A' for Active; 'I' for Inactive)
REMARK    1  A    between atoms: C2_2  and  C3_3 
REMARK    2  A    between atoms: C2_2  and  N2_12 
REMARK    3  A    between atoms: C4_4  and  C5_5 
REMARK    4  A    between atoms: N2_12  and  C9_13 
ROOT
HETATM    1  C9  UNL     1      25.475   3.393  50.924  1.00  0.00     0.241 C 
HETATM    2  N3  UNL     1      24.580   2.566  50.123  1.00  0.00    -0.273 NA
HETATM    3  C10 UNL     1      23.329   2.976  49.987  1.00  0.00     0.116 C 
HETATM    4  C11 UNL     1      22.174   3.875  50.189  1.00  0.00     0.345 C 
HETATM    5  N4  UNL     1      22.390   4.918  50.902  1.00  0.00    -0.399 NA
HETATM    6  C12 UNL     1      21.495   5.929  51.252  1.00  0.00     0.188 C 
HETATM    7  N5  UNL     1      22.125   6.889  50.609  1.00  0.00    -0.267 NA
HETATM    8  C13 UNL     1      23.334   6.609  49.877  1.00  0.00     0.272 C 
HETATM    9  N6  UNL     1      24.510   6.450  50.717  1.00  0.00    -0.371 N 
HETATM   10  C14 UNL     1      25.614   5.845  50.002  1.00  0.00     0.041 A 
HETATM   11  C15 UNL     1      26.324   6.653  49.152  1.00  0.00     0.053 A 
HETATM   12  C16 UNL     1      27.394   6.265  48.362  1.00  0.00     0.036 A 
HETATM   13 CL1  UNL     1      28.147   7.474  47.351  1.00  0.00    -0.084 Cl
HETATM   14  C17 UNL     1      27.744   4.950  48.468  1.00  0.00     0.024 A 
HETATM   15  C18 UNL     1      27.045   4.106  49.321  1.00  0.00     0.015 A 
HETATM   16  C19 UNL     1      25.982   4.501  50.104  1.00  0.00     0.012 A 
HETATM   17  H16 UNL     1      25.139   6.483  51.526  1.00  0.00     0.161 HD
ENDROOT
BRANCH   1  18
HETATM   18  N2  UNL     1      26.493   2.627  51.588  1.00  0.00    -0.357 N 
HETATM   19  H9  UNL     1      27.488   2.513  51.288  1.00  0.00     0.162 HD
BRANCH  18  20
HETATM   20  C2  UNL     1      26.112   1.959  52.774  1.00  0.00     0.075 C 
HETATM   21  C1  UNL     1      26.829   2.152  53.893  1.00  0.00     0.053 C 
BRANCH  20  22
HETATM   22  C3  UNL     1      24.992   1.068  52.894  1.00  0.00    -0.047 C 
HETATM   23  C4  UNL     1      24.066   0.304  52.998  1.00  0.00    -0.064 C 
BRANCH  23  24
HETATM   24  C5  UNL     1      22.942  -0.628  53.112  1.00  0.00     0.258 C 
HETATM   25  N1  UNL     1      21.892  -0.177  52.276  1.00  0.00    -0.398 N 
HETATM   26  C6  UNL     1      20.639   0.087  52.836  1.00  0.00     0.142 C 
HETATM   27  H4  UNL     1      22.195   0.377  51.464  1.00  0.00     0.155 HD
HETATM   28  C7  UNL     1      20.567   0.343  54.291  1.00  0.00     0.198 C 
HETATM   29  O1  UNL     1      21.336  -0.567  55.066  1.00  0.00    -0.318 OA
HETATM   30  C8  UNL     1      22.604  -0.810  54.521  1.00  0.00     0.293 C 
HETATM   31  O2  UNL     1      23.623  -1.217  55.169  1.00  0.00    -0.262 OA
ENDBRANCH  23  24
ENDBRANCH  20  22
ENDBRANCH  18  20
ENDBRANCH   1  18
TORSDOF 4
ENDMDL
MODEL 6
REMARK VINA RESULT:      -8.4      1.888      2.086
REMARK  4 active torsions:
REMARK  status: ('A' for Active; 'I' for Inactive)
REMARK    1  A    between atoms: C2_2  and  C3_3 
REMARK    2  A    between atoms: C2_2  and  N2_12 
REMARK    3  A    between atoms: C4_4  and  C5_5 
REMARK    4  A    between atoms: N2_12  and  C9_13 
ROOT
HETATM    1  C9  UNL     1      24.123   4.204  50.496  1.00  0.00     0.241 C 
HETATM    2  N3  UNL     1      23.271   5.353  50.783  1.00  0.00    -0.273 NA
HETATM    3  C10 UNL     1      22.295   5.618  49.930  1.00  0.00     0.116 C 
HETATM    4  C11 UNL     1      21.465   5.416  48.724  1.00  0.00     0.345 C 
HETATM    5  N4  UNL     1      21.778   4.416  47.985  1.00  0.00    -0.399 NA
HETATM    6  C12 UNL     1      21.174   3.990  46.802  1.00  0.00     0.188 C 
HETATM    7  N5  UNL     1      20.763   2.834  47.275  1.00  0.00    -0.267 NA
HETATM    8  C13 UNL     1      21.033   2.462  48.640  1.00  0.00     0.272 C 
HETATM    9  N6  UNL     1      22.401   2.030  48.875  1.00  0.00    -0.371 N 
HETATM   10  C14 UNL     1      22.727   1.992  50.285  1.00  0.00     0.041 A 
HETATM   11  C15 UNL     1      22.261   0.924  51.005  1.00  0.00     0.053 A 
HETATM   12  C16 UNL     1      22.441   0.714  52.363  1.00  0.00     0.036 A 
HETATM   13 CL1  UNL     1      21.750  -0.726  53.068  1.00  0.00    -0.084 Cl
HETATM   14  C17 UNL     1      23.155   1.683  53.007  1.00  0.00     0.024 A 
HETATM   15  C18 UNL     1      23.643   2.777  52.305  1.00  0.00     0.015 A 
HETATM   16  C19 UNL     1      23.459   2.977  50.954  1.00  0.00     0.012 A 
HETATM   17  H16 UNL     1      23.359   1.702  48.712  1.00  0.00     0.161 HD
ENDROOT
BRANCH   1  18
HETATM   18  N2  UNL     1      25.466   4.374  50.978  1.00  0.00    -0.357 N 
HETATM   19  H9  UNL     1      25.856   5.215  51.460  1.00  0.00     0.162 HD
BRANCH  18  20
HETATM   20  C2  UNL     1      26.352   3.291  50.783  1.00  0.00     0.075 C 
HETATM   21  C1  UNL     1      26.653   2.910  49.530  1.00  0.00     0.053 C 
BRANCH  20  22
HETATM   22  C3  UNL     1      26.981   2.540  51.833  1.00  0.00    -0.047 C 
HETATM   23  C4  UNL     1      27.490   1.905  52.722  1.00  0.00    -0.064 C 
BRANCH  23  24
HETATM   24  C5  UNL     1      28.107   1.144  53.810  1.00  0.00     0.258 C 
HETATM   25  N1  UNL     1      29.498   1.050  53.566  1.00  0.00    -0.398 N 
HETATM   26  C6  UNL     1      30.091  -0.212  53.474  1.00  0.00     0.142 C 
HETATM   27  H4  UNL     1      29.892   1.821  53.011  1.00  0.00     0.155 HD
HETATM   28  C7  UNL     1      29.222  -1.368  53.165  1.00  0.00     0.198 C 
HETATM   29  O1  UNL     1      28.010  -1.383  53.907  1.00  0.00    -0.318 OA
HETATM   30  C8  UNL     1      27.399  -0.123  53.977  1.00  0.00     0.293 C 
HETATM   31  O2  UNL     1      26.161   0.088  54.190  1.00  0.00    -0.262 OA
ENDBRANCH  23  24
ENDBRANCH  20  22
ENDBRANCH  18  20
ENDBRANCH   1  18
TORSDOF 4
ENDMDL
MODEL 7
REMARK VINA RESULT:      -8.3      3.273      4.733
REMARK  4 active torsions:
REMARK  status: ('A' for Active; 'I' for Inactive)
REMARK    1  A    between atoms: C2_2  and  C3_3 
REMARK    2  A    between atoms: C2_2  and  N2_12 
REMARK    3  A    between atoms: C4_4  and  C5_5 
REMARK    4  A    between atoms: N2_12  and  C9_13 
ROOT
HETATM    1  C9  UNL     1      23.356   3.185  49.832  1.00  0.00     0.241 C 
HETATM    2  N3  UNL     1      22.826   2.513  48.651  1.00  0.00    -0.273 NA
HETATM    3  C10 UNL     1      22.057   3.220  47.840  1.00  0.00     0.116 C 
HETATM    4  C11 UNL     1      21.336   4.422  47.370  1.00  0.00     0.345 C 
HETATM    5  N4  UNL     1      21.454   5.470  48.098  1.00  0.00    -0.399 NA
HETATM    6  C12 UNL     1      20.893   6.732  47.898  1.00  0.00     0.188 C 
HETATM    7  N5  UNL     1      22.039   7.360  47.740  1.00  0.00    -0.267 NA
HETATM    8  C13 UNL     1      23.285   6.641  47.814  1.00  0.00     0.272 C 
HETATM    9  N6  UNL     1      23.696   6.310  49.169  1.00  0.00    -0.371 N 
HETATM   10  C14 UNL     1      24.748   5.315  49.191  1.00  0.00     0.041 A 
HETATM   11  C15 UNL     1      26.018   5.743  48.905  1.00  0.00     0.053 A 
HETATM   12  C16 UNL     1      27.153   4.950  48.850  1.00  0.00     0.036 A 
HETATM   13 CL1  UNL     1      28.672   5.720  48.462  1.00  0.00    -0.084 Cl
HETATM   14  C17 UNL     1      26.947   3.627  49.112  1.00  0.00     0.024 A 
HETATM   15  C18 UNL     1      25.671   3.162  49.407  1.00  0.00     0.015 A 
HETATM   16  C19 UNL     1      24.548   3.958  49.460  1.00  0.00     0.012 A 
HETATM   17  H16 UNL     1      23.760   6.304  50.192  1.00  0.00     0.161 HD
ENDROOT
BRANCH   1  18
HETATM   18  N2  UNL     1      23.545   2.292  50.941  1.00  0.00    -0.357 N 
HETATM   19  H9  UNL     1      23.406   1.256  50.942  1.00  0.00     0.162 HD
BRANCH  18  20
HETATM   20  C2  UNL     1      23.964   2.873  52.159  1.00  0.00     0.075 C 
HETATM   21  C1  UNL     1      23.375   4.004  52.581  1.00  0.00     0.053 C 
BRANCH  20  22
HETATM   22  C3  UNL     1      24.991   2.346  53.014  1.00  0.00    -0.047 C 
HETATM   23  C4  UNL     1      25.838   1.892  53.742  1.00  0.00    -0.064 C 
BRANCH  23  24
HETATM   24  C5  UNL     1      26.863   1.350  54.635  1.00  0.00     0.258 C 
HETATM   25  N1  UNL     1      28.094   1.991  54.355  1.00  0.00    -0.398 N 
HETATM   26  C6  UNL     1      29.199   1.217  53.989  1.00  0.00     0.142 C 
HETATM   27  H4  UNL     1      28.008   2.940  53.968  1.00  0.00     0.155 HD
HETATM   28  C7  UNL     1      28.951  -0.142  53.457  1.00  0.00     0.198 C 
HETATM   29  O1  UNL     1      27.987  -0.875  54.199  1.00  0.00    -0.318 OA
HETATM   30  C8  UNL     1      26.865  -0.107  54.542  1.00  0.00     0.293 C 
HETATM   31  O2  UNL     1      25.709  -0.568  54.816  1.00  0.00    -0.262 OA
ENDBRANCH  23  24
ENDBRANCH  20  22
ENDBRANCH  18  20
ENDBRANCH   1  18
TORSDOF 4
ENDMDL
MODEL 8
REMARK VINA RESULT:      -8.2      3.015      4.521
REMARK  4 active torsions:
REMARK  status: ('A' for Active; 'I' for Inactive)
REMARK    1  A    between atoms: C2_2  and  C3_3 
REMARK    2  A    between atoms: C2_2  and  N2_12 
REMARK    3  A    between atoms: C4_4  and  C5_5 
REMARK    4  A    between atoms: N2_12  and  C9_13 
ROOT
HETATM    1  C9  UNL     1      22.765   2.519  51.105  1.00  0.00     0.241 C 
HETATM    2  N3  UNL     1      22.471   1.246  50.457  1.00  0.00    -0.273 NA
HETATM    3  C10 UNL     1      21.698   1.272  49.384  1.00  0.00     0.116 C 
HETATM    4  C11 UNL     1      20.862   1.896  48.337  1.00  0.00     0.345 C 
HETATM    5  N4  UNL     1      20.745   3.171  48.396  1.00  0.00    -0.399 NA
HETATM    6  C12 UNL     1      20.029   4.016  47.548  1.00  0.00     0.188 C 
HETATM    7  N5  UNL     1      21.079   4.666  47.094  1.00  0.00    -0.267 NA
HETATM    8  C13 UNL     1      22.402   4.333  47.556  1.00  0.00     0.272 C 
HETATM    9  N6  UNL     1      22.709   4.839  48.884  1.00  0.00    -0.371 N 
HETATM   10  C14 UNL     1      23.887   4.214  49.447  1.00  0.00     0.041 A 
HETATM   11  C15 UNL     1      25.104   4.653  48.993  1.00  0.00     0.053 A 
HETATM   12  C16 UNL     1      26.343   4.172  49.384  1.00  0.00     0.036 A 
HETATM   13 CL1  UNL     1      27.764   4.888  48.666  1.00  0.00    -0.084 Cl
HETATM   14  C17 UNL     1      26.307   3.168  50.308  1.00  0.00     0.024 A 
HETATM   15  C18 UNL     1      25.090   2.701  50.789  1.00  0.00     0.015 A 
HETATM   16  C19 UNL     1      23.863   3.187  50.395  1.00  0.00     0.012 A 
HETATM   17  H16 UNL     1      22.662   5.380  49.754  1.00  0.00     0.161 HD
ENDROOT
BRANCH   1  18
HETATM   18  N2  UNL     1      22.962   2.388  52.523  1.00  0.00    -0.357 N 
HETATM   19  H9  UNL     1      23.089   3.164  53.212  1.00  0.00     0.162 HD
BRANCH  18  20
HETATM   20  C2  UNL     1      22.985   1.074  53.041  1.00  0.00     0.075 C 
HETATM   21  C1  UNL     1      21.825   0.417  53.209  1.00  0.00     0.053 C 
BRANCH  20  22
HETATM   22  C3  UNL     1      24.170   0.354  53.413  1.00  0.00    -0.047 C 
HETATM   23  C4  UNL     1      25.174  -0.231  53.732  1.00  0.00    -0.064 C 
BRANCH  23  24
HETATM   24  C5  UNL     1      26.400  -0.940  54.107  1.00  0.00     0.258 C 
HETATM   25  N1  UNL     1      27.021  -0.239  55.169  1.00  0.00    -0.398 N 
HETATM   26  C6  UNL     1      28.333   0.215  55.010  1.00  0.00     0.142 C 
HETATM   27  H4  UNL     1      26.381   0.304  55.761  1.00  0.00     0.155 HD
HETATM   28  C7  UNL     1      28.853   0.374  53.634  1.00  0.00     0.198 C 
HETATM   29  O1  UNL     1      28.543  -0.718  52.780  1.00  0.00    -0.318 OA
HETATM   30  C8  UNL     1      27.218  -1.157  52.918  1.00  0.00     0.293 C 
HETATM   31  O2  UNL     1      26.555  -1.794  52.036  1.00  0.00    -0.262 OA
ENDBRANCH  23  24
ENDBRANCH  20  22
ENDBRANCH  18  20
ENDBRANCH   1  18
TORSDOF 4
ENDMDL
MODEL 9
REMARK VINA RESULT:      -8.0      6.283      9.303
REMARK  4 active torsions:
REMARK  status: ('A' for Active; 'I' for Inactive)
REMARK    1  A    between atoms: C2_2  and  C3_3 
REMARK    2  A    between atoms: C2_2  and  N2_12 
REMARK    3  A    between atoms: C4_4  and  C5_5 
REMARK    4  A    between atoms: N2_12  and  C9_13 
ROOT
HETATM    1  C9  UNL     1      29.169   6.524  47.932  1.00  0.00     0.241 C 
HETATM    2  N3  UNL     1      28.958   7.078  46.599  1.00  0.00    -0.273 NA
HETATM    3  C10 UNL     1      28.882   8.395  46.490  1.00  0.00     0.116 C 
HETATM    4  C11 UNL     1      28.885   9.791  46.974  1.00  0.00     0.345 C 
HETATM    5  N4  UNL     1      29.062   9.951  48.233  1.00  0.00    -0.399 NA
HETATM    6  C12 UNL     1      29.112  11.143  48.957  1.00  0.00     0.188 C 
HETATM    7  N5  UNL     1      30.365  11.012  49.336  1.00  0.00    -0.267 NA
HETATM    8  C13 UNL     1      31.136   9.863  48.935  1.00  0.00     0.272 C 
HETATM    9  N6  UNL     1      30.823   8.653  49.678  1.00  0.00    -0.371 N 
HETATM   10  C14 UNL     1      31.353   7.467  49.038  1.00  0.00     0.041 A 
HETATM   11  C15 UNL     1      32.692   7.221  49.191  1.00  0.00     0.053 A 
HETATM   12  C16 UNL     1      33.395   6.160  48.642  1.00  0.00     0.036 A 
HETATM   13 CL1  UNL     1      35.105   6.051  48.974  1.00  0.00    -0.084 Cl
HETATM   14  C17 UNL     1      32.649   5.303  47.886  1.00  0.00     0.024 A 
HETATM   15  C18 UNL     1      31.288   5.524  47.713  1.00  0.00     0.015 A 
HETATM   16  C19 UNL     1      30.598   6.582  48.264  1.00  0.00     0.012 A 
HETATM   17  H16 UNL     1      30.464   8.021  50.402  1.00  0.00     0.161 HD
ENDROOT
BRANCH   1  18
HETATM   18  N2  UNL     1      28.568   5.229  48.096  1.00  0.00    -0.357 N 
HETATM   19  H9  UNL     1      28.965   4.311  47.793  1.00  0.00     0.162 HD
BRANCH  18  20
HETATM   20  C2  UNL     1      27.309   5.191  48.737  1.00  0.00     0.075 C 
HETATM   21  C1  UNL     1      26.453   6.211  48.560  1.00  0.00     0.053 C 
BRANCH  20  22
HETATM   22  C3  UNL     1      26.847   4.127  49.583  1.00  0.00    -0.047 C 
HETATM   23  C4  UNL     1      26.478   3.225  50.292  1.00  0.00    -0.064 C 
BRANCH  23  24
HETATM   24  C5  UNL     1      26.028   2.121  51.143  1.00  0.00     0.258 C 
HETATM   25  N1  UNL     1      24.612   2.094  51.140  1.00  0.00    -0.398 N 
HETATM   26  C6  UNL     1      23.926   2.198  52.353  1.00  0.00     0.142 C 
HETATM   27  H4  UNL     1      24.175   2.478  50.292  1.00  0.00     0.155 HD
HETATM   28  C7  UNL     1      24.637   2.791  53.507  1.00  0.00     0.198 C 
HETATM   29  O1  UNL     1      25.963   2.307  53.666  1.00  0.00    -0.318 OA
HETATM   30  C8  UNL     1      26.663   2.229  52.453  1.00  0.00     0.293 C 
HETATM   31  O2  UNL     1      27.931   2.243  52.329  1.00  0.00    -0.262 OA
ENDBRANCH  23  24
ENDBRANCH  20  22
ENDBRANCH  18  20
ENDBRANCH   1  18
TORSDOF 4
ENDMDL
