MODEL 1
REMARK VINA RESULT:      -9.1      0.000      0.000
REMARK  3 active torsions:
REMARK  status: ('A' for Active; 'I' for Inactive)
REMARK    1  A    between atoms: N1_1  and  C1_2 
REMARK    2  A    between atoms: C1_2  and  N2_4 
REMARK    3  A    between atoms: N2_4  and  N3_5 
ROOT
HETATM    1  N3  UNL     1      26.761   1.356  52.922  1.00  0.00    -0.181 NA
HETATM    2  C2  UNL     1      25.524   1.271  52.697  1.00  0.00     0.045 C 
HETATM    3  C3  UNL     1      24.214   0.712  52.991  1.00  0.00     0.079 C 
HETATM    4  C4  UNL     1      23.137   0.088  53.417  1.00  0.00    -0.054 A 
HETATM    5  C5  UNL     1      23.540  -0.805  54.527  1.00  0.00     0.063 A 
HETATM    6  C6  UNL     1      22.486  -1.649  55.070  1.00  0.00    -0.021 A 
HETATM    7  C7  UNL     1      21.297  -1.532  54.560  1.00  0.00     0.008 A 
HETATM    8  C8  UNL     1      20.999  -0.602  53.481  1.00  0.00    -0.025 A 
HETATM    9  C9  UNL     1      19.639  -0.746  53.214  1.00  0.00     0.012 A 
HETATM   10  C10 UNL     1      19.041   0.011  52.238  1.00  0.00     0.001 A 
HETATM   11  C11 UNL     1      19.887   0.882  51.587  1.00  0.00     0.008 A 
HETATM   12  C12 UNL     1      21.244   1.017  51.863  1.00  0.00    -0.043 A 
HETATM   13  C13 UNL     1      21.841   0.263  52.833  1.00  0.00    -0.016 A 
HETATM   14  C14 UNL     1      21.679   2.098  50.931  1.00  0.00     0.066 C 
HETATM   15  C15 UNL     1      21.091   3.365  51.505  1.00  0.00    -0.022 C 
HETATM   16  C16 UNL     1      21.912   4.163  52.125  1.00  0.00    -0.004 C 
HETATM   17  C17 UNL     1      23.337   4.079  52.382  1.00  0.00    -0.004 C 
HETATM   18  C18 UNL     1      24.372   3.297  52.123  1.00  0.00    -0.021 C 
HETATM   19  C19 UNL     1      25.143   2.175  51.584  1.00  0.00     0.084 C 
ENDROOT
BRANCH   1  20
HETATM   20  N2  UNL     1      27.330   0.582  53.938  1.00  0.00    -0.254 N 
HETATM   21  H3  UNL     1      26.854  -0.050  54.616  1.00  0.00     0.191 HD
BRANCH  20  22
HETATM   22  C1  UNL     1      28.744   0.657  54.076  1.00  0.00     0.185 C 
HETATM   23  S1  UNL     1      29.750  -0.583  53.726  1.00  0.00    -0.040 SA
BRANCH  22  24
HETATM   24  N1  UNL     1      29.445   1.813  54.529  1.00  0.00    -0.375 N 
HETATM   25  H1  UNL     1      29.941   2.327  55.313  1.00  0.00     0.158 HD
HETATM   26  H2  UNL     1      29.394   2.300  53.627  1.00  0.00     0.158 HD
ENDBRANCH  22  24
ENDBRANCH  20  22
ENDBRANCH   1  20
TORSDOF 3
ENDMDL
MODEL 2
REMARK VINA RESULT:      -9.1      1.740      2.402
REMARK  3 active torsions:
REMARK  status: ('A' for Active; 'I' for Inactive)
REMARK    1  A    between atoms: N1_1  and  C1_2 
REMARK    2  A    between atoms: C1_2  and  N2_4 
REMARK    3  A    between atoms: N2_4  and  N3_5 
ROOT
HETATM    1  N3  UNL     1      27.460   2.200  52.197  1.00  0.00    -0.181 NA
HETATM    2  C2  UNL     1      26.342   2.159  51.616  1.00  0.00     0.045 C 
HETATM    3  C3  UNL     1      24.938   1.778  51.584  1.00  0.00     0.079 C 
HETATM    4  C4  UNL     1      23.709   1.346  51.761  1.00  0.00    -0.054 A 
HETATM    5  C5  UNL     1      23.644   0.694  53.089  1.00  0.00     0.063 A 
HETATM    6  C6  UNL     1      22.371   0.073  53.423  1.00  0.00    -0.021 A 
HETATM    7  C7  UNL     1      21.410   0.161  52.554  1.00  0.00     0.008 A 
HETATM    8  C8  UNL     1      21.571   0.847  51.280  1.00  0.00    -0.025 A 
HETATM    9  C9  UNL     1      20.341   0.748  50.633  1.00  0.00     0.012 A 
HETATM   10  C10 UNL     1      20.163   1.311  49.394  1.00  0.00     0.001 A 
HETATM   11  C11 UNL     1      21.274   1.951  48.889  1.00  0.00     0.008 A 
HETATM   12  C12 UNL     1      22.498   2.043  49.546  1.00  0.00    -0.043 A 
HETATM   13  C13 UNL     1      22.676   1.482  50.778  1.00  0.00    -0.016 A 
HETATM   14  C14 UNL     1      23.331   2.855  48.611  1.00  0.00     0.066 C 
HETATM   15  C15 UNL     1      22.782   4.258  48.721  1.00  0.00    -0.022 C 
HETATM   16  C16 UNL     1      23.489   5.111  49.405  1.00  0.00    -0.004 C 
HETATM   17  C17 UNL     1      24.753   4.980  50.107  1.00  0.00    -0.004 C 
HETATM   18  C18 UNL     1      25.699   4.086  50.338  1.00  0.00    -0.021 C 
HETATM   19  C19 UNL     1      26.431   2.818  50.290  1.00  0.00     0.084 C 
ENDROOT
BRANCH   1  20
HETATM   20  N2  UNL     1      27.595   1.631  53.467  1.00  0.00    -0.254 N 
HETATM   21  H3  UNL     1      26.848   1.384  54.150  1.00  0.00     0.191 HD
BRANCH  20  22
HETATM   22  C1  UNL     1      28.922   1.347  53.896  1.00  0.00     0.185 C 
HETATM   23  S1  UNL     1      29.653  -0.095  53.665  1.00  0.00    -0.040 SA
BRANCH  22  24
HETATM   24  N1  UNL     1      29.763   2.280  54.570  1.00  0.00    -0.375 N 
HETATM   25  H1  UNL     1      30.507   3.034  54.523  1.00  0.00     0.158 HD
HETATM   26  H2  UNL     1      29.423   2.037  55.507  1.00  0.00     0.158 HD
ENDBRANCH  22  24
ENDBRANCH  20  22
ENDBRANCH   1  20
TORSDOF 3
ENDMDL
MODEL 3
REMARK VINA RESULT:      -8.9      3.138      5.014
REMARK  3 active torsions:
REMARK  status: ('A' for Active; 'I' for Inactive)
REMARK    1  A    between atoms: N1_1  and  C1_2 
REMARK    2  A    between atoms: C1_2  and  N2_4 
REMARK    3  A    between atoms: N2_4  and  N3_5 
ROOT
HETATM    1  N3  UNL     1      26.950   3.637  50.256  1.00  0.00    -0.181 NA
HETATM    2  C2  UNL     1      26.153   2.908  50.907  1.00  0.00     0.045 C 
HETATM    3  C3  UNL     1      24.852   2.279  51.072  1.00  0.00     0.079 C 
HETATM    4  C4  UNL     1      23.624   1.812  51.026  1.00  0.00    -0.054 A 
HETATM    5  C5  UNL     1      22.989   2.328  49.791  1.00  0.00     0.063 A 
HETATM    6  C6  UNL     1      21.586   1.984  49.614  1.00  0.00    -0.021 A 
HETATM    7  C7  UNL     1      21.026   1.246  50.525  1.00  0.00     0.008 A 
HETATM    8  C8  UNL     1      21.749   0.769  51.696  1.00  0.00    -0.025 A 
HETATM    9  C9  UNL     1      20.837   0.009  52.426  1.00  0.00     0.012 A 
HETATM   10  C10 UNL     1      21.222  -0.595  53.597  1.00  0.00     0.001 A 
HETATM   11  C11 UNL     1      22.535  -0.378  53.951  1.00  0.00     0.008 A 
HETATM   12  C12 UNL     1      23.436   0.383  53.213  1.00  0.00    -0.043 A 
HETATM   13  C13 UNL     1      23.055   0.986  52.048  1.00  0.00    -0.016 A 
HETATM   14  C14 UNL     1      24.704   0.267  53.990  1.00  0.00     0.066 C 
HETATM   15  C15 UNL     1      25.180  -1.146  53.748  1.00  0.00    -0.022 C 
HETATM   16  C16 UNL     1      26.177  -1.295  52.924  1.00  0.00    -0.004 C 
HETATM   17  C17 UNL     1      26.959  -0.336  52.165  1.00  0.00    -0.004 C 
HETATM   18  C18 UNL     1      27.068   0.969  51.983  1.00  0.00    -0.021 C 
HETATM   19  C19 UNL     1      26.811   2.402  52.136  1.00  0.00     0.084 C 
ENDROOT
BRANCH   1  20
HETATM   20  N2  UNL     1      26.527   4.218  49.057  1.00  0.00    -0.254 N 
HETATM   21  H3  UNL     1      26.504   3.797  48.105  1.00  0.00     0.191 HD
BRANCH  20  22
HETATM   22  C1  UNL     1      26.063   5.561  49.134  1.00  0.00     0.185 C 
HETATM   23  S1  UNL     1      24.526   6.002  48.799  1.00  0.00    -0.040 SA
BRANCH  22  24
HETATM   24  N1  UNL     1      26.876   6.670  49.509  1.00  0.00    -0.375 N 
HETATM   25  H1  UNL     1      27.064   7.478  50.168  1.00  0.00     0.158 HD
HETATM   26  H2  UNL     1      27.546   6.545  48.742  1.00  0.00     0.158 HD
ENDBRANCH  22  24
ENDBRANCH  20  22
ENDBRANCH   1  20
TORSDOF 3
ENDMDL
MODEL 4
REMARK VINA RESULT:      -8.7      4.560      6.464
REMARK  3 active torsions:
REMARK  status: ('A' for Active; 'I' for Inactive)
REMARK    1  A    between atoms: N1_1  and  C1_2 
REMARK    2  A    between atoms: C1_2  and  N2_4 
REMARK    3  A    between atoms: N2_4  and  N3_5 
ROOT
HETATM    1  N3  UNL     1      19.152   0.317  52.456  1.00  0.00    -0.181 NA
HETATM    2  C2  UNL     1      20.248   0.807  52.070  1.00  0.00     0.045 C 
HETATM    3  C3  UNL     1      21.702   0.841  52.088  1.00  0.00     0.079 C 
HETATM    4  C4  UNL     1      22.999   0.702  52.253  1.00  0.00    -0.054 A 
HETATM    5  C5  UNL     1      23.217  -0.402  53.215  1.00  0.00     0.063 A 
HETATM    6  C6  UNL     1      24.603  -0.645  53.590  1.00  0.00    -0.021 A 
HETATM    7  C7  UNL     1      25.515   0.098  53.040  1.00  0.00     0.008 A 
HETATM    8  C8  UNL     1      25.196   1.147  52.083  1.00  0.00    -0.025 A 
HETATM    9  C9  UNL     1      26.414   1.708  51.707  1.00  0.00     0.012 A 
HETATM   10  C10 UNL     1      26.452   2.733  50.795  1.00  0.00     0.001 A 
HETATM   11  C11 UNL     1      25.220   3.124  50.319  1.00  0.00     0.008 A 
HETATM   12  C12 UNL     1      24.009   2.555  50.701  1.00  0.00    -0.043 A 
HETATM   13  C13 UNL     1      23.970   1.535  51.611  1.00  0.00    -0.016 A 
HETATM   14  C14 UNL     1      23.006   3.292  49.879  1.00  0.00     0.066 C 
HETATM   15  C15 UNL     1      23.194   2.769  48.475  1.00  0.00    -0.022 C 
HETATM   16  C16 UNL     1      22.299   1.932  48.037  1.00  0.00    -0.004 C 
HETATM   17  C17 UNL     1      21.104   1.383  48.650  1.00  0.00    -0.004 C 
HETATM   18  C18 UNL     1      20.404   1.468  49.769  1.00  0.00    -0.021 C 
HETATM   19  C19 UNL     1      20.004   1.909  51.107  1.00  0.00     0.084 C 
ENDROOT
BRANCH   1  20
HETATM   20  N2  UNL     1      19.156  -0.739  53.371  1.00  0.00    -0.254 N 
HETATM   21  H3  UNL     1      19.908  -1.018  54.037  1.00  0.00     0.191 HD
BRANCH  20  22
HETATM   22  C1  UNL     1      17.986  -1.548  53.411  1.00  0.00     0.185 C 
HETATM   23  S1  UNL     1      16.610  -1.181  52.608  1.00  0.00    -0.040 SA
BRANCH  22  24
HETATM   24  N1  UNL     1      17.876  -2.764  54.147  1.00  0.00    -0.375 N 
HETATM   25  H1  UNL     1      18.287  -3.441  54.852  1.00  0.00     0.158 HD
HETATM   26  H2  UNL     1      16.966  -3.020  53.749  1.00  0.00     0.158 HD
ENDBRANCH  22  24
ENDBRANCH  20  22
ENDBRANCH   1  20
TORSDOF 3
ENDMDL
MODEL 5
REMARK VINA RESULT:      -8.6      2.949      4.073
REMARK  3 active torsions:
REMARK  status: ('A' for Active; 'I' for Inactive)
REMARK    1  A    between atoms: N1_1  and  C1_2 
REMARK    2  A    between atoms: C1_2  and  N2_4 
REMARK    3  A    between atoms: N2_4  and  N3_5 
ROOT
HETATM    1  N3  UNL     1      24.920   3.532  49.374  1.00  0.00    -0.181 NA
HETATM    2  C2  UNL     1      24.268   2.764  50.131  1.00  0.00     0.045 C 
HETATM    3  C3  UNL     1      24.191   1.876  51.280  1.00  0.00     0.079 C 
HETATM    4  C4  UNL     1      24.341   1.118  52.344  1.00  0.00    -0.054 A 
HETATM    5  C5  UNL     1      25.755   1.218  52.775  1.00  0.00     0.063 A 
HETATM    6  C6  UNL     1      26.132   0.371  53.897  1.00  0.00    -0.021 A 
HETATM    7  C7  UNL     1      25.208  -0.370  54.430  1.00  0.00     0.008 A 
HETATM    8  C8  UNL     1      23.836  -0.378  53.944  1.00  0.00    -0.025 A 
HETATM    9  C9  UNL     1      23.144  -1.269  54.761  1.00  0.00     0.012 A 
HETATM   10  C10 UNL     1      21.805  -1.495  54.561  1.00  0.00     0.001 A 
HETATM   11  C11 UNL     1      21.251  -0.782  53.520  1.00  0.00     0.008 A 
HETATM   12  C12 UNL     1      21.953   0.106  52.711  1.00  0.00    -0.043 A 
HETATM   13  C13 UNL     1      23.287   0.331  52.908  1.00  0.00    -0.016 A 
HETATM   14  C14 UNL     1      20.906   0.634  51.788  1.00  0.00     0.066 C 
HETATM   15  C15 UNL     1      20.063   1.551  52.641  1.00  0.00    -0.022 C 
HETATM   16  C16 UNL     1      20.239   2.830  52.477  1.00  0.00    -0.004 C 
HETATM   17  C17 UNL     1      21.116   3.583  51.599  1.00  0.00    -0.004 C 
HETATM   18  C18 UNL     1      22.008   3.388  50.642  1.00  0.00    -0.021 C 
HETATM   19  C19 UNL     1      22.857   2.681  49.681  1.00  0.00     0.084 C 
ENDROOT
BRANCH   1  20
HETATM   20  N2  UNL     1      26.278   3.752  49.623  1.00  0.00    -0.254 N 
HETATM   21  H3  UNL     1      26.955   3.133  50.117  1.00  0.00     0.191 HD
BRANCH  20  22
HETATM   22  C1  UNL     1      26.821   4.976  49.142  1.00  0.00     0.185 C 
HETATM   23  S1  UNL     1      25.914   6.297  48.819  1.00  0.00    -0.040 SA
BRANCH  22  24
HETATM   24  N1  UNL     1      28.206   5.194  48.888  1.00  0.00    -0.375 N 
HETATM   25  H1  UNL     1      29.047   5.839  48.922  1.00  0.00     0.158 HD
HETATM   26  H2  UNL     1      28.369   4.256  48.505  1.00  0.00     0.158 HD
ENDBRANCH  22  24
ENDBRANCH  20  22
ENDBRANCH   1  20
TORSDOF 3
ENDMDL
MODEL 6
REMARK VINA RESULT:      -8.5      3.342      5.214
REMARK  3 active torsions:
REMARK  status: ('A' for Active; 'I' for Inactive)
REMARK    1  A    between atoms: N1_1  and  C1_2 
REMARK    2  A    between atoms: C1_2  and  N2_4 
REMARK    3  A    between atoms: N2_4  and  N3_5 
ROOT
HETATM    1  N3  UNL     1      25.219   3.862  49.909  1.00  0.00    -0.181 NA
HETATM    2  C2  UNL     1      24.851   2.997  50.749  1.00  0.00     0.045 C 
HETATM    3  C3  UNL     1      23.856   2.072  51.269  1.00  0.00     0.079 C 
HETATM    4  C4  UNL     1      22.827   1.311  51.569  1.00  0.00    -0.054 A 
HETATM    5  C5  UNL     1      21.761   1.578  50.576  1.00  0.00     0.063 A 
HETATM    6  C6  UNL     1      20.502   0.883  50.802  1.00  0.00    -0.021 A 
HETATM    7  C7  UNL     1      20.429   0.084  51.823  1.00  0.00     0.008 A 
HETATM    8  C8  UNL     1      21.548  -0.128  52.730  1.00  0.00    -0.025 A 
HETATM    9  C9  UNL     1      21.106  -1.048  53.679  1.00  0.00     0.012 A 
HETATM   10  C10 UNL     1      21.944  -1.466  54.681  1.00  0.00     0.001 A 
HETATM   11  C11 UNL     1      23.203  -0.906  54.648  1.00  0.00     0.008 A 
HETATM   12  C12 UNL     1      23.633   0.012  53.695  1.00  0.00    -0.043 A 
HETATM   13  C13 UNL     1      22.799   0.430  52.697  1.00  0.00    -0.016 A 
HETATM   14  C14 UNL     1      25.054   0.263  54.075  1.00  0.00     0.066 C 
HETATM   15  C15 UNL     1      25.789  -0.998  53.684  1.00  0.00    -0.022 C 
HETATM   16  C16 UNL     1      26.518  -0.941  52.607  1.00  0.00    -0.004 C 
HETATM   17  C17 UNL     1      26.782   0.137  51.672  1.00  0.00    -0.004 C 
HETATM   18  C18 UNL     1      26.498   1.415  51.487  1.00  0.00    -0.021 C 
HETATM   19  C19 UNL     1      25.934   2.745  51.730  1.00  0.00     0.084 C 
ENDROOT
BRANCH   1  20
HETATM   20  N2  UNL     1      24.342   4.247  48.890  1.00  0.00    -0.254 N 
HETATM   21  H3  UNL     1      24.305   3.912  47.905  1.00  0.00     0.191 HD
BRANCH  20  22
HETATM   22  C1  UNL     1      23.365   5.225  49.231  1.00  0.00     0.185 C 
HETATM   23  S1  UNL     1      21.783   5.087  48.850  1.00  0.00    -0.040 SA
BRANCH  22  24
HETATM   24  N1  UNL     1      23.650   6.428  49.941  1.00  0.00    -0.375 N 
HETATM   25  H1  UNL     1      24.119   7.378  49.969  1.00  0.00     0.158 HD
HETATM   26  H2  UNL     1      23.125   6.155  50.780  1.00  0.00     0.158 HD
ENDBRANCH  22  24
ENDBRANCH  20  22
ENDBRANCH   1  20
TORSDOF 3
ENDMDL
MODEL 7
REMARK VINA RESULT:      -8.5      3.575      4.754
REMARK  3 active torsions:
REMARK  status: ('A' for Active; 'I' for Inactive)
REMARK    1  A    between atoms: N1_1  and  C1_2 
REMARK    2  A    between atoms: C1_2  and  N2_4 
REMARK    3  A    between atoms: N2_4  and  N3_5 
ROOT
HETATM    1  N3  UNL     1      26.536   5.117  48.956  1.00  0.00    -0.181 NA
HETATM    2  C2  UNL     1      25.760   4.335  49.568  1.00  0.00     0.045 C 
HETATM    3  C3  UNL     1      25.533   3.236  50.493  1.00  0.00     0.079 C 
HETATM    4  C4  UNL     1      25.553   2.237  51.349  1.00  0.00    -0.054 A 
HETATM    5  C5  UNL     1      26.967   1.960  51.689  1.00  0.00     0.063 A 
HETATM    6  C6  UNL     1      27.192   0.819  52.564  1.00  0.00    -0.021 A 
HETATM    7  C7  UNL     1      26.151   0.167  52.985  1.00  0.00     0.008 A 
HETATM    8  C8  UNL     1      24.794   0.537  52.608  1.00  0.00    -0.025 A 
HETATM    9  C9  UNL     1      23.955  -0.369  53.254  1.00  0.00     0.012 A 
HETATM   10  C10 UNL     1      22.594  -0.280  53.105  1.00  0.00     0.001 A 
HETATM   11  C11 UNL     1      22.171   0.749  52.292  1.00  0.00     0.008 A 
HETATM   12  C12 UNL     1      23.019   1.648  51.652  1.00  0.00    -0.043 A 
HETATM   13  C13 UNL     1      24.374   1.559  51.798  1.00  0.00    -0.016 A 
HETATM   14  C14 UNL     1      22.078   2.567  50.947  1.00  0.00     0.066 C 
HETATM   15  C15 UNL     1      21.462   3.406  52.041  1.00  0.00    -0.022 C 
HETATM   16  C16 UNL     1      21.892   4.629  52.154  1.00  0.00    -0.004 C 
HETATM   17  C17 UNL     1      22.880   5.382  51.404  1.00  0.00    -0.004 C 
HETATM   18  C18 UNL     1      23.689   5.246  50.366  1.00  0.00    -0.021 C 
HETATM   19  C19 UNL     1      24.351   4.631  49.214  1.00  0.00     0.084 C 
ENDROOT
BRANCH   1  20
HETATM   20  N2  UNL     1      27.917   5.006  49.149  1.00  0.00    -0.254 N 
HETATM   21  H3  UNL     1      28.430   4.416  49.837  1.00  0.00     0.191 HD
BRANCH  20  22
HETATM   22  C1  UNL     1      28.740   5.797  48.300  1.00  0.00     0.185 C 
HETATM   23  S1  UNL     1      28.266   7.225  47.661  1.00  0.00    -0.040 SA
BRANCH  22  24
HETATM   24  N1  UNL     1      30.065   5.442  47.911  1.00  0.00    -0.375 N 
HETATM   25  H1  UNL     1      31.015   5.736  47.544  1.00  0.00     0.158 HD
HETATM   26  H2  UNL     1      29.945   4.443  48.112  1.00  0.00     0.158 HD
ENDBRANCH  22  24
ENDBRANCH  20  22
ENDBRANCH   1  20
TORSDOF 3
ENDMDL
MODEL 8
REMARK VINA RESULT:      -8.2      3.933      6.093
REMARK  3 active torsions:
REMARK  status: ('A' for Active; 'I' for Inactive)
REMARK    1  A    between atoms: N1_1  and  C1_2 
REMARK    2  A    between atoms: C1_2  and  N2_4 
REMARK    3  A    between atoms: N2_4  and  N3_5 
ROOT
HETATM    1  N3  UNL     1      21.399   2.011  48.900  1.00  0.00    -0.181 NA
HETATM    2  C2  UNL     1      21.954   1.510  49.915  1.00  0.00     0.045 C 
HETATM    3  C3  UNL     1      23.065   1.437  50.850  1.00  0.00     0.079 C 
HETATM    4  C4  UNL     1      24.162   1.535  51.570  1.00  0.00    -0.054 A 
HETATM    5  C5  UNL     1      25.008   2.590  50.965  1.00  0.00     0.063 A 
HETATM    6  C6  UNL     1      26.313   2.780  51.581  1.00  0.00    -0.021 A 
HETATM    7  C7  UNL     1      26.610   2.038  52.605  1.00  0.00     0.008 A 
HETATM    8  C8  UNL     1      25.693   1.041  53.139  1.00  0.00    -0.025 A 
HETATM    9  C9  UNL     1      26.345   0.464  54.228  1.00  0.00     0.012 A 
HETATM   10  C10 UNL     1      25.729  -0.520  54.960  1.00  0.00     0.001 A 
HETATM   11  C11 UNL     1      24.467  -0.856  54.524  1.00  0.00     0.008 A 
HETATM   12  C12 UNL     1      23.827  -0.273  53.435  1.00  0.00    -0.043 A 
HETATM   13  C13 UNL     1      24.439   0.706  52.703  1.00  0.00    -0.016 A 
HETATM   14  C14 UNL     1      22.496  -0.947  53.415  1.00  0.00     0.066 C 
HETATM   15  C15 UNL     1      21.750  -0.368  54.593  1.00  0.00    -0.022 C 
HETATM   16  C16 UNL     1      20.827   0.511  54.327  1.00  0.00    -0.004 C 
HETATM   17  C17 UNL     1      20.348   1.064  53.074  1.00  0.00    -0.004 C 
HETATM   18  C18 UNL     1      20.542   0.947  51.771  1.00  0.00    -0.021 C 
HETATM   19  C19 UNL     1      21.089   0.459  50.504  1.00  0.00     0.084 C 
ENDROOT
BRANCH   1  20
HETATM   20  N2  UNL     1      22.050   3.026  48.191  1.00  0.00    -0.254 N 
HETATM   21  H3  UNL     1      22.559   2.961  47.285  1.00  0.00     0.191 HD
BRANCH  20  22
HETATM   22  C1  UNL     1      22.020   4.324  48.774  1.00  0.00     0.185 C 
HETATM   23  S1  UNL     1      23.323   5.307  48.850  1.00  0.00    -0.040 SA
BRANCH  22  24
HETATM   24  N1  UNL     1      20.859   4.916  49.352  1.00  0.00    -0.375 N 
HETATM   25  H1  UNL     1      20.271   5.113  50.212  1.00  0.00     0.158 HD
HETATM   26  H2  UNL     1      20.505   5.289  48.465  1.00  0.00     0.158 HD
ENDBRANCH  22  24
ENDBRANCH  20  22
ENDBRANCH   1  20
TORSDOF 3
ENDMDL
MODEL 9
REMARK VINA RESULT:      -8.1      1.971      2.537
REMARK  3 active torsions:
REMARK  status: ('A' for Active; 'I' for Inactive)
REMARK    1  A    between atoms: N1_1  and  C1_2 
REMARK    2  A    between atoms: C1_2  and  N2_4 
REMARK    3  A    between atoms: N2_4  and  N3_5 
ROOT
HETATM    1  N3  UNL     1      24.683   2.201  50.824  1.00  0.00    -0.181 NA
HETATM    2  C2  UNL     1      23.507   1.799  51.033  1.00  0.00     0.045 C 
HETATM    3  C3  UNL     1      22.551   0.999  51.782  1.00  0.00     0.079 C 
HETATM    4  C4  UNL     1      21.867   0.210  52.581  1.00  0.00    -0.054 A 
HETATM    5  C5  UNL     1      22.816  -0.395  53.544  1.00  0.00     0.063 A 
HETATM    6  C6  UNL     1      22.247  -1.373  54.458  1.00  0.00    -0.021 A 
HETATM    7  C7  UNL     1      20.973  -1.612  54.371  1.00  0.00     0.008 A 
HETATM    8  C8  UNL     1      20.119  -0.943  53.399  1.00  0.00    -0.025 A 
HETATM    9  C9  UNL     1      18.834  -1.438  53.613  1.00  0.00     0.012 A 
HETATM   10  C10 UNL     1      17.785  -0.990  52.850  1.00  0.00     0.001 A 
HETATM   11  C11 UNL     1      18.124  -0.050  51.902  1.00  0.00     0.008 A 
HETATM   12  C12 UNL     1      19.411   0.436  51.698  1.00  0.00    -0.043 A 
HETATM   13  C13 UNL     1      20.457  -0.009  52.456  1.00  0.00    -0.016 A 
HETATM   14  C14 UNL     1      19.232   1.443  50.611  1.00  0.00     0.066 C 
HETATM   15  C15 UNL     1      18.532   2.607  51.271  1.00  0.00    -0.022 C 
HETATM   16  C16 UNL     1      19.259   3.655  51.531  1.00  0.00    -0.004 C 
HETATM   17  C17 UNL     1      20.663   3.943  51.299  1.00  0.00    -0.004 C 
HETATM   18  C18 UNL     1      21.737   3.395  50.757  1.00  0.00    -0.021 C 
HETATM   19  C19 UNL     1      22.575   2.418  50.059  1.00  0.00     0.084 C 
ENDROOT
BRANCH   1  20
HETATM   20  N2  UNL     1      25.723   1.737  51.636  1.00  0.00    -0.254 N 
HETATM   21  H3  UNL     1      26.555   1.173  51.364  1.00  0.00     0.191 HD
BRANCH  20  22
HETATM   22  C1  UNL     1      25.646   2.073  53.017  1.00  0.00     0.185 C 
HETATM   23  S1  UNL     1      26.304   1.161  54.202  1.00  0.00    -0.040 SA
BRANCH  22  24
HETATM   24  N1  UNL     1      24.993   3.234  53.524  1.00  0.00    -0.375 N 
HETATM   25  H1  UNL     1      25.060   4.192  53.973  1.00  0.00     0.158 HD
HETATM   26  H2  UNL     1      24.047   2.895  53.316  1.00  0.00     0.158 HD
ENDBRANCH  22  24
ENDBRANCH  20  22
ENDBRANCH   1  20
TORSDOF 3
ENDMDL
