MODEL 1
REMARK VINA RESULT:      -9.4      0.000      0.000
REMARK  1 active torsions:
REMARK  status: ('A' for Active; 'I' for Inactive)
REMARK       I    between atoms: C1_2  and  N1_3 
REMARK    1  A    between atoms: C1_2  and  C17_22 
ROOT
HETATM    1  O1  UNL     1      25.436  -0.244  53.591  1.00  0.00    -0.259 OA
HETATM    2  C1  UNL     1      26.146   0.180  52.638  1.00  0.00     0.355 C 
HETATM    3  N1  UNL     1      25.726   1.206  51.540  1.00  0.00     0.036 N 
HETATM    4  C2  UNL     1      24.603   1.066  52.404  1.00  0.00     0.157 A 
HETATM    5  C3  UNL     1      23.522   0.923  53.069  1.00  0.00     0.035 C 
HETATM    6  C4  UNL     1      22.064   0.677  52.820  1.00  0.00    -0.002 C 
HETATM    7  C5  UNL     1      21.037   0.489  51.995  1.00  0.00    -0.023 C 
HETATM    8  C6  UNL     1      19.804   0.267  51.236  1.00  0.00     0.054 C 
HETATM    9  C7  UNL     1      19.530   1.405  50.266  1.00  0.00    -0.027 C 
HETATM   10  C8  UNL     1      18.650   2.418  49.962  1.00  0.00    -0.030 C 
HETATM   11  C9  UNL     1      18.135   3.589  49.180  1.00  0.00     0.033 C 
HETATM   12  C10 UNL     1      19.298   3.837  48.209  1.00  0.00     0.063 C 
HETATM   13  C11 UNL     1      20.544   4.045  49.006  1.00  0.00     0.038 A 
HETATM   14  C12 UNL     1      20.544   5.175  49.711  1.00  0.00     0.046 A 
HETATM   15  C13 UNL     1      21.175   5.936  50.648  1.00  0.00     0.120 A 
HETATM   16  N2  UNL     1      22.224   5.057  50.891  1.00  0.00    -0.244 NA
HETATM   17  C14 UNL     1      22.392   3.876  50.272  1.00  0.00     0.147 A 
HETATM   18  N3  UNL     1      21.647   3.231  49.300  1.00  0.00    -0.236 NA
HETATM   19  C15 UNL     1      23.385   2.918  50.836  1.00  0.00     0.119 C 
HETATM   20 CL1  UNL     1      23.025   3.070  52.625  1.00  0.00    -0.114 Cl
HETATM   21  C16 UNL     1      24.350   2.091  51.236  1.00  0.00     0.357 A 
HETATM   22  H1  UNL     1      26.655   0.817  51.314  1.00  0.00     0.298 HD
ENDROOT
BRANCH   2  23
HETATM   23  C17 UNL     1      27.425  -0.535  52.897  1.00  0.00     0.040 A 
HETATM   24  C18 UNL     1      27.469  -1.957  52.741  1.00  0.00     0.017 A 
HETATM   25  C19 UNL     1      28.603  -2.761  53.014  1.00  0.00     0.001 A 
HETATM   26  C20 UNL     1      29.735  -1.907  53.489  1.00  0.00     0.000 A 
HETATM   27  C21 UNL     1      29.842  -0.537  53.693  1.00  0.00     0.001 A 
HETATM   28  C22 UNL     1      28.611  -0.272  53.321  1.00  0.00     0.017 A 
ENDBRANCH   2  23
TORSDOF 1
ENDMDL
MODEL 2
REMARK VINA RESULT:      -9.3      6.915      9.118
REMARK  1 active torsions:
REMARK  status: ('A' for Active; 'I' for Inactive)
REMARK       I    between atoms: C1_2  and  N1_3 
REMARK    1  A    between atoms: C1_2  and  C17_22 
ROOT
HETATM    1  O1  UNL     1      26.298   3.382  49.396  1.00  0.00    -0.259 OA
HETATM    2  C1  UNL     1      25.593   4.067  50.187  1.00  0.00     0.355 C 
HETATM    3  N1  UNL     1      25.607   5.619  50.353  1.00  0.00     0.036 N 
HETATM    4  C2  UNL     1      26.549   5.318  49.328  1.00  0.00     0.157 A 
HETATM    5  C3  UNL     1      27.479   5.129  48.474  1.00  0.00     0.035 C 
HETATM    6  C4  UNL     1      28.898   5.550  48.233  1.00  0.00    -0.002 C 
HETATM    7  C5  UNL     1      29.983   6.241  48.572  1.00  0.00    -0.023 C 
HETATM    8  C6  UNL     1      31.257   6.930  48.800  1.00  0.00     0.054 C 
HETATM    9  C7  UNL     1      31.075   8.438  48.864  1.00  0.00    -0.027 C 
HETATM   10  C8  UNL     1      31.400   9.623  48.248  1.00  0.00    -0.030 C 
HETATM   11  C9  UNL     1      31.390  11.110  48.058  1.00  0.00     0.033 C 
HETATM   12  C10 UNL     1      30.375  11.543  49.126  1.00  0.00     0.063 C 
HETATM   13  C11 UNL     1      29.093  10.816  48.882  1.00  0.00     0.038 A 
HETATM   14  C12 UNL     1      28.473  11.189  47.764  1.00  0.00     0.046 A 
HETATM   15  C13 UNL     1      27.450  10.960  46.895  1.00  0.00     0.120 A 
HETATM   16  N2  UNL     1      26.920   9.857  47.556  1.00  0.00    -0.244 NA
HETATM   17  C14 UNL     1      27.407   9.343  48.698  1.00  0.00     0.147 A 
HETATM   18  N3  UNL     1      28.480   9.712  49.491  1.00  0.00    -0.236 NA
HETATM   19  C15 UNL     1      26.926   8.000  49.130  1.00  0.00     0.119 C 
HETATM   20 CL1  UNL     1      26.952   7.101  47.535  1.00  0.00    -0.114 Cl
HETATM   21  C16 UNL     1      26.426   6.862  49.611  1.00  0.00     0.357 A 
HETATM   22  H1  UNL     1      25.008   5.197  51.081  1.00  0.00     0.298 HD
ENDROOT
BRANCH   2  23
HETATM   23  C17 UNL     1      24.784   3.002  50.840  1.00  0.00     0.040 A 
HETATM   24  C18 UNL     1      23.558   2.588  50.229  1.00  0.00     0.017 A 
HETATM   25  C19 UNL     1      22.668   1.632  50.779  1.00  0.00     0.001 A 
HETATM   26  C20 UNL     1      23.199   1.128  52.083  1.00  0.00     0.000 A 
HETATM   27  C21 UNL     1      24.352   1.431  52.796  1.00  0.00     0.001 A 
HETATM   28  C22 UNL     1      24.797   2.303  51.921  1.00  0.00     0.017 A 
ENDBRANCH   2  23
TORSDOF 1
ENDMDL
MODEL 3
REMARK VINA RESULT:      -9.3      1.958      2.852
REMARK  1 active torsions:
REMARK  status: ('A' for Active; 'I' for Inactive)
REMARK       I    between atoms: C1_2  and  N1_3 
REMARK    1  A    between atoms: C1_2  and  C17_22 
ROOT
HETATM    1  O1  UNL     1      25.277  -0.411  54.558  1.00  0.00    -0.259 OA
HETATM    2  C1  UNL     1      25.626  -0.186  53.366  1.00  0.00     0.355 C 
HETATM    3  N1  UNL     1      24.715   0.301  52.197  1.00  0.00     0.036 N 
HETATM    4  C2  UNL     1      23.879   0.219  53.347  1.00  0.00     0.157 A 
HETATM    5  C3  UNL     1      23.042   0.077  54.301  1.00  0.00     0.035 C 
HETATM    6  C4  UNL     1      21.700  -0.544  54.547  1.00  0.00    -0.002 C 
HETATM    7  C5  UNL     1      20.629  -1.211  54.126  1.00  0.00    -0.023 C 
HETATM    8  C6  UNL     1      19.387  -1.932  53.832  1.00  0.00     0.054 C 
HETATM    9  C7  UNL     1      18.605  -1.268  52.710  1.00  0.00    -0.027 C 
HETATM   10  C8  UNL     1      17.427  -0.628  52.406  1.00  0.00    -0.030 C 
HETATM   11  C9  UNL     1      16.447   0.078  51.517  1.00  0.00     0.033 C 
HETATM   12  C10 UNL     1      17.268   0.232  50.228  1.00  0.00     0.063 C 
HETATM   13  C11 UNL     1      18.533   0.955  50.557  1.00  0.00     0.038 A 
HETATM   14  C12 UNL     1      18.346   2.227  50.904  1.00  0.00     0.046 A 
HETATM   15  C13 UNL     1      18.903   3.373  51.387  1.00  0.00     0.120 A 
HETATM   16  N2  UNL     1      20.189   2.872  51.551  1.00  0.00    -0.244 NA
HETATM   17  C14 UNL     1      20.565   1.618  51.250  1.00  0.00     0.147 A 
HETATM   18  N3  UNL     1      19.861   0.541  50.736  1.00  0.00    -0.236 NA
HETATM   19  C15 UNL     1      21.886   1.137  51.747  1.00  0.00     0.119 C 
HETATM   20 CL1  UNL     1      21.863   1.794  53.457  1.00  0.00    -0.114 Cl
HETATM   21  C16 UNL     1      23.110   0.718  52.067  1.00  0.00     0.357 A 
HETATM   22  H1  UNL     1      25.652   0.067  51.832  1.00  0.00     0.298 HD
ENDROOT
BRANCH   2  23
HETATM   23  C17 UNL     1      27.083  -0.483  53.437  1.00  0.00     0.040 A 
HETATM   24  C18 UNL     1      27.988   0.564  53.799  1.00  0.00     0.017 A 
HETATM   25  C19 UNL     1      29.398   0.430  53.843  1.00  0.00     0.001 A 
HETATM   26  C20 UNL     1      29.792  -0.961  53.457  1.00  0.00     0.000 A 
HETATM   27  C21 UNL     1      29.043  -2.068  53.082  1.00  0.00     0.001 A 
HETATM   28  C22 UNL     1      27.884  -1.461  53.194  1.00  0.00     0.017 A 
ENDBRANCH   2  23
TORSDOF 1
ENDMDL
MODEL 4
REMARK VINA RESULT:      -9.2      3.936      6.509
REMARK  1 active torsions:
REMARK  status: ('A' for Active; 'I' for Inactive)
REMARK       I    between atoms: C1_2  and  N1_3 
REMARK    1  A    between atoms: C1_2  and  C17_22 
ROOT
HETATM    1  O1  UNL     1      23.321   1.436  51.230  1.00  0.00    -0.259 OA
HETATM    2  C1  UNL     1      23.013   2.124  52.242  1.00  0.00     0.355 C 
HETATM    3  N1  UNL     1      23.113   3.674  52.389  1.00  0.00     0.036 N 
HETATM    4  C2  UNL     1      23.546   3.370  51.067  1.00  0.00     0.157 A 
HETATM    5  C3  UNL     1      24.040   3.176  49.906  1.00  0.00     0.035 C 
HETATM    6  C4  UNL     1      25.239   3.583  49.103  1.00  0.00    -0.002 C 
HETATM    7  C5  UNL     1      26.377   4.260  48.967  1.00  0.00    -0.023 C 
HETATM    8  C6  UNL     1      27.639   4.933  48.651  1.00  0.00     0.054 C 
HETATM    9  C7  UNL     1      27.519   6.443  48.787  1.00  0.00    -0.027 C 
HETATM   10  C8  UNL     1      27.577   7.628  48.093  1.00  0.00    -0.030 C 
HETATM   11  C9  UNL     1      27.509   9.117  47.926  1.00  0.00     0.033 C 
HETATM   12  C10 UNL     1      27.029   9.553  49.318  1.00  0.00     0.063 C 
HETATM   13  C11 UNL     1      25.750   8.842  49.622  1.00  0.00     0.038 A 
HETATM   14  C12 UNL     1      24.731   9.230  48.858  1.00  0.00     0.046 A 
HETATM   15  C13 UNL     1      23.437   9.017  48.487  1.00  0.00     0.120 A 
HETATM   16  N2  UNL     1      23.212   7.916  49.305  1.00  0.00    -0.244 NA
HETATM   17  C14 UNL     1      24.119   7.389  50.145  1.00  0.00     0.147 A 
HETATM   18  N3  UNL     1      25.429   7.741  50.427  1.00  0.00    -0.236 NA
HETATM   19  C15 UNL     1      23.842   6.049  50.736  1.00  0.00     0.119 C 
HETATM   20 CL1  UNL     1      23.198   5.160  49.269  1.00  0.00    -0.114 Cl
HETATM   21  C16 UNL     1      23.570   4.913  51.378  1.00  0.00     0.357 A 
HETATM   22  H1  UNL     1      22.861   3.255  53.298  1.00  0.00     0.298 HD
ENDROOT
BRANCH   2  23
HETATM   23  C17 UNL     1      22.530   1.064  53.168  1.00  0.00     0.040 A 
HETATM   24  C18 UNL     1      23.452   0.068  53.623  1.00  0.00     0.017 A 
HETATM   25  C19 UNL     1      23.107  -1.027  54.455  1.00  0.00     0.001 A 
HETATM   26  C20 UNL     1      21.648  -0.984  54.780  1.00  0.00     0.000 A 
HETATM   27  C21 UNL     1      20.641  -0.099  54.417  1.00  0.00     0.001 A 
HETATM   28  C22 UNL     1      21.425   0.673  53.700  1.00  0.00     0.017 A 
ENDBRANCH   2  23
TORSDOF 1
ENDMDL
MODEL 5
REMARK VINA RESULT:      -9.1      2.545      4.516
REMARK  1 active torsions:
REMARK  status: ('A' for Active; 'I' for Inactive)
REMARK       I    between atoms: C1_2  and  N1_3 
REMARK    1  A    between atoms: C1_2  and  C17_22 
ROOT
HETATM    1  O1  UNL     1      27.168   2.519  50.926  1.00  0.00    -0.259 OA
HETATM    2  C1  UNL     1      26.370   2.171  51.839  1.00  0.00     0.355 C 
HETATM    3  N1  UNL     1      24.894   2.641  52.026  1.00  0.00     0.036 N 
HETATM    4  C2  UNL     1      25.371   3.282  50.847  1.00  0.00     0.157 A 
HETATM    5  C3  UNL     1      25.749   3.970  49.840  1.00  0.00     0.035 C 
HETATM    6  C4  UNL     1      25.713   5.391  49.362  1.00  0.00    -0.002 C 
HETATM    7  C5  UNL     1      25.364   6.665  49.517  1.00  0.00    -0.023 C 
HETATM    8  C6  UNL     1      25.062   8.099  49.530  1.00  0.00     0.054 C 
HETATM    9  C7  UNL     1      23.568   8.356  49.651  1.00  0.00    -0.027 C 
HETATM   10  C8  UNL     1      22.477   8.891  49.007  1.00  0.00    -0.030 C 
HETATM   11  C9  UNL     1      21.034   9.264  48.846  1.00  0.00     0.033 C 
HETATM   12  C10 UNL     1      20.413   8.598  50.083  1.00  0.00     0.063 C 
HETATM   13  C11 UNL     1      20.749   7.142  50.055  1.00  0.00     0.038 A 
HETATM   14  C12 UNL     1      20.150   6.476  49.069  1.00  0.00     0.046 A 
HETATM   15  C13 UNL     1      20.038   5.301  48.389  1.00  0.00     0.120 A 
HETATM   16  N2  UNL     1      20.997   4.602  49.114  1.00  0.00    -0.244 NA
HETATM   17  C14 UNL     1      21.696   5.107  50.144  1.00  0.00     0.147 A 
HETATM   18  N3  UNL     1      21.683   6.356  50.743  1.00  0.00    -0.236 NA
HETATM   19  C15 UNL     1      22.884   4.350  50.632  1.00  0.00     0.119 C 
HETATM   20 CL1  UNL     1      23.651   3.864  49.041  1.00  0.00    -0.114 Cl
HETATM   21  C16 UNL     1      23.873   3.640  51.173  1.00  0.00     0.357 A 
HETATM   22  H1  UNL     1      25.183   2.076  52.840  1.00  0.00     0.298 HD
ENDROOT
BRANCH   2  23
HETATM   23  C17 UNL     1      27.216   1.216  52.606  1.00  0.00     0.040 A 
HETATM   24  C18 UNL     1      28.233   1.730  53.472  1.00  0.00     0.017 A 
HETATM   25  C19 UNL     1      29.143   0.931  54.207  1.00  0.00     0.001 A 
HETATM   26  C20 UNL     1      28.883  -0.518  53.942  1.00  0.00     0.000 A 
HETATM   27  C21 UNL     1      27.952  -1.162  53.138  1.00  0.00     0.001 A 
HETATM   28  C22 UNL     1      27.392  -0.055  52.707  1.00  0.00     0.017 A 
ENDBRANCH   2  23
TORSDOF 1
ENDMDL
MODEL 6
REMARK VINA RESULT:      -9.0      2.395      3.056
REMARK  1 active torsions:
REMARK  status: ('A' for Active; 'I' for Inactive)
REMARK       I    between atoms: C1_2  and  N1_3 
REMARK    1  A    between atoms: C1_2  and  C17_22 
ROOT
HETATM    1  O1  UNL     1      25.282   0.753  51.934  1.00  0.00    -0.259 OA
HETATM    2  C1  UNL     1      26.223   1.592  51.985  1.00  0.00     0.355 C 
HETATM    3  N1  UNL     1      26.176   3.083  51.529  1.00  0.00     0.036 N 
HETATM    4  C2  UNL     1      24.873   2.555  51.302  1.00  0.00     0.157 A 
HETATM    5  C3  UNL     1      23.712   2.136  50.975  1.00  0.00     0.035 C 
HETATM    6  C4  UNL     1      22.785   2.171  49.797  1.00  0.00    -0.002 C 
HETATM    7  C5  UNL     1      22.490   2.549  48.556  1.00  0.00    -0.023 C 
HETATM    8  C6  UNL     1      22.010   2.877  47.210  1.00  0.00     0.054 C 
HETATM    9  C7  UNL     1      21.972   4.379  46.979  1.00  0.00    -0.027 C 
HETATM   10  C8  UNL     1      21.138   5.442  46.725  1.00  0.00    -0.030 C 
HETATM   11  C9  UNL     1      20.799   6.882  46.476  1.00  0.00     0.033 C 
HETATM   12  C10 UNL     1      22.158   7.556  46.714  1.00  0.00     0.063 C 
HETATM   13  C11 UNL     1      22.632   7.194  48.084  1.00  0.00     0.038 A 
HETATM   14  C12 UNL     1      21.900   7.728  49.059  1.00  0.00     0.046 A 
HETATM   15  C13 UNL     1      21.647   7.784  50.397  1.00  0.00     0.120 A 
HETATM   16  N2  UNL     1      22.606   6.853  50.782  1.00  0.00    -0.244 NA
HETATM   17  C14 UNL     1      23.438   6.219  49.940  1.00  0.00     0.147 A 
HETATM   18  N3  UNL     1      23.585   6.285  48.564  1.00  0.00    -0.236 NA
HETATM   19  C15 UNL     1      24.202   5.046  50.450  1.00  0.00     0.119 C 
HETATM   20 CL1  UNL     1      22.902   4.186  51.412  1.00  0.00    -0.114 Cl
HETATM   21  C16 UNL     1      24.994   4.074  50.906  1.00  0.00     0.357 A 
HETATM   22  H1  UNL     1      27.144   2.828  51.781  1.00  0.00     0.298 HD
ENDROOT
BRANCH   2  23
HETATM   23  C17 UNL     1      27.301   0.771  52.600  1.00  0.00     0.040 A 
HETATM   24  C18 UNL     1      27.209  -0.655  52.538  1.00  0.00     0.017 A 
HETATM   25  C19 UNL     1      28.134  -1.548  53.135  1.00  0.00     0.001 A 
HETATM   26  C20 UNL     1      29.209  -0.779  53.837  1.00  0.00     0.000 A 
HETATM   27  C21 UNL     1      29.427   0.584  53.987  1.00  0.00     0.001 A 
HETATM   28  C22 UNL     1      28.368   0.943  53.298  1.00  0.00     0.017 A 
ENDBRANCH   2  23
TORSDOF 1
ENDMDL
MODEL 7
REMARK VINA RESULT:      -8.9      1.948      3.561
REMARK  1 active torsions:
REMARK  status: ('A' for Active; 'I' for Inactive)
REMARK       I    between atoms: C1_2  and  N1_3 
REMARK    1  A    between atoms: C1_2  and  C17_22 
ROOT
HETATM    1  O1  UNL     1      25.897   1.750  51.226  1.00  0.00    -0.259 OA
HETATM    2  C1  UNL     1      25.562   1.314  52.362  1.00  0.00     0.355 C 
HETATM    3  N1  UNL     1      24.111   1.118  52.901  1.00  0.00     0.036 N 
HETATM    4  C2  UNL     1      23.980   1.604  51.569  1.00  0.00     0.157 A 
HETATM    5  C3  UNL     1      23.774   2.129  50.424  1.00  0.00     0.035 C 
HETATM    6  C4  UNL     1      22.962   3.232  49.813  1.00  0.00    -0.002 C 
HETATM    7  C5  UNL     1      22.077   4.220  49.911  1.00  0.00    -0.023 C 
HETATM    8  C6  UNL     1      21.126   5.333  49.841  1.00  0.00     0.054 C 
HETATM    9  C7  UNL     1      19.750   4.928  50.348  1.00  0.00    -0.027 C 
HETATM   10  C8  UNL     1      18.436   4.762  49.979  1.00  0.00    -0.030 C 
HETATM   11  C9  UNL     1      16.993   4.413  50.191  1.00  0.00     0.033 C 
HETATM   12  C10 UNL     1      17.026   3.855  51.621  1.00  0.00     0.063 C 
HETATM   13  C11 UNL     1      18.012   2.734  51.669  1.00  0.00     0.038 A 
HETATM   14  C12 UNL     1      17.634   1.661  50.977  1.00  0.00     0.046 A 
HETATM   15  C13 UNL     1      17.977   0.433  50.498  1.00  0.00     0.120 A 
HETATM   16  N2  UNL     1      19.273   0.419  50.999  1.00  0.00    -0.244 NA
HETATM   17  C14 UNL     1      19.824   1.407  51.724  1.00  0.00     0.147 A 
HETATM   18  N3  UNL     1      19.323   2.625  52.153  1.00  0.00    -0.236 NA
HETATM   19  C15 UNL     1      21.298   1.388  51.941  1.00  0.00     0.119 C 
HETATM   20 CL1  UNL     1      21.881   0.928  50.267  1.00  0.00    -0.114 Cl
HETATM   21  C16 UNL     1      22.591   1.334  52.260  1.00  0.00     0.357 A 
HETATM   22  H1  UNL     1      24.789   0.948  53.661  1.00  0.00     0.298 HD
ENDROOT
BRANCH   2  23
HETATM   23  C17 UNL     1      26.895   1.039  52.964  1.00  0.00     0.040 A 
HETATM   24  C18 UNL     1      27.716   2.141  53.365  1.00  0.00     0.017 A 
HETATM   25  C19 UNL     1      29.026   2.018  53.893  1.00  0.00     0.001 A 
HETATM   26  C20 UNL     1      29.416   0.575  53.965  1.00  0.00     0.000 A 
HETATM   27  C21 UNL     1      28.741  -0.587  53.616  1.00  0.00     0.001 A 
HETATM   28  C22 UNL     1      27.656   0.031  53.211  1.00  0.00     0.017 A 
ENDBRANCH   2  23
TORSDOF 1
ENDMDL
MODEL 8
REMARK VINA RESULT:      -8.4      7.992     10.324
REMARK  1 active torsions:
REMARK  status: ('A' for Active; 'I' for Inactive)
REMARK       I    between atoms: C1_2  and  N1_3 
REMARK    1  A    between atoms: C1_2  and  C17_22 
ROOT
HETATM    1  O1  UNL     1      24.618   6.186  49.039  1.00  0.00    -0.259 OA
HETATM    2  C1  UNL     1      25.057   6.340  50.212  1.00  0.00     0.355 C 
HETATM    3  N1  UNL     1      26.113   7.385  50.690  1.00  0.00     0.036 N 
HETATM    4  C2  UNL     1      25.924   7.616  49.298  1.00  0.00     0.157 A 
HETATM    5  C3  UNL     1      25.888   7.824  48.038  1.00  0.00     0.035 C 
HETATM    6  C4  UNL     1      26.839   7.993  46.891  1.00  0.00    -0.002 C 
HETATM    7  C5  UNL     1      28.073   8.064  46.400  1.00  0.00    -0.023 C 
HETATM    8  C6  UNL     1      29.356   8.165  45.697  1.00  0.00     0.054 C 
HETATM    9  C7  UNL     1      30.218   9.283  46.262  1.00  0.00    -0.027 C 
HETATM   10  C8  UNL     1      30.810  10.487  45.964  1.00  0.00    -0.030 C 
HETATM   11  C9  UNL     1      31.623  11.715  46.245  1.00  0.00     0.033 C 
HETATM   12  C10 UNL     1      31.875  11.569  47.753  1.00  0.00     0.063 C 
HETATM   13  C11 UNL     1      30.555  11.453  48.443  1.00  0.00     0.038 A 
HETATM   14  C12 UNL     1      29.833  12.570  48.404  1.00  0.00     0.046 A 
HETATM   15  C13 UNL     1      28.636  13.166  48.669  1.00  0.00     0.120 A 
HETATM   16  N2  UNL     1      28.001  12.038  49.174  1.00  0.00    -0.244 NA
HETATM   17  C14 UNL     1      28.573  10.828  49.296  1.00  0.00     0.147 A 
HETATM   18  N3  UNL     1      29.844  10.373  48.985  1.00  0.00    -0.236 NA
HETATM   19  C15 UNL     1      27.696   9.656  49.574  1.00  0.00     0.119 C 
HETATM   20 CL1  UNL     1      26.303   9.997  48.434  1.00  0.00    -0.114 Cl
HETATM   21  C16 UNL     1      26.959   8.609  49.946  1.00  0.00     0.357 A 
HETATM   22  H1  UNL     1      25.895   6.734  51.461  1.00  0.00     0.298 HD
ENDROOT
BRANCH   2  23
HETATM   23  C17 UNL     1      24.280   5.303  50.944  1.00  0.00     0.040 A 
HETATM   24  C18 UNL     1      24.611   3.924  50.753  1.00  0.00     0.017 A 
HETATM   25  C19 UNL     1      23.912   2.840  51.340  1.00  0.00     0.001 A 
HETATM   26  C20 UNL     1      22.785   3.351  52.180  1.00  0.00     0.000 A 
HETATM   27  C21 UNL     1      22.343   4.639  52.455  1.00  0.00     0.001 A 
HETATM   28  C22 UNL     1      23.260   5.230  51.725  1.00  0.00     0.017 A 
ENDBRANCH   2  23
TORSDOF 1
ENDMDL
MODEL 9
REMARK VINA RESULT:      -8.3      4.315      6.316
REMARK  1 active torsions:
REMARK  status: ('A' for Active; 'I' for Inactive)
REMARK       I    between atoms: C1_2  and  N1_3 
REMARK    1  A    between atoms: C1_2  and  C17_22 
ROOT
HETATM    1  O1  UNL     1      21.800   1.482  51.438  1.00  0.00    -0.259 OA
HETATM    2  C1  UNL     1      21.776   0.567  52.307  1.00  0.00     0.355 C 
HETATM    3  N1  UNL     1      20.523  -0.206  52.822  1.00  0.00     0.036 N 
HETATM    4  C2  UNL     1      20.052   0.702  51.831  1.00  0.00     0.157 A 
HETATM    5  C3  UNL     1      19.536   1.553  51.031  1.00  0.00     0.035 C 
HETATM    6  C4  UNL     1      18.409   2.542  51.003  1.00  0.00    -0.002 C 
HETATM    7  C5  UNL     1      17.364   3.137  51.573  1.00  0.00    -0.023 C 
HETATM    8  C6  UNL     1      16.199   3.888  52.049  1.00  0.00     0.054 C 
HETATM    9  C7  UNL     1      15.057   2.963  52.440  1.00  0.00    -0.027 C 
HETATM   10  C8  UNL     1      13.766   2.604  52.136  1.00  0.00    -0.030 C 
HETATM   11  C9  UNL     1      12.494   1.824  52.289  1.00  0.00     0.033 C 
HETATM   12  C10 UNL     1      12.902   0.788  53.345  1.00  0.00     0.063 C 
HETATM   13  C11 UNL     1      14.099   0.047  52.844  1.00  0.00     0.038 A 
HETATM   14  C12 UNL     1      13.843  -0.733  51.796  1.00  0.00     0.046 A 
HETATM   15  C13 UNL     1      14.350  -1.538  50.821  1.00  0.00     0.120 A 
HETATM   16  N2  UNL     1      15.687  -1.394  51.171  1.00  0.00    -0.244 NA
HETATM   17  C14 UNL     1      16.133  -0.654  52.200  1.00  0.00     0.147 A 
HETATM   18  N3  UNL     1      15.468   0.118  53.138  1.00  0.00    -0.236 NA
HETATM   19  C15 UNL     1      17.592  -0.357  52.278  1.00  0.00     0.119 C 
HETATM   20 CL1  UNL     1      17.950   0.043  50.527  1.00  0.00    -0.114 Cl
HETATM   21  C16 UNL     1      18.902  -0.178  52.447  1.00  0.00     0.357 A 
HETATM   22  H1  UNL     1      21.347  -0.467  53.386  1.00  0.00     0.298 HD
ENDROOT
BRANCH   2  23
HETATM   23  C17 UNL     1      23.223   0.452  52.637  1.00  0.00     0.040 A 
HETATM   24  C18 UNL     1      24.169   1.225  51.891  1.00  0.00     0.017 A 
HETATM   25  C19 UNL     1      25.574   1.161  52.063  1.00  0.00     0.001 A 
HETATM   26  C20 UNL     1      25.915   0.171  53.132  1.00  0.00     0.000 A 
HETATM   27  C21 UNL     1      25.122  -0.644  53.928  1.00  0.00     0.001 A 
HETATM   28  C22 UNL     1      23.986  -0.234  53.413  1.00  0.00     0.017 A 
ENDBRANCH   2  23
TORSDOF 1
ENDMDL
