MODEL 1
REMARK VINA RESULT:      -8.1      0.000      0.000
REMARK  6 active torsions:
REMARK  status: ('A' for Active; 'I' for Inactive)
REMARK    1  A    between atoms: C3_3  and  C4_4 
REMARK    2  A    between atoms: C5_5  and  C6_6 
REMARK    3  A    between atoms: C11_12  and  C12_13 
REMARK    4  A    between atoms: C15_17  and  C16_18 
REMARK    5  A    between atoms: C16_18  and  O1_19 
REMARK    6  A    between atoms: O1_19  and  N2_20 
ROOT
HETATM    1  C1  UNL     1      25.890   5.714  49.591  1.00  0.00     0.096 C 
HETATM    2  C2  UNL     1      26.143   4.413  49.571  1.00  0.00    -0.152 C 
HETATM    3  C3  UNL     1      26.465   3.139  49.762  1.00  0.00     0.090 C 
ENDROOT
BRANCH   3   4
HETATM    4  C4  UNL     1      25.604   2.447  50.700  1.00  0.00     0.111 C 
HETATM    5  C5  UNL     1      25.848   1.724  51.779  1.00  0.00     0.101 C 
HETATM    6  N1  UNL     1      24.631   1.295  52.289  1.00  0.00    -0.261 NA
HETATM    7  C14 UNL     1      24.331   0.905  53.448  1.00  0.00     0.097 C 
HETATM    8  C15 UNL     1      22.862   0.563  53.429  1.00  0.00     0.055 C 
HETATM    9  C17 UNL     1      22.261   0.965  52.078  1.00  0.00     0.041 C 
HETATM   10  C18 UNL     1      22.503   2.455  52.008  1.00  0.00    -0.001 C 
HETATM   11  C19 UNL     1      23.373   2.998  51.176  1.00  0.00     0.138 C 
HETATM   12  O2  UNL     1      24.324   2.739  50.166  1.00  0.00    -0.320 OA
BRANCH   5  13
HETATM   13  C6  UNL     1      27.007   1.296  52.515  1.00  0.00     0.003 A 
HETATM   14  C7  UNL     1      27.542   2.416  53.164  1.00  0.00     0.014 A 
HETATM   15  C8  UNL     1      28.694   2.286  53.926  1.00  0.00     0.003 A 
HETATM   16  C9  UNL     1      29.254   1.028  53.995  1.00  0.00     0.024 A 
HETATM   17  C10 UNL     1      28.746  -0.088  53.364  1.00  0.00     0.041 A 
HETATM   18 CL1  UNL     1      29.493  -1.665  53.481  1.00  0.00    -0.084 Cl
HETATM   19  C11 UNL     1      27.619   0.075  52.629  1.00  0.00    -0.024 A 
BRANCH  19  20
HETATM   20  C12 UNL     1      27.061  -1.079  51.937  1.00  0.00     0.037 C 
HETATM   21  C13 UNL     1      26.232  -1.953  52.840  1.00  0.00     0.010 C 
ENDBRANCH  19  20
ENDBRANCH   5  13
BRANCH   8  22
HETATM   22  C16 UNL     1      22.717  -0.917  53.591  1.00  0.00     0.203 C 
BRANCH  22  23
HETATM   23  O1  UNL     1      22.240  -1.230  54.875  1.00  0.00    -0.308 OA
BRANCH  23  24
HETATM   24  N2  UNL     1      20.948  -1.609  54.841  1.00  0.00    -0.215 NA
HETATM   25  H16 UNL     1      20.859  -2.562  55.267  1.00  0.00     0.150 HD
HETATM   26  H17 UNL     1      20.410  -0.934  55.455  1.00  0.00     0.150 HD
ENDBRANCH  23  24
ENDBRANCH  22  23
ENDBRANCH   8  22
ENDBRANCH   3   4
TORSDOF 6
ENDMDL
MODEL 2
REMARK VINA RESULT:      -8.0      3.000      5.732
REMARK  6 active torsions:
REMARK  status: ('A' for Active; 'I' for Inactive)
REMARK    1  A    between atoms: C3_3  and  C4_4 
REMARK    2  A    between atoms: C5_5  and  C6_6 
REMARK    3  A    between atoms: C11_12  and  C12_13 
REMARK    4  A    between atoms: C15_17  and  C16_18 
REMARK    5  A    between atoms: C16_18  and  O1_19 
REMARK    6  A    between atoms: O1_19  and  N2_20 
ROOT
HETATM    1  C1  UNL     1      21.554   1.288  48.539  1.00  0.00     0.096 C 
HETATM    2  C2  UNL     1      21.370   1.009  49.822  1.00  0.00    -0.152 C 
HETATM    3  C3  UNL     1      21.326   0.559  51.070  1.00  0.00     0.090 C 
ENDROOT
BRANCH   3   4
HETATM    4  C4  UNL     1      22.563   0.736  51.804  1.00  0.00     0.111 C 
HETATM    5  C5  UNL     1      23.370   1.769  51.971  1.00  0.00     0.101 C 
HETATM    6  N1  UNL     1      24.423   1.363  52.777  1.00  0.00    -0.261 NA
HETATM    7  C14 UNL     1      25.214   2.044  53.481  1.00  0.00     0.097 C 
HETATM    8  C15 UNL     1      26.158   1.073  54.145  1.00  0.00     0.055 C 
HETATM    9  C17 UNL     1      25.707  -0.362  53.849  1.00  0.00     0.041 C 
HETATM   10  C18 UNL     1      24.315  -0.427  54.432  1.00  0.00    -0.001 C 
HETATM   11  C19 UNL     1      23.231  -0.503  53.682  1.00  0.00     0.138 C 
HETATM   12  O2  UNL     1      22.740  -0.556  52.360  1.00  0.00    -0.320 OA
BRANCH   5  13
HETATM   13  C6  UNL     1      23.419   3.141  51.542  1.00  0.00     0.003 A 
HETATM   14  C7  UNL     1      22.525   3.872  52.335  1.00  0.00     0.014 A 
HETATM   15  C8  UNL     1      22.354   5.229  52.108  1.00  0.00     0.003 A 
HETATM   16  C9  UNL     1      23.094   5.787  51.087  1.00  0.00     0.024 A 
HETATM   17  C10 UNL     1      23.979   5.087  50.293  1.00  0.00     0.041 A 
HETATM   18 CL1  UNL     1      24.897   5.839  49.008  1.00  0.00    -0.084 Cl
HETATM   19  C11 UNL     1      24.122   3.763  50.543  1.00  0.00    -0.024 A 
BRANCH  19  20
HETATM   20  C12 UNL     1      25.039   2.988  49.717  1.00  0.00     0.037 C 
HETATM   21  C13 UNL     1      26.450   3.010  50.237  1.00  0.00     0.010 C 
ENDBRANCH  19  20
ENDBRANCH   5  13
BRANCH   8  22
HETATM   22  C16 UNL     1      27.524   1.269  53.569  1.00  0.00     0.203 C 
BRANCH  22  23
HETATM   23  O1  UNL     1      28.020   2.544  53.892  1.00  0.00    -0.308 OA
BRANCH  23  24
HETATM   24  N2  UNL     1      29.023   2.905  53.071  1.00  0.00    -0.215 NA
HETATM   25  H16 UNL     1      29.936   2.786  53.571  1.00  0.00     0.150 HD
HETATM   26  H17 UNL     1      29.016   2.229  52.255  1.00  0.00     0.150 HD
ENDBRANCH  23  24
ENDBRANCH  22  23
ENDBRANCH   8  22
ENDBRANCH   3   4
TORSDOF 6
ENDMDL
MODEL 3
REMARK VINA RESULT:      -7.9      3.142      5.740
REMARK  6 active torsions:
REMARK  status: ('A' for Active; 'I' for Inactive)
REMARK    1  A    between atoms: C3_3  and  C4_4 
REMARK    2  A    between atoms: C5_5  and  C6_6 
REMARK    3  A    between atoms: C11_12  and  C12_13 
REMARK    4  A    between atoms: C15_17  and  C16_18 
REMARK    5  A    between atoms: C16_18  and  O1_19 
REMARK    6  A    between atoms: O1_19  and  N2_20 
ROOT
HETATM    1  C1  UNL     1      22.354   2.157  47.684  1.00  0.00     0.096 C 
HETATM    2  C2  UNL     1      22.018   1.967  48.953  1.00  0.00    -0.152 C 
HETATM    3  C3  UNL     1      21.781   1.578  50.199  1.00  0.00     0.090 C 
ENDROOT
BRANCH   3   4
HETATM    4  C4  UNL     1      22.970   1.483  51.023  1.00  0.00     0.111 C 
HETATM    5  C5  UNL     1      23.994   2.294  51.221  1.00  0.00     0.101 C 
HETATM    6  N1  UNL     1      24.856   1.683  52.120  1.00  0.00    -0.261 NA
HETATM    7  C14 UNL     1      25.740   2.184  52.863  1.00  0.00     0.097 C 
HETATM    8  C15 UNL     1      26.365   1.046  53.630  1.00  0.00     0.055 C 
HETATM    9  C17 UNL     1      25.595  -0.248  53.344  1.00  0.00     0.041 C 
HETATM   10  C18 UNL     1      24.193   0.060  53.817  1.00  0.00    -0.001 C 
HETATM   11  C19 UNL     1      23.178   0.214  52.987  1.00  0.00     0.138 C 
HETATM   12  O2  UNL     1      22.782   0.217  51.632  1.00  0.00    -0.320 OA
BRANCH   5  13
HETATM   13  C6  UNL     1      24.412   3.588  50.754  1.00  0.00     0.003 A 
HETATM   14  C7  UNL     1      25.412   3.395  49.792  1.00  0.00     0.014 A 
HETATM   15  C8  UNL     1      26.017   4.493  49.197  1.00  0.00     0.003 A 
HETATM   16  C9  UNL     1      25.583   5.737  49.603  1.00  0.00     0.024 A 
HETATM   17  C10 UNL     1      24.602   5.951  50.548  1.00  0.00     0.041 A 
HETATM   18 CL1  UNL     1      24.084   7.550  51.031  1.00  0.00    -0.084 Cl
HETATM   19  C11 UNL     1      24.032   4.856  51.108  1.00  0.00    -0.024 A 
BRANCH  19  20
HETATM   20  C12 UNL     1      23.000   5.043  52.120  1.00  0.00     0.037 C 
HETATM   21  C13 UNL     1      21.615   5.104  51.533  1.00  0.00     0.010 C 
ENDBRANCH  19  20
ENDBRANCH   5  13
BRANCH   8  22
HETATM   22  C16 UNL     1      27.774   0.872  53.157  1.00  0.00     0.203 C 
BRANCH  22  23
HETATM   23  O1  UNL     1      28.278   2.081  52.647  1.00  0.00    -0.308 OA
BRANCH  23  24
HETATM   24  N2  UNL     1      29.213   2.607  53.460  1.00  0.00    -0.215 NA
HETATM   25  H16 UNL     1      29.909   3.138  52.885  1.00  0.00     0.150 HD
HETATM   26  H17 UNL     1      28.721   3.304  54.089  1.00  0.00     0.150 HD
ENDBRANCH  23  24
ENDBRANCH  22  23
ENDBRANCH   8  22
ENDBRANCH   3   4
TORSDOF 6
ENDMDL
MODEL 4
REMARK VINA RESULT:      -6.9      3.145      5.564
REMARK  6 active torsions:
REMARK  status: ('A' for Active; 'I' for Inactive)
REMARK    1  A    between atoms: C3_3  and  C4_4 
REMARK    2  A    between atoms: C5_5  and  C6_6 
REMARK    3  A    between atoms: C11_12  and  C12_13 
REMARK    4  A    between atoms: C15_17  and  C16_18 
REMARK    5  A    between atoms: C16_18  and  O1_19 
REMARK    6  A    between atoms: O1_19  and  N2_20 
ROOT
HETATM    1  C1  UNL     1      24.785   5.508  48.886  1.00  0.00     0.096 C 
HETATM    2  C2  UNL     1      25.522   4.546  49.424  1.00  0.00    -0.152 C 
HETATM    3  C3  UNL     1      26.194   3.668  50.158  1.00  0.00     0.090 C 
ENDROOT
BRANCH   3   4
HETATM    4  C4  UNL     1      25.352   2.738  50.884  1.00  0.00     0.111 C 
HETATM    5  C5  UNL     1      24.067   2.438  50.804  1.00  0.00     0.101 C 
HETATM    6  N1  UNL     1      23.795   1.469  51.759  1.00  0.00    -0.261 NA
HETATM    7  C14 UNL     1      22.848   0.643  51.827  1.00  0.00     0.097 C 
HETATM    8  C15 UNL     1      23.061  -0.166  53.081  1.00  0.00     0.055 C 
HETATM    9  C17 UNL     1      24.411   0.204  53.706  1.00  0.00     0.041 C 
HETATM   10  C18 UNL     1      25.410  -0.141  52.626  1.00  0.00    -0.001 C 
HETATM   11  C19 UNL     1      26.077   0.778  51.952  1.00  0.00     0.138 C 
HETATM   12  O2  UNL     1      26.286   2.164  51.782  1.00  0.00    -0.320 OA
BRANCH   5  13
HETATM   13  C6  UNL     1      22.942   2.850  50.010  1.00  0.00     0.003 A 
HETATM   14  C7  UNL     1      23.062   2.249  48.750  1.00  0.00     0.014 A 
HETATM   15  C8  UNL     1      22.114   2.506  47.770  1.00  0.00     0.003 A 
HETATM   16  C9  UNL     1      21.087   3.362  48.109  1.00  0.00     0.024 A 
HETATM   17  C10 UNL     1      20.949   3.966  49.341  1.00  0.00     0.041 A 
HETATM   18 CL1  UNL     1      19.629   5.046  49.724  1.00  0.00    -0.084 Cl
HETATM   19  C11 UNL     1      21.893   3.691  50.274  1.00  0.00    -0.024 A 
BRANCH  19  20
HETATM   20  C12 UNL     1      21.788   4.321  51.584  1.00  0.00     0.037 C 
HETATM   21  C13 UNL     1      22.545   5.619  51.667  1.00  0.00     0.010 C 
ENDBRANCH  19  20
ENDBRANCH   5  13
BRANCH   8  22
HETATM   22  C16 UNL     1      21.979   0.176  54.056  1.00  0.00     0.203 C 
BRANCH  22  23
HETATM   23  O1  UNL     1      21.922  -0.778  55.088  1.00  0.00    -0.308 OA
BRANCH  23  24
HETATM   24  N2  UNL     1      20.969  -1.700  54.854  1.00  0.00    -0.215 NA
HETATM   25  H16 UNL     1      20.029  -1.277  55.039  1.00  0.00     0.150 HD
HETATM   26  H17 UNL     1      21.015  -1.939  53.822  1.00  0.00     0.150 HD
ENDBRANCH  23  24
ENDBRANCH  22  23
ENDBRANCH   8  22
ENDBRANCH   3   4
TORSDOF 6
ENDMDL
MODEL 5
REMARK VINA RESULT:      -6.9      3.585      6.195
REMARK  6 active torsions:
REMARK  status: ('A' for Active; 'I' for Inactive)
REMARK    1  A    between atoms: C3_3  and  C4_4 
REMARK    2  A    between atoms: C5_5  and  C6_6 
REMARK    3  A    between atoms: C11_12  and  C12_13 
REMARK    4  A    between atoms: C15_17  and  C16_18 
REMARK    5  A    between atoms: C16_18  and  O1_19 
REMARK    6  A    between atoms: O1_19  and  N2_20 
ROOT
HETATM    1  C1  UNL     1      21.845   3.605  46.547  1.00  0.00     0.096 C 
HETATM    2  C2  UNL     1      21.303   3.126  47.658  1.00  0.00    -0.152 C 
HETATM    3  C3  UNL     1      20.899   2.475  48.742  1.00  0.00     0.090 C 
ENDROOT
BRANCH   3   4
HETATM    4  C4  UNL     1      21.890   2.417  49.798  1.00  0.00     0.111 C 
HETATM    5  C5  UNL     1      22.632   3.340  50.386  1.00  0.00     0.101 C 
HETATM    6  N1  UNL     1      23.419   2.710  51.339  1.00  0.00    -0.261 NA
HETATM    7  C14 UNL     1      23.995   3.182  52.355  1.00  0.00     0.097 C 
HETATM    8  C15 UNL     1      24.709   2.037  53.027  1.00  0.00     0.055 C 
HETATM    9  C17 UNL     1      24.340   0.724  52.328  1.00  0.00     0.041 C 
HETATM   10  C18 UNL     1      22.841   0.640  52.493  1.00  0.00    -0.001 C 
HETATM   11  C19 UNL     1      22.003   0.788  51.484  1.00  0.00     0.138 C 
HETATM   12  O2  UNL     1      21.892   1.032  50.098  1.00  0.00    -0.320 OA
BRANCH   5  13
HETATM   13  C6  UNL     1      22.813   4.762  50.283  1.00  0.00     0.003 A 
HETATM   14  C7  UNL     1      21.782   5.380  51.002  1.00  0.00     0.014 A 
HETATM   15  C8  UNL     1      21.702   6.764  51.041  1.00  0.00     0.003 A 
HETATM   16  C9  UNL     1      22.669   7.462  50.348  1.00  0.00     0.024 A 
HETATM   17  C10 UNL     1      23.692   6.876  49.632  1.00  0.00     0.041 A 
HETATM   18 CL1  UNL     1      24.896   7.803  48.767  1.00  0.00    -0.084 Cl
HETATM   19  C11 UNL     1      23.740   5.521  49.617  1.00  0.00    -0.024 A 
BRANCH  19  20
HETATM   20  C12 UNL     1      24.799   4.866  48.860  1.00  0.00     0.037 C 
HETATM   21  C13 UNL     1      26.023   4.592  49.692  1.00  0.00     0.010 C 
ENDBRANCH  19  20
ENDBRANCH   5  13
BRANCH   8  22
HETATM   22  C16 UNL     1      26.183   2.250  52.888  1.00  0.00     0.203 C 
BRANCH  22  23
HETATM   23  O1  UNL     1      26.798   2.291  54.151  1.00  0.00    -0.308 OA
BRANCH  23  24
HETATM   24  N2  UNL     1      28.093   2.647  54.056  1.00  0.00    -0.215 NA
HETATM   25  H16 UNL     1      28.687   1.898  54.485  1.00  0.00     0.150 HD
HETATM   26  H17 UNL     1      28.329   2.690  53.024  1.00  0.00     0.150 HD
ENDBRANCH  23  24
ENDBRANCH  22  23
ENDBRANCH   8  22
ENDBRANCH   3   4
TORSDOF 6
ENDMDL
MODEL 6
REMARK VINA RESULT:      -6.5      8.191     10.828
REMARK  6 active torsions:
REMARK  status: ('A' for Active; 'I' for Inactive)
REMARK    1  A    between atoms: C3_3  and  C4_4 
REMARK    2  A    between atoms: C5_5  and  C6_6 
REMARK    3  A    between atoms: C11_12  and  C12_13 
REMARK    4  A    between atoms: C15_17  and  C16_18 
REMARK    5  A    between atoms: C16_18  and  O1_19 
REMARK    6  A    between atoms: O1_19  and  N2_20 
ROOT
HETATM    1  C1  UNL     1      34.460   9.604  46.605  1.00  0.00     0.096 C 
HETATM    2  C2  UNL     1      34.205   8.793  47.622  1.00  0.00    -0.152 C 
HETATM    3  C3  UNL     1      33.744   7.968  48.555  1.00  0.00     0.090 C 
ENDROOT
BRANCH   3   4
HETATM    4  C4  UNL     1      33.456   6.632  48.071  1.00  0.00     0.111 C 
HETATM    5  C5  UNL     1      32.342   6.038  47.681  1.00  0.00     0.101 C 
HETATM    6  N1  UNL     1      32.656   4.735  47.322  1.00  0.00    -0.261 NA
HETATM    7  C14 UNL     1      32.036   3.928  46.581  1.00  0.00     0.097 C 
HETATM    8  C15 UNL     1      32.845   2.656  46.546  1.00  0.00     0.055 C 
HETATM    9  C17 UNL     1      34.173   2.874  47.279  1.00  0.00     0.041 C 
HETATM   10  C18 UNL     1      34.830   3.991  46.502  1.00  0.00    -0.001 C 
HETATM   11  C19 UNL     1      34.977   5.208  46.991  1.00  0.00     0.138 C 
HETATM   12  O2  UNL     1      34.745   6.044  48.105  1.00  0.00    -0.320 OA
BRANCH   5  13
HETATM   13  C6  UNL     1      30.955   6.394  47.547  1.00  0.00     0.003 A 
HETATM   14  C7  UNL     1      30.214   5.557  48.391  1.00  0.00     0.014 A 
HETATM   15  C8  UNL     1      28.832   5.669  48.431  1.00  0.00     0.003 A 
HETATM   16  C9  UNL     1      28.261   6.623  47.615  1.00  0.00     0.024 A 
HETATM   17  C10 UNL     1      28.971   7.457  46.777  1.00  0.00     0.041 A 
HETATM   18 CL1  UNL     1      28.203   8.654  45.758  1.00  0.00    -0.084 Cl
HETATM   19  C11 UNL     1      30.319   7.321  46.763  1.00  0.00    -0.024 A 
BRANCH  19  20
HETATM   20  C12 UNL     1      31.102   8.176  45.880  1.00  0.00     0.037 C 
HETATM   21  C13 UNL     1      31.507   7.481  44.608  1.00  0.00     0.010 C 
ENDBRANCH  19  20
ENDBRANCH   5  13
BRANCH   8  22
HETATM   22  C16 UNL     1      32.080   1.587  47.261  1.00  0.00     0.203 C 
BRANCH  22  23
HETATM   23  O1  UNL     1      31.790   0.520  46.393  1.00  0.00    -0.308 OA
BRANCH  23  24
HETATM   24  N2  UNL     1      30.567   0.650  45.845  1.00  0.00    -0.215 NA
HETATM   25  H16 UNL     1      30.589   0.281  44.864  1.00  0.00     0.150 HD
HETATM   26  H17 UNL     1      29.909   0.035  46.403  1.00  0.00     0.150 HD
ENDBRANCH  23  24
ENDBRANCH  22  23
ENDBRANCH   8  22
ENDBRANCH   3   4
TORSDOF 6
ENDMDL
MODEL 7
REMARK VINA RESULT:      -6.4      8.216     10.697
REMARK  6 active torsions:
REMARK  status: ('A' for Active; 'I' for Inactive)
REMARK    1  A    between atoms: C3_3  and  C4_4 
REMARK    2  A    between atoms: C5_5  and  C6_6 
REMARK    3  A    between atoms: C11_12  and  C12_13 
REMARK    4  A    between atoms: C15_17  and  C16_18 
REMARK    5  A    between atoms: C16_18  and  O1_19 
REMARK    6  A    between atoms: O1_19  and  N2_20 
ROOT
HETATM    1  C1  UNL     1      33.851  10.659  43.882  1.00  0.00     0.096 C 
HETATM    2  C2  UNL     1      34.107  10.155  45.081  1.00  0.00    -0.152 C 
HETATM    3  C3  UNL     1      34.213   9.798  46.355  1.00  0.00     0.090 C 
ENDROOT
BRANCH   3   4
HETATM    4  C4  UNL     1      33.035   9.139  46.883  1.00  0.00     0.111 C 
HETATM    5  C5  UNL     1      32.806   7.907  47.302  1.00  0.00     0.101 C 
HETATM    6  N1  UNL     1      31.478   7.831  47.699  1.00  0.00    -0.261 NA
HETATM    7  C14 UNL     1      30.909   7.015  48.471  1.00  0.00     0.097 C 
HETATM    8  C15 UNL     1      29.457   7.414  48.538  1.00  0.00     0.055 C 
HETATM    9  C17 UNL     1      29.254   8.734  47.786  1.00  0.00     0.041 C 
HETATM   10  C18 UNL     1      30.150   9.704  48.521  1.00  0.00    -0.001 C 
HETATM   11  C19 UNL     1      31.256  10.194  47.992  1.00  0.00     0.138 C 
HETATM   12  O2  UNL     1      32.092  10.197  46.855  1.00  0.00    -0.320 OA
BRANCH   5  13
HETATM   13  C6  UNL     1      33.558   6.689  47.438  1.00  0.00     0.003 A 
HETATM   14  C7  UNL     1      34.219   6.728  48.672  1.00  0.00     0.014 A 
HETATM   15  C8  UNL     1      35.048   5.680  49.044  1.00  0.00     0.003 A 
HETATM   16  C9  UNL     1      35.170   4.637  48.150  1.00  0.00     0.024 A 
HETATM   17  C10 UNL     1      34.529   4.577  46.930  1.00  0.00     0.041 A 
HETATM   18 CL1  UNL     1      34.716   3.233  45.827  1.00  0.00    -0.084 Cl
HETATM   19  C11 UNL     1      33.727   5.618  46.600  1.00  0.00    -0.024 A 
BRANCH  19  20
HETATM   20  C12 UNL     1      33.044   5.596  45.313  1.00  0.00     0.037 C 
HETATM   21  C13 UNL     1      33.823   6.292  44.229  1.00  0.00     0.010 C 
ENDBRANCH  19  20
ENDBRANCH   5  13
BRANCH   8  22
HETATM   22  C16 UNL     1      28.642   6.356  47.864  1.00  0.00     0.203 C 
BRANCH  22  23
HETATM   23  O1  UNL     1      28.879   5.100  48.451  1.00  0.00    -0.308 OA
BRANCH  23  24
HETATM   24  N2  UNL     1      27.916   4.782  49.336  1.00  0.00    -0.215 NA
HETATM   25  H16 UNL     1      27.182   4.209  48.855  1.00  0.00     0.150 HD
HETATM   26  H17 UNL     1      28.365   4.169  50.076  1.00  0.00     0.150 HD
ENDBRANCH  23  24
ENDBRANCH  22  23
ENDBRANCH   8  22
ENDBRANCH   3   4
TORSDOF 6
ENDMDL
MODEL 8
REMARK VINA RESULT:      -6.4      3.953      7.234
REMARK  6 active torsions:
REMARK  status: ('A' for Active; 'I' for Inactive)
REMARK    1  A    between atoms: C3_3  and  C4_4 
REMARK    2  A    between atoms: C5_5  and  C6_6 
REMARK    3  A    between atoms: C11_12  and  C12_13 
REMARK    4  A    between atoms: C15_17  and  C16_18 
REMARK    5  A    between atoms: C16_18  and  O1_19 
REMARK    6  A    between atoms: O1_19  and  N2_20 
ROOT
HETATM    1  C1  UNL     1      16.474  -0.586  52.686  1.00  0.00     0.096 C 
HETATM    2  C2  UNL     1      17.375  -0.288  51.760  1.00  0.00    -0.152 C 
HETATM    3  C3  UNL     1      18.308   0.198  50.950  1.00  0.00     0.090 C 
ENDROOT
BRANCH   3   4
HETATM    4  C4  UNL     1      19.634   0.239  51.535  1.00  0.00     0.111 C 
HETATM    5  C5  UNL     1      20.738   0.888  51.212  1.00  0.00     0.101 C 
HETATM    6  N1  UNL     1      21.720   0.542  52.130  1.00  0.00    -0.261 NA
HETATM    7  C14 UNL     1      22.780   1.143  52.447  1.00  0.00     0.097 C 
HETATM    8  C15 UNL     1      23.461   0.305  53.500  1.00  0.00     0.055 C 
HETATM    9  C17 UNL     1      22.545  -0.856  53.900  1.00  0.00     0.041 C 
HETATM   10  C18 UNL     1      21.307  -0.170  54.426  1.00  0.00    -0.001 C 
HETATM   11  C19 UNL     1      20.153  -0.188  53.783  1.00  0.00     0.138 C 
HETATM   12  O2  UNL     1      19.478  -0.646  52.631  1.00  0.00    -0.320 OA
BRANCH   5  13
HETATM   13  C6  UNL     1      21.150   1.816  50.194  1.00  0.00     0.003 A 
HETATM   14  C7  UNL     1      21.689   1.078  49.133  1.00  0.00     0.014 A 
HETATM   15  C8  UNL     1      22.196   1.736  48.022  1.00  0.00     0.003 A 
HETATM   16  C9  UNL     1      22.135   3.114  48.036  1.00  0.00     0.024 A 
HETATM   17  C10 UNL     1      21.610   3.861  49.069  1.00  0.00     0.041 A 
HETATM   18 CL1  UNL     1      21.555   5.609  49.041  1.00  0.00    -0.084 Cl
HETATM   19  C11 UNL     1      21.124   3.185  50.138  1.00  0.00    -0.024 A 
BRANCH  19  20
HETATM   20  C12 UNL     1      20.573   3.942  51.255  1.00  0.00     0.037 C 
HETATM   21  C13 UNL     1      19.069   3.997  51.233  1.00  0.00     0.010 C 
ENDBRANCH  19  20
ENDBRANCH   5  13
BRANCH   8  22
HETATM   22  C16 UNL     1      24.717  -0.261  52.918  1.00  0.00     0.203 C 
BRANCH  22  23
HETATM   23  O1  UNL     1      25.369   0.696  52.121  1.00  0.00    -0.308 OA
BRANCH  23  24
HETATM   24  N2  UNL     1      26.670   0.394  51.954  1.00  0.00    -0.215 NA
HETATM   25  H16 UNL     1      27.253   1.218  52.235  1.00  0.00     0.150 HD
HETATM   26  H17 UNL     1      26.893  -0.398  52.621  1.00  0.00     0.150 HD
ENDBRANCH  23  24
ENDBRANCH  22  23
ENDBRANCH   8  22
ENDBRANCH   3   4
TORSDOF 6
ENDMDL
MODEL 9
REMARK VINA RESULT:      -6.2      8.040     11.507
REMARK  6 active torsions:
REMARK  status: ('A' for Active; 'I' for Inactive)
REMARK    1  A    between atoms: C3_3  and  C4_4 
REMARK    2  A    between atoms: C5_5  and  C6_6 
REMARK    3  A    between atoms: C11_12  and  C12_13 
REMARK    4  A    between atoms: C15_17  and  C16_18 
REMARK    5  A    between atoms: C16_18  and  O1_19 
REMARK    6  A    between atoms: O1_19  and  N2_20 
ROOT
HETATM    1  C1  UNL     1      25.985   6.711  48.278  1.00  0.00     0.096 C 
HETATM    2  C2  UNL     1      27.082   5.997  48.491  1.00  0.00    -0.152 C 
HETATM    3  C3  UNL     1      28.211   5.299  48.482  1.00  0.00     0.090 C 
ENDROOT
BRANCH   3   4
HETATM    4  C4  UNL     1      29.389   6.086  48.175  1.00  0.00     0.111 C 
HETATM    5  C5  UNL     1      29.554   7.299  47.677  1.00  0.00     0.101 C 
HETATM    6  N1  UNL     1      30.918   7.541  47.588  1.00  0.00    -0.261 NA
HETATM    7  C14 UNL     1      31.544   8.632  47.522  1.00  0.00     0.097 C 
HETATM    8  C15 UNL     1      33.010   8.291  47.445  1.00  0.00     0.055 C 
HETATM    9  C17 UNL     1      33.196   6.782  47.637  1.00  0.00     0.041 C 
HETATM   10  C18 UNL     1      32.619   6.523  49.009  1.00  0.00    -0.001 C 
HETATM   11  C19 UNL     1      31.490   5.865  49.195  1.00  0.00     0.138 C 
HETATM   12  O2  UNL     1      30.422   5.196  48.558  1.00  0.00    -0.320 OA
BRANCH   5  13
HETATM   13  C6  UNL     1      28.710   8.372  47.227  1.00  0.00     0.003 A 
HETATM   14  C7  UNL     1      28.404   8.143  45.879  1.00  0.00     0.014 A 
HETATM   15  C8  UNL     1      27.622   9.053  45.185  1.00  0.00     0.003 A 
HETATM   16  C9  UNL     1      27.183  10.157  45.886  1.00  0.00     0.024 A 
HETATM   17  C10 UNL     1      27.472  10.404  47.211  1.00  0.00     0.041 A 
HETATM   18 CL1  UNL     1      26.893  11.820  48.058  1.00  0.00    -0.084 Cl
HETATM   19  C11 UNL     1      28.238   9.493  47.859  1.00  0.00    -0.024 A 
BRANCH  19  20
HETATM   20  C12 UNL     1      28.575   9.727  49.257  1.00  0.00     0.037 C 
HETATM   21  C13 UNL     1      27.501   9.254  50.200  1.00  0.00     0.010 C 
ENDBRANCH  19  20
ENDBRANCH   5  13
BRANCH   8  22
HETATM   22  C16 UNL     1      33.513   8.661  46.086  1.00  0.00     0.203 C 
BRANCH  22  23
HETATM   23  O1  UNL     1      34.549   9.607  46.181  1.00  0.00    -0.308 OA
BRANCH  23  24
HETATM   24  N2  UNL     1      35.726   9.020  46.466  1.00  0.00    -0.215 NA
HETATM   25  H16 UNL     1      35.746   8.064  46.038  1.00  0.00     0.150 HD
HETATM   26  H17 UNL     1      36.482   9.596  45.998  1.00  0.00     0.150 HD
ENDBRANCH  23  24
ENDBRANCH  22  23
ENDBRANCH   8  22
ENDBRANCH   3   4
TORSDOF 6
ENDMDL
