MODEL 1
REMARK VINA RESULT:      -8.2      0.000      0.000
REMARK  7 active torsions:
REMARK  status: ('A' for Active; 'I' for Inactive)
REMARK    1  A    between atoms: C6_7  and  C7_8 
REMARK    2  A    between atoms: C7_8  and  N2_9 
REMARK       I    between atoms: N2_9  and  C8_10 
REMARK       I    between atoms: C8_10  and  N3_12 
REMARK    3  A    between atoms: N3_12  and  C9_13 
REMARK    4  A    between atoms: C13_19  and  N6_20 
REMARK    5  A    between atoms: N6_20  and  C14_21 
REMARK    6  A    between atoms: C14_21  and  C15_22 
REMARK    7  A    between atoms: C16_23  and  C17_24 
ROOT
HETATM    1  C9  UNL     1      26.930   5.334  48.590  1.00  0.00     0.135 A 
HETATM    2  C10 UNL     1      26.957   6.802  48.262  1.00  0.00     0.035 A 
HETATM    3  C11 UNL     1      28.216   7.158  48.062  1.00  0.00     0.070 A 
HETATM    4  N4  UNL     1      28.681   8.395  47.744  1.00  0.00    -0.241 NA
HETATM    5  C12 UNL     1      30.002   8.618  47.568  1.00  0.00     0.235 A 
HETATM    6  N5  UNL     1      30.868   7.609  47.708  1.00  0.00    -0.224 NA
HETATM    7  C13 UNL     1      30.447   6.372  48.023  1.00  0.00     0.137 A 
HETATM    8  C18 UNL     1      29.085   6.103  48.213  1.00  0.00     0.037 A 
HETATM    9  C19 UNL     1      28.379   5.008  48.523  1.00  0.00     0.020 A 
ENDROOT
BRANCH   1  10
HETATM   10  N3  UNL     1      26.410   5.156  49.920  1.00  0.00    -0.332 N 
HETATM   11  C8  UNL     1      25.810   3.926  50.311  1.00  0.00     0.316 C 
HETATM   12  N2  UNL     1      25.297   3.746  51.616  1.00  0.00    -0.341 N 
HETATM   13  O1  UNL     1      25.789   3.067  49.417  1.00  0.00    -0.247 OA
HETATM   14  H13 UNL     1      25.356   4.524  52.309  1.00  0.00     0.164 HD
HETATM   15  H14 UNL     1      26.499   5.966  50.563  1.00  0.00     0.165 HD
BRANCH  12  16
HETATM   16  C7  UNL     1      24.692   2.515  52.020  1.00  0.00     0.164 C 
BRANCH  16  17
HETATM   17  C6  UNL     1      25.430   1.824  53.148  1.00  0.00     0.266 C 
HETATM   18  C2  UNL     1      26.808   1.455  52.721  1.00  0.00    -0.055 C 
HETATM   19  C1  UNL     1      27.861   2.171  53.093  1.00  0.00     0.016 C 
HETATM   20  C3  UNL     1      26.819   0.237  51.867  1.00  0.00     0.037 C 
HETATM   21  C4  UNL     1      26.276  -0.956  52.637  1.00  0.00     0.034 C 
HETATM   22  C5  UNL     1      25.621  -0.392  53.880  1.00  0.00     0.271 C 
HETATM   23  N1  UNL     1      24.683   0.641  53.526  1.00  0.00     0.093 N 
HETATM   24  H9  UNL     1      24.097   0.904  54.347  1.00  0.00     0.316 HD
ENDBRANCH  16  17
ENDBRANCH  12  16
ENDBRANCH   1  10
BRANCH   7  25
HETATM   25  N6  UNL     1      31.372   5.302  48.171  1.00  0.00    -0.371 N 
HETATM   26  H18 UNL     1      31.464   4.787  49.050  1.00  0.00     0.161 HD
BRANCH  25  27
HETATM   27  C14 UNL     1      32.211   4.932  47.030  1.00  0.00     0.148 C 
BRANCH  27  28
HETATM   28  C15 UNL     1      31.933   3.573  46.558  1.00  0.00    -0.009 C 
HETATM   29  C16 UNL     1      32.423   2.386  46.894  1.00  0.00     0.002 C 
BRANCH  29  30
HETATM   30  C17 UNL     1      33.466   2.202  47.935  1.00  0.00     0.249 C 
HETATM   31  F1  UNL     1      33.137   1.194  48.826  1.00  0.00    -0.251 F 
ENDBRANCH  29  30
ENDBRANCH  27  28
ENDBRANCH  25  27
ENDBRANCH   7  25
TORSDOF 7
ENDMDL
MODEL 2
REMARK VINA RESULT:      -8.0      4.398      9.257
REMARK  7 active torsions:
REMARK  status: ('A' for Active; 'I' for Inactive)
REMARK    1  A    between atoms: C6_7  and  C7_8 
REMARK    2  A    between atoms: C7_8  and  N2_9 
REMARK       I    between atoms: N2_9  and  C8_10 
REMARK       I    between atoms: C8_10  and  N3_12 
REMARK    3  A    between atoms: N3_12  and  C9_13 
REMARK    4  A    between atoms: C13_19  and  N6_20 
REMARK    5  A    between atoms: N6_20  and  C14_21 
REMARK    6  A    between atoms: C14_21  and  C15_22 
REMARK    7  A    between atoms: C16_23  and  C17_24 
ROOT
HETATM    1  C9  UNL     1      24.744   2.662  51.313  1.00  0.00     0.135 A 
HETATM    2  C10 UNL     1      26.104   2.026  51.220  1.00  0.00     0.035 A 
HETATM    3  C11 UNL     1      26.128   0.981  52.031  1.00  0.00     0.070 A 
HETATM    4  N4  UNL     1      27.166   0.131  52.248  1.00  0.00    -0.241 NA
HETATM    5  C12 UNL     1      27.051  -0.903  53.111  1.00  0.00     0.235 A 
HETATM    6  N5  UNL     1      25.900  -1.095  53.763  1.00  0.00    -0.224 NA
HETATM    7  C13 UNL     1      24.851  -0.276  53.576  1.00  0.00     0.137 A 
HETATM    8  C18 UNL     1      24.934   0.806  52.689  1.00  0.00     0.037 A 
HETATM    9  C19 UNL     1      24.087   1.768  52.302  1.00  0.00     0.020 A 
ENDROOT
BRANCH   1  10
HETATM   10  N3  UNL     1      24.882   4.002  51.821  1.00  0.00    -0.332 N 
HETATM   11  C8  UNL     1      24.359   5.113  51.104  1.00  0.00     0.316 C 
HETATM   12  N2  UNL     1      24.492   6.431  51.599  1.00  0.00    -0.341 N 
HETATM   13  O1  UNL     1      23.797   4.809  50.041  1.00  0.00    -0.247 OA
HETATM   14  H13 UNL     1      24.981   6.598  52.505  1.00  0.00     0.164 HD
HETATM   15  H14 UNL     1      25.378   4.103  52.728  1.00  0.00     0.165 HD
BRANCH  12  16
HETATM   16  C7  UNL     1      23.971   7.555  50.885  1.00  0.00     0.164 C 
BRANCH  16  17
HETATM   17  C6  UNL     1      25.042   8.390  50.214  1.00  0.00     0.266 C 
HETATM   18  C2  UNL     1      24.788   8.484  48.749  1.00  0.00    -0.055 C 
HETATM   19  C1  UNL     1      24.256   9.573  48.209  1.00  0.00     0.016 C 
HETATM   20  C3  UNL     1      25.197   7.246  48.033  1.00  0.00     0.037 C 
HETATM   21  C4  UNL     1      26.690   7.008  48.193  1.00  0.00     0.034 C 
HETATM   22  C5  UNL     1      27.149   7.940  49.295  1.00  0.00     0.271 C 
HETATM   23  N1  UNL     1      26.328   7.772  50.466  1.00  0.00     0.093 N 
HETATM   24  H9  UNL     1      26.745   8.267  51.282  1.00  0.00     0.316 HD
ENDBRANCH  16  17
ENDBRANCH  12  16
ENDBRANCH   1  10
BRANCH   7  25
HETATM   25  N6  UNL     1      23.628  -0.484  54.272  1.00  0.00    -0.371 N 
HETATM   26  H18 UNL     1      23.482  -0.130  55.221  1.00  0.00     0.161 HD
BRANCH  25  27
HETATM   27  C14 UNL     1      22.555  -1.225  53.607  1.00  0.00     0.148 C 
BRANCH  27  28
HETATM   28  C15 UNL     1      21.239  -0.912  54.167  1.00  0.00    -0.009 C 
HETATM   29  C16 UNL     1      20.313  -0.019  53.844  1.00  0.00     0.002 C 
BRANCH  29  30
HETATM   30  C17 UNL     1      20.464   0.939  52.720  1.00  0.00     0.249 C 
HETATM   31  F1  UNL     1      20.527   0.295  51.494  1.00  0.00    -0.251 F 
ENDBRANCH  29  30
ENDBRANCH  27  28
ENDBRANCH  25  27
ENDBRANCH   7  25
TORSDOF 7
ENDMDL
MODEL 3
REMARK VINA RESULT:      -7.9      4.102      9.632
REMARK  7 active torsions:
REMARK  status: ('A' for Active; 'I' for Inactive)
REMARK    1  A    between atoms: C6_7  and  C7_8 
REMARK    2  A    between atoms: C7_8  and  N2_9 
REMARK       I    between atoms: N2_9  and  C8_10 
REMARK       I    between atoms: C8_10  and  N3_12 
REMARK    3  A    between atoms: N3_12  and  C9_13 
REMARK    4  A    between atoms: C13_19  and  N6_20 
REMARK    5  A    between atoms: N6_20  and  C14_21 
REMARK    6  A    between atoms: C14_21  and  C15_22 
REMARK    7  A    between atoms: C16_23  and  C17_24 
ROOT
HETATM    1  C9  UNL     1      26.148   1.344  51.998  1.00  0.00     0.135 A 
HETATM    2  C10 UNL     1      26.813   1.075  53.319  1.00  0.00     0.035 A 
HETATM    3  C11 UNL     1      26.002   0.322  54.045  1.00  0.00     0.070 A 
HETATM    4  N4  UNL     1      26.220  -0.147  55.302  1.00  0.00    -0.241 NA
HETATM    5  C12 UNL     1      25.298  -0.910  55.929  1.00  0.00     0.235 A 
HETATM    6  N5  UNL     1      24.153  -1.211  55.308  1.00  0.00    -0.224 NA
HETATM    7  C13 UNL     1      23.902  -0.765  54.065  1.00  0.00     0.137 A 
HETATM    8  C18 UNL     1      24.834   0.028  53.383  1.00  0.00     0.037 A 
HETATM    9  C19 UNL     1      24.869   0.605  52.176  1.00  0.00     0.020 A 
ENDROOT
BRANCH   1  10
HETATM   10  N3  UNL     1      25.924   2.759  51.860  1.00  0.00    -0.332 N 
HETATM   11  C8  UNL     1      26.153   3.417  50.619  1.00  0.00     0.316 C 
HETATM   12  N2  UNL     1      25.935   4.807  50.478  1.00  0.00    -0.341 N 
HETATM   13  O1  UNL     1      26.547   2.667  49.714  1.00  0.00    -0.247 OA
HETATM   14  H13 UNL     1      25.602   5.366  51.294  1.00  0.00     0.164 HD
HETATM   15  H14 UNL     1      25.592   3.259  52.707  1.00  0.00     0.165 HD
BRANCH  12  16
HETATM   16  C7  UNL     1      26.162   5.479  49.237  1.00  0.00     0.164 C 
BRANCH  16  17
HETATM   17  C6  UNL     1      25.818   6.954  49.280  1.00  0.00     0.266 C 
HETATM   18  C2  UNL     1      26.350   7.649  48.075  1.00  0.00    -0.055 C 
HETATM   19  C1  UNL     1      25.560   7.970  47.059  1.00  0.00     0.016 C 
HETATM   20  C3  UNL     1      27.811   7.910  48.182  1.00  0.00     0.037 C 
HETATM   21  C4  UNL     1      28.102   8.820  49.364  1.00  0.00     0.034 C 
HETATM   22  C5  UNL     1      26.833   8.858  50.189  1.00  0.00     0.271 C 
HETATM   23  N1  UNL     1      26.388   7.521  50.485  1.00  0.00     0.093 N 
HETATM   24  H9  UNL     1      25.630   7.535  51.200  1.00  0.00     0.316 HD
ENDBRANCH  16  17
ENDBRANCH  12  16
ENDBRANCH   1  10
BRANCH   7  25
HETATM   25  N6  UNL     1      22.682  -1.088  53.407  1.00  0.00    -0.371 N 
HETATM   26  H18 UNL     1      22.667  -1.601  52.522  1.00  0.00     0.161 HD
BRANCH  25  27
HETATM   27  C14 UNL     1      21.419  -0.670  54.018  1.00  0.00     0.148 C 
BRANCH  27  28
HETATM   28  C15 UNL     1      21.058   0.702  53.655  1.00  0.00    -0.009 C 
HETATM   29  C16 UNL     1      20.571   1.241  52.545  1.00  0.00     0.002 C 
BRANCH  29  30
HETATM   30  C17 UNL     1      20.267   0.452  51.323  1.00  0.00     0.249 C 
HETATM   31  F1  UNL     1      21.419   0.067  50.656  1.00  0.00    -0.251 F 
ENDBRANCH  29  30
ENDBRANCH  27  28
ENDBRANCH  25  27
ENDBRANCH   7  25
TORSDOF 7
ENDMDL
MODEL 4
REMARK VINA RESULT:      -7.9      1.794      2.439
REMARK  7 active torsions:
REMARK  status: ('A' for Active; 'I' for Inactive)
REMARK    1  A    between atoms: C6_7  and  C7_8 
REMARK    2  A    between atoms: C7_8  and  N2_9 
REMARK       I    between atoms: N2_9  and  C8_10 
REMARK       I    between atoms: C8_10  and  N3_12 
REMARK    3  A    between atoms: N3_12  and  C9_13 
REMARK    4  A    between atoms: C13_19  and  N6_20 
REMARK    5  A    between atoms: N6_20  and  C14_21 
REMARK    6  A    between atoms: C14_21  and  C15_22 
REMARK    7  A    between atoms: C16_23  and  C17_24 
ROOT
HETATM    1  C9  UNL     1      26.248   5.093  49.080  1.00  0.00     0.135 A 
HETATM    2  C10 UNL     1      26.321   6.594  49.024  1.00  0.00     0.035 A 
HETATM    3  C11 UNL     1      27.531   6.935  48.613  1.00  0.00     0.070 A 
HETATM    4  N4  UNL     1      28.014   8.191  48.426  1.00  0.00    -0.241 NA
HETATM    5  C12 UNL     1      29.280   8.395  48.000  1.00  0.00     0.235 A 
HETATM    6  N5  UNL     1      30.074   7.346  47.758  1.00  0.00    -0.224 NA
HETATM    7  C13 UNL     1      29.632   6.088  47.931  1.00  0.00     0.137 A 
HETATM    8  C18 UNL     1      28.326   5.839  48.372  1.00  0.00     0.037 A 
HETATM    9  C19 UNL     1      27.619   4.732  48.631  1.00  0.00     0.020 A 
ENDROOT
BRANCH   1  10
HETATM   10  N3  UNL     1      26.012   4.681  50.439  1.00  0.00    -0.332 N 
HETATM   11  C8  UNL     1      24.834   3.965  50.791  1.00  0.00     0.316 C 
HETATM   12  N2  UNL     1      24.597   3.559  52.124  1.00  0.00    -0.341 N 
HETATM   13  O1  UNL     1      24.071   3.748  49.838  1.00  0.00    -0.247 OA
HETATM   14  H13 UNL     1      25.294   3.784  52.867  1.00  0.00     0.164 HD
HETATM   15  H14 UNL     1      26.743   4.935  51.131  1.00  0.00     0.165 HD
BRANCH  12  16
HETATM   16  C7  UNL     1      23.417   2.840  52.490  1.00  0.00     0.164 C 
BRANCH  16  17
HETATM   17  C6  UNL     1      23.483   1.364  52.154  1.00  0.00     0.266 C 
HETATM   18  C2  UNL     1      22.113   0.786  52.070  1.00  0.00    -0.055 C 
HETATM   19  C1  UNL     1      21.534   0.551  50.900  1.00  0.00     0.016 C 
HETATM   20  C3  UNL     1      21.533   0.530  53.416  1.00  0.00     0.037 C 
HETATM   21  C4  UNL     1      22.378  -0.481  54.175  1.00  0.00     0.034 C 
HETATM   22  C5  UNL     1      23.676  -0.606  53.406  1.00  0.00     0.271 C 
HETATM   23  N1  UNL     1      24.253   0.695  53.183  1.00  0.00     0.093 N 
HETATM   24  H9  UNL     1      25.227   0.609  52.823  1.00  0.00     0.316 HD
ENDBRANCH  16  17
ENDBRANCH  12  16
ENDBRANCH   1  10
BRANCH   7  25
HETATM   25  N6  UNL     1      30.480   4.975  47.672  1.00  0.00    -0.371 N 
HETATM   26  H18 UNL     1      30.115   4.097  47.296  1.00  0.00     0.161 HD
BRANCH  25  27
HETATM   27  C14 UNL     1      31.911   5.098  47.955  1.00  0.00     0.148 C 
BRANCH  27  28
HETATM   28  C15 UNL     1      32.735   4.736  46.799  1.00  0.00    -0.009 C 
HETATM   29  C16 UNL     1      33.096   3.570  46.281  1.00  0.00     0.002 C 
BRANCH  29  30
HETATM   30  C17 UNL     1      32.680   2.263  46.851  1.00  0.00     0.249 C 
HETATM   31  F1  UNL     1      31.419   1.885  46.416  1.00  0.00    -0.251 F 
ENDBRANCH  29  30
ENDBRANCH  27  28
ENDBRANCH  25  27
ENDBRANCH   7  25
TORSDOF 7
ENDMDL
MODEL 5
REMARK VINA RESULT:      -7.7      1.225      1.690
REMARK  7 active torsions:
REMARK  status: ('A' for Active; 'I' for Inactive)
REMARK    1  A    between atoms: C6_7  and  C7_8 
REMARK    2  A    between atoms: C7_8  and  N2_9 
REMARK       I    between atoms: N2_9  and  C8_10 
REMARK       I    between atoms: C8_10  and  N3_12 
REMARK    3  A    between atoms: N3_12  and  C9_13 
REMARK    4  A    between atoms: C13_19  and  N6_20 
REMARK    5  A    between atoms: N6_20  and  C14_21 
REMARK    6  A    between atoms: C14_21  and  C15_22 
REMARK    7  A    between atoms: C16_23  and  C17_24 
ROOT
HETATM    1  C9  UNL     1      27.156   5.202  48.611  1.00  0.00     0.135 A 
HETATM    2  C10 UNL     1      27.055   6.692  48.428  1.00  0.00     0.035 A 
HETATM    3  C11 UNL     1      28.264   7.159  48.164  1.00  0.00     0.070 A 
HETATM    4  N4  UNL     1      28.615   8.452  47.933  1.00  0.00    -0.241 NA
HETATM    5  C12 UNL     1      29.897   8.790  47.674  1.00  0.00     0.235 A 
HETATM    6  N5  UNL     1      30.839   7.842  47.645  1.00  0.00    -0.224 NA
HETATM    7  C13 UNL     1      30.531   6.552  47.869  1.00  0.00     0.137 A 
HETATM    8  C18 UNL     1      29.213   6.164  48.140  1.00  0.00     0.037 A 
HETATM    9  C19 UNL     1      28.613   4.995  48.397  1.00  0.00     0.020 A 
ENDROOT
BRANCH   1  10
HETATM   10  N3  UNL     1      26.767   4.863  49.955  1.00  0.00    -0.332 N 
HETATM   11  C8  UNL     1      26.410   3.529  50.297  1.00  0.00     0.316 C 
HETATM   12  N2  UNL     1      26.026   3.191  51.615  1.00  0.00    -0.341 N 
HETATM   13  O1  UNL     1      26.470   2.731  49.350  1.00  0.00    -0.247 OA
HETATM   14  H13 UNL     1      26.002   3.927  52.354  1.00  0.00     0.164 HD
HETATM   15  H14 UNL     1      26.764   5.639  50.644  1.00  0.00     0.165 HD
BRANCH  12  16
HETATM   16  C7  UNL     1      25.664   1.854  51.971  1.00  0.00     0.164 C 
BRANCH  16  17
HETATM   17  C6  UNL     1      26.804   1.065  52.581  1.00  0.00     0.266 C 
HETATM   18  C2  UNL     1      26.384  -0.339  52.847  1.00  0.00    -0.055 C 
HETATM   19  C1  UNL     1      26.743  -1.331  52.043  1.00  0.00     0.016 C 
HETATM   20  C3  UNL     1      25.551  -0.448  54.075  1.00  0.00     0.037 C 
HETATM   21  C4  UNL     1      26.341  -0.001  55.294  1.00  0.00     0.034 C 
HETATM   22  C5  UNL     1      27.574   0.699  54.763  1.00  0.00     0.271 C 
HETATM   23  N1  UNL     1      27.203   1.716  53.813  1.00  0.00     0.093 N 
HETATM   24  H9  UNL     1      28.018   2.322  53.583  1.00  0.00     0.316 HD
ENDBRANCH  16  17
ENDBRANCH  12  16
ENDBRANCH   1  10
BRANCH   7  25
HETATM   25  N6  UNL     1      31.536   5.546  47.837  1.00  0.00    -0.371 N 
HETATM   26  H18 UNL     1      31.303   4.554  47.743  1.00  0.00     0.161 HD
BRANCH  25  27
HETATM   27  C14 UNL     1      32.940   5.947  47.942  1.00  0.00     0.148 C 
BRANCH  27  28
HETATM   28  C15 UNL     1      33.747   5.427  46.835  1.00  0.00    -0.009 C 
HETATM   29  C16 UNL     1      34.546   4.374  46.722  1.00  0.00     0.002 C 
BRANCH  29  30
HETATM   30  C17 UNL     1      34.796   3.419  47.832  1.00  0.00     0.249 C 
HETATM   31  F1  UNL     1      33.737   2.543  48.010  1.00  0.00    -0.251 F 
ENDBRANCH  29  30
ENDBRANCH  27  28
ENDBRANCH  25  27
ENDBRANCH   7  25
TORSDOF 7
ENDMDL
MODEL 6
REMARK VINA RESULT:      -7.6      1.632      2.342
REMARK  7 active torsions:
REMARK  status: ('A' for Active; 'I' for Inactive)
REMARK    1  A    between atoms: C6_7  and  C7_8 
REMARK    2  A    between atoms: C7_8  and  N2_9 
REMARK       I    between atoms: N2_9  and  C8_10 
REMARK       I    between atoms: C8_10  and  N3_12 
REMARK    3  A    between atoms: N3_12  and  C9_13 
REMARK    4  A    between atoms: C13_19  and  N6_20 
REMARK    5  A    between atoms: N6_20  and  C14_21 
REMARK    6  A    between atoms: C14_21  and  C15_22 
REMARK    7  A    between atoms: C16_23  and  C17_24 
ROOT
HETATM    1  C9  UNL     1      28.150   6.356  48.175  1.00  0.00     0.135 A 
HETATM    2  C10 UNL     1      28.736   7.729  47.989  1.00  0.00     0.035 A 
HETATM    3  C11 UNL     1      30.051   7.635  48.092  1.00  0.00     0.070 A 
HETATM    4  N4  UNL     1      30.959   8.641  47.988  1.00  0.00    -0.241 NA
HETATM    5  C12 UNL     1      32.283   8.402  48.115  1.00  0.00     0.235 A 
HETATM    6  N5  UNL     1      32.710   7.156  48.347  1.00  0.00    -0.224 NA
HETATM    7  C13 UNL     1      31.843   6.135  48.457  1.00  0.00     0.137 A 
HETATM    8  C18 UNL     1      30.464   6.346  48.331  1.00  0.00     0.037 A 
HETATM    9  C19 UNL     1      29.385   5.555  48.389  1.00  0.00     0.020 A 
ENDROOT
BRANCH   1  10
HETATM   10  N3  UNL     1      27.311   6.354  49.345  1.00  0.00    -0.332 N 
HETATM   11  C8  UNL     1      26.293   5.375  49.511  1.00  0.00     0.316 C 
HETATM   12  N2  UNL     1      25.466   5.368  50.658  1.00  0.00    -0.341 N 
HETATM   13  O1  UNL     1      26.216   4.562  48.578  1.00  0.00    -0.247 OA
HETATM   14  H13 UNL     1      25.599   6.092  51.398  1.00  0.00     0.164 HD
HETATM   15  H14 UNL     1      27.494   7.099  50.045  1.00  0.00     0.165 HD
BRANCH  12  16
HETATM   16  C7  UNL     1      24.439   4.389  50.836  1.00  0.00     0.164 C 
BRANCH  16  17
HETATM   17  C6  UNL     1      24.972   2.981  51.000  1.00  0.00     0.266 C 
HETATM   18  C2  UNL     1      24.146   2.221  51.978  1.00  0.00    -0.055 C 
HETATM   19  C1  UNL     1      23.244   1.334  51.578  1.00  0.00     0.016 C 
HETATM   20  C3  UNL     1      24.468   2.588  53.384  1.00  0.00     0.037 C 
HETATM   21  C4  UNL     1      25.918   2.256  53.700  1.00  0.00     0.034 C 
HETATM   22  C5  UNL     1      26.586   1.979  52.370  1.00  0.00     0.271 C 
HETATM   23  N1  UNL     1      26.346   3.063  51.453  1.00  0.00     0.093 N 
HETATM   24  H9  UNL     1      26.948   2.971  50.608  1.00  0.00     0.316 HD
ENDBRANCH  16  17
ENDBRANCH  12  16
ENDBRANCH   1  10
BRANCH   7  25
HETATM   25  N6  UNL     1      32.302   4.811  48.705  1.00  0.00    -0.371 N 
HETATM   26  H18 UNL     1      32.189   4.364  49.618  1.00  0.00     0.161 HD
BRANCH  25  27
HETATM   27  C14 UNL     1      32.953   4.076  47.619  1.00  0.00     0.148 C 
BRANCH  27  28
HETATM   28  C15 UNL     1      31.984   3.422  46.736  1.00  0.00    -0.009 C 
HETATM   29  C16 UNL     1      31.730   2.149  46.466  1.00  0.00     0.002 C 
BRANCH  29  30
HETATM   30  C17 UNL     1      32.473   1.022  47.084  1.00  0.00     0.249 C 
HETATM   31  F1  UNL     1      31.933  -0.207  46.740  1.00  0.00    -0.251 F 
ENDBRANCH  29  30
ENDBRANCH  27  28
ENDBRANCH  25  27
ENDBRANCH   7  25
TORSDOF 7
ENDMDL
MODEL 7
REMARK VINA RESULT:      -7.4      2.376      8.127
REMARK  7 active torsions:
REMARK  status: ('A' for Active; 'I' for Inactive)
REMARK    1  A    between atoms: C6_7  and  C7_8 
REMARK    2  A    between atoms: C7_8  and  N2_9 
REMARK       I    between atoms: N2_9  and  C8_10 
REMARK       I    between atoms: C8_10  and  N3_12 
REMARK    3  A    between atoms: N3_12  and  C9_13 
REMARK    4  A    between atoms: C13_19  and  N6_20 
REMARK    5  A    between atoms: N6_20  and  C14_21 
REMARK    6  A    between atoms: C14_21  and  C15_22 
REMARK    7  A    between atoms: C16_23  and  C17_24 
ROOT
HETATM    1  C9  UNL     1      25.089   4.636  50.219  1.00  0.00     0.135 A 
HETATM    2  C10 UNL     1      24.112   4.126  49.195  1.00  0.00     0.035 A 
HETATM    3  C11 UNL     1      23.476   3.087  49.711  1.00  0.00     0.070 A 
HETATM    4  N4  UNL     1      22.512   2.334  49.119  1.00  0.00    -0.241 NA
HETATM    5  C12 UNL     1      21.943   1.295  49.768  1.00  0.00     0.235 A 
HETATM    6  N5  UNL     1      22.331   0.999  51.013  1.00  0.00    -0.224 NA
HETATM    7  C13 UNL     1      23.282   1.720  51.632  1.00  0.00     0.137 A 
HETATM    8  C18 UNL     1      23.894   2.805  50.991  1.00  0.00     0.037 A 
HETATM    9  C19 UNL     1      24.841   3.686  51.335  1.00  0.00     0.020 A 
ENDROOT
BRANCH   1  10
HETATM   10  N3  UNL     1      26.426   4.507  49.703  1.00  0.00    -0.332 N 
HETATM   11  C8  UNL     1      27.032   5.565  48.971  1.00  0.00     0.316 C 
HETATM   12  N2  UNL     1      28.346   5.444  48.462  1.00  0.00    -0.341 N 
HETATM   13  O1  UNL     1      26.310   6.565  48.836  1.00  0.00    -0.247 OA
HETATM   14  H13 UNL     1      28.885   4.565  48.622  1.00  0.00     0.164 HD
HETATM   15  H14 UNL     1      26.911   3.609  49.895  1.00  0.00     0.165 HD
BRANCH  12  16
HETATM   16  C7  UNL     1      28.965   6.501  47.724  1.00  0.00     0.164 C 
BRANCH  16  17
HETATM   17  C6  UNL     1      30.276   6.965  48.324  1.00  0.00     0.266 C 
HETATM   18  C2  UNL     1      31.360   6.927  47.303  1.00  0.00    -0.055 C 
HETATM   19  C1  UNL     1      31.779   8.031  46.701  1.00  0.00     0.016 C 
HETATM   20  C3  UNL     1      31.864   5.545  47.078  1.00  0.00     0.037 C 
HETATM   21  C4  UNL     1      32.463   4.984  48.358  1.00  0.00     0.034 C 
HETATM   22  C5  UNL     1      32.028   5.915  49.470  1.00  0.00     0.271 C 
HETATM   23  N1  UNL     1      30.600   6.098  49.440  1.00  0.00     0.093 N 
HETATM   24  H9  UNL     1      30.272   6.581  50.302  1.00  0.00     0.316 HD
ENDBRANCH  16  17
ENDBRANCH  12  16
ENDBRANCH   1  10
BRANCH   7  25
HETATM   25  N6  UNL     1      23.692   1.402  52.957  1.00  0.00    -0.371 N 
HETATM   26  H18 UNL     1      23.837   2.126  53.664  1.00  0.00     0.161 HD
BRANCH  25  27
HETATM   27  C14 UNL     1      23.913  -0.002  53.309  1.00  0.00     0.148 C 
BRANCH  27  28
HETATM   28  C15 UNL     1      25.203  -0.209  53.971  1.00  0.00    -0.009 C 
HETATM   29  C16 UNL     1      26.432  -0.395  53.509  1.00  0.00     0.002 C 
BRANCH  29  30
HETATM   30  C17 UNL     1      26.760  -0.431  52.060  1.00  0.00     0.249 C 
HETATM   31  F1  UNL     1      26.648   0.819  51.473  1.00  0.00    -0.251 F 
ENDBRANCH  29  30
ENDBRANCH  27  28
ENDBRANCH  25  27
ENDBRANCH   7  25
TORSDOF 7
ENDMDL
MODEL 8
REMARK VINA RESULT:      -7.4      1.874      2.253
REMARK  7 active torsions:
REMARK  status: ('A' for Active; 'I' for Inactive)
REMARK    1  A    between atoms: C6_7  and  C7_8 
REMARK    2  A    between atoms: C7_8  and  N2_9 
REMARK       I    between atoms: N2_9  and  C8_10 
REMARK       I    between atoms: C8_10  and  N3_12 
REMARK    3  A    between atoms: N3_12  and  C9_13 
REMARK    4  A    between atoms: C13_19  and  N6_20 
REMARK    5  A    between atoms: N6_20  and  C14_21 
REMARK    6  A    between atoms: C14_21  and  C15_22 
REMARK    7  A    between atoms: C16_23  and  C17_24 
ROOT
HETATM    1  C9  UNL     1      27.347   5.959  48.446  1.00  0.00     0.135 A 
HETATM    2  C10 UNL     1      27.571   7.444  48.523  1.00  0.00     0.035 A 
HETATM    3  C11 UNL     1      28.870   7.673  48.426  1.00  0.00     0.070 A 
HETATM    4  N4  UNL     1      29.498   8.877  48.450  1.00  0.00    -0.241 NA
HETATM    5  C12 UNL     1      30.843   8.964  48.341  1.00  0.00     0.235 A 
HETATM    6  N5  UNL     1      31.569   7.850  48.207  1.00  0.00    -0.224 NA
HETATM    7  C13 UNL     1      30.984   6.640  48.179  1.00  0.00     0.137 A 
HETATM    8  C18 UNL     1      29.594   6.511  48.289  1.00  0.00     0.037 A 
HETATM    9  C19 UNL     1      28.745   5.475  48.296  1.00  0.00     0.020 A 
ENDROOT
BRANCH   1  10
HETATM   10  N3  UNL     1      26.761   5.504  49.680  1.00  0.00    -0.332 N 
HETATM   11  C8  UNL     1      25.368   5.231  49.770  1.00  0.00     0.316 C 
HETATM   12  N2  UNL     1      24.788   4.785  50.979  1.00  0.00    -0.341 N 
HETATM   13  O1  UNL     1      24.747   5.421  48.714  1.00  0.00    -0.247 OA
HETATM   14  H13 UNL     1      25.386   4.651  51.824  1.00  0.00     0.164 HD
HETATM   15  H14 UNL     1      27.409   5.390  50.483  1.00  0.00     0.165 HD
BRANCH  12  16
HETATM   16  C7  UNL     1      23.388   4.509  51.082  1.00  0.00     0.164 C 
BRANCH  16  17
HETATM   17  C6  UNL     1      23.029   3.670  52.292  1.00  0.00     0.266 C 
HETATM   18  C2  UNL     1      23.961   2.516  52.423  1.00  0.00    -0.055 C 
HETATM   19  C1  UNL     1      24.952   2.526  53.304  1.00  0.00     0.016 C 
HETATM   20  C3  UNL     1      23.629   1.421  51.471  1.00  0.00     0.037 C 
HETATM   21  C4  UNL     1      22.236   0.880  51.750  1.00  0.00     0.034 C 
HETATM   22  C5  UNL     1      21.575   1.875  52.680  1.00  0.00     0.271 C 
HETATM   23  N1  UNL     1      21.665   3.205  52.136  1.00  0.00     0.093 N 
HETATM   24  H9  UNL     1      21.059   3.863  52.670  1.00  0.00     0.316 HD
ENDBRANCH  16  17
ENDBRANCH  12  16
ENDBRANCH   1  10
BRANCH   7  25
HETATM   25  N6  UNL     1      31.761   5.457  48.036  1.00  0.00    -0.371 N 
HETATM   26  H18 UNL     1      32.137   4.958  48.847  1.00  0.00     0.161 HD
BRANCH  25  27
HETATM   27  C14 UNL     1      32.026   4.945  46.690  1.00  0.00     0.148 C 
BRANCH  27  28
HETATM   28  C15 UNL     1      32.218   3.493  46.680  1.00  0.00    -0.009 C 
HETATM   29  C16 UNL     1      33.281   2.725  46.872  1.00  0.00     0.002 C 
BRANCH  29  30
HETATM   30  C17 UNL     1      34.633   3.265  47.168  1.00  0.00     0.249 C 
HETATM   31  F1  UNL     1      35.013   3.021  48.478  1.00  0.00    -0.251 F 
ENDBRANCH  29  30
ENDBRANCH  27  28
ENDBRANCH  25  27
ENDBRANCH   7  25
TORSDOF 7
ENDMDL
MODEL 9
REMARK VINA RESULT:      -7.4      3.424      8.790
REMARK  7 active torsions:
REMARK  status: ('A' for Active; 'I' for Inactive)
REMARK    1  A    between atoms: C6_7  and  C7_8 
REMARK    2  A    between atoms: C7_8  and  N2_9 
REMARK       I    between atoms: N2_9  and  C8_10 
REMARK       I    between atoms: C8_10  and  N3_12 
REMARK    3  A    between atoms: N3_12  and  C9_13 
REMARK    4  A    between atoms: C13_19  and  N6_20 
REMARK    5  A    between atoms: N6_20  and  C14_21 
REMARK    6  A    between atoms: C14_21  and  C15_22 
REMARK    7  A    between atoms: C16_23  and  C17_24 
ROOT
HETATM    1  C9  UNL     1      25.698   4.932  49.523  1.00  0.00     0.135 A 
HETATM    2  C10 UNL     1      26.653   3.805  49.806  1.00  0.00     0.035 A 
HETATM    3  C11 UNL     1      26.047   2.939  50.602  1.00  0.00     0.070 A 
HETATM    4  N4  UNL     1      26.555   1.781  51.098  1.00  0.00    -0.241 NA
HETATM    5  C12 UNL     1      25.819   0.986  51.905  1.00  0.00     0.235 A 
HETATM    6  N5  UNL     1      24.570   1.341  52.224  1.00  0.00    -0.224 NA
HETATM    7  C13 UNL     1      24.032   2.480  51.754  1.00  0.00     0.137 A 
HETATM    8  C18 UNL     1      24.765   3.329  50.914  1.00  0.00     0.037 A 
HETATM    9  C19 UNL     1      24.512   4.494  50.305  1.00  0.00     0.020 A 
ENDROOT
BRANCH   1  10
HETATM   10  N3  UNL     1      26.247   6.158  50.039  1.00  0.00    -0.332 N 
HETATM   11  C8  UNL     1      27.038   7.008  49.217  1.00  0.00     0.316 C 
HETATM   12  N2  UNL     1      27.579   8.214  49.719  1.00  0.00    -0.341 N 
HETATM   13  O1  UNL     1      27.192   6.591  48.060  1.00  0.00    -0.247 OA
HETATM   14  H13 UNL     1      27.400   8.491  50.709  1.00  0.00     0.164 HD
HETATM   15  H14 UNL     1      26.032   6.379  51.031  1.00  0.00     0.165 HD
BRANCH  12  16
HETATM   16  C7  UNL     1      28.377   9.075  48.902  1.00  0.00     0.164 C 
BRANCH  16  17
HETATM   17  C6  UNL     1      29.769   9.306  49.452  1.00  0.00     0.266 C 
HETATM   18  C2  UNL     1      30.501  10.300  48.619  1.00  0.00    -0.055 C 
HETATM   19  C1  UNL     1      30.641  11.560  49.012  1.00  0.00     0.016 C 
HETATM   20  C3  UNL     1      31.016   9.699  47.360  1.00  0.00     0.037 C 
HETATM   21  C4  UNL     1      32.007   8.588  47.668  1.00  0.00     0.034 C 
HETATM   22  C5  UNL     1      31.854   8.286  49.144  1.00  0.00     0.271 C 
HETATM   23  N1  UNL     1      30.472   8.039  49.464  1.00  0.00     0.093 N 
HETATM   24  H9  UNL     1      30.380   7.652  50.426  1.00  0.00     0.316 HD
ENDBRANCH  16  17
ENDBRANCH  12  16
ENDBRANCH   1  10
BRANCH   7  25
HETATM   25  N6  UNL     1      22.703   2.855  52.095  1.00  0.00    -0.371 N 
HETATM   26  H18 UNL     1      22.454   3.159  53.040  1.00  0.00     0.161 HD
BRANCH  25  27
HETATM   27  C14 UNL     1      21.667   2.802  51.061  1.00  0.00     0.148 C 
BRANCH  27  28
HETATM   28  C15 UNL     1      21.514   1.457  50.502  1.00  0.00    -0.009 C 
HETATM   29  C16 UNL     1      21.603   0.980  49.268  1.00  0.00     0.002 C 
BRANCH  29  30
HETATM   30  C17 UNL     1      21.913   1.828  48.088  1.00  0.00     0.249 C 
HETATM   31  F1  UNL     1      23.212   2.308  48.121  1.00  0.00    -0.251 F 
ENDBRANCH  29  30
ENDBRANCH  27  28
ENDBRANCH  25  27
ENDBRANCH   7  25
TORSDOF 7
ENDMDL
