MODEL 1
REMARK VINA RESULT:      -7.0      0.000      0.000
REMARK  9 active torsions:
REMARK  status: ('A' for Active; 'I' for Inactive)
REMARK    1  A    between atoms: C2_2  and  C3_3 
REMARK    2  A    between atoms: C3_3  and  C4_4 
REMARK    3  A    between atoms: C4_4  and  N1_5 
REMARK    4  A    between atoms: N1_5  and  C5_6 
REMARK    5  A    between atoms: C5_6  and  N2_8 
REMARK    6  A    between atoms: N2_8  and  C6_9 
REMARK    7  A    between atoms: C9_12  and  C10_13 
REMARK    8  A    between atoms: C10_13  and  C11_14 
REMARK    9  A    between atoms: C16_20  and  O1_21 
ROOT
HETATM    1  C6  UNL     1      23.253   4.752  52.191  1.00  0.00     0.012 A 
HETATM    2  C7  UNL     1      22.044   4.422  51.925  1.00  0.00    -0.001 A 
HETATM    3  C8  UNL     1      22.266   3.019  52.211  1.00  0.00     0.040 A 
HETATM    4  C9  UNL     1      23.667   3.395  52.493  1.00  0.00     0.043 A 
ENDROOT
BRANCH   1   5
HETATM    5  N2  UNL     1      24.078   5.907  52.224  1.00  0.00    -0.337 N 
HETATM    6  H11 UNL     1      24.465   6.067  53.174  1.00  0.00     0.168 HD
BRANCH   5   7
HETATM    7  C5  UNL     1      24.461   6.838  51.230  1.00  0.00     0.172 C 
HETATM    8  S1  UNL     1      23.362   7.770  50.490  1.00  0.00    -0.041 SA
BRANCH   7   9
HETATM    9  N1  UNL     1      25.717   7.165  50.677  1.00  0.00    -0.367 N 
HETATM   10  H10 UNL     1      26.216   7.763  51.357  1.00  0.00     0.161 HD
BRANCH   9  11
HETATM   11  C4  UNL     1      26.410   6.865  49.442  1.00  0.00     0.122 C 
BRANCH  11  12
HETATM   12  C3  UNL     1      26.224   5.409  49.129  1.00  0.00     0.019 C 
BRANCH  12  13
HETATM   13  C2  UNL     1      27.560   4.828  48.655  1.00  0.00    -0.003 C 
HETATM   14  C1  UNL     1      28.543   5.886  48.277  1.00  0.00     0.005 C 
ENDBRANCH  12  13
ENDBRANCH  11  12
ENDBRANCH   9  11
ENDBRANCH   7   9
ENDBRANCH   5   7
ENDBRANCH   1   5
BRANCH   4  15
HETATM   15  C10 UNL     1      24.702   2.727  51.616  1.00  0.00     0.052 C 
BRANCH  15  16
HETATM   16  C11 UNL     1      25.518   1.701  52.280  1.00  0.00    -0.023 A 
HETATM   17  C12 UNL     1      24.762   0.575  52.650  1.00  0.00     0.010 A 
HETATM   18  C13 UNL     1      25.316  -0.535  53.277  1.00  0.00     0.002 A 
HETATM   19  C14 UNL     1      26.663  -0.558  53.560  1.00  0.00     0.022 A 
HETATM   20  C15 UNL     1      27.422   0.519  53.213  1.00  0.00     0.044 A 
HETATM   21 BR1  UNL     1      29.298   0.617  53.547  1.00  0.00    -0.048 Br
HETATM   22  C16 UNL     1      26.847   1.601  52.595  1.00  0.00     0.089 A 
BRANCH  22  23
HETATM   23  O1  UNL     1      27.574   2.718  52.227  1.00  0.00    -0.359 OA
HETATM   24  H21 UNL     1      28.145   2.667  51.383  1.00  0.00     0.217 HD
ENDBRANCH  22  23
ENDBRANCH  15  16
ENDBRANCH   4  15
TORSDOF 9
ENDMDL
MODEL 2
REMARK VINA RESULT:      -6.9      4.065      6.146
REMARK  9 active torsions:
REMARK  status: ('A' for Active; 'I' for Inactive)
REMARK    1  A    between atoms: C2_2  and  C3_3 
REMARK    2  A    between atoms: C3_3  and  C4_4 
REMARK    3  A    between atoms: C4_4  and  N1_5 
REMARK    4  A    between atoms: N1_5  and  C5_6 
REMARK    5  A    between atoms: C5_6  and  N2_8 
REMARK    6  A    between atoms: N2_8  and  C6_9 
REMARK    7  A    between atoms: C9_12  and  C10_13 
REMARK    8  A    between atoms: C10_13  and  C11_14 
REMARK    9  A    between atoms: C16_20  and  O1_21 
ROOT
HETATM    1  C6  UNL     1      23.350  -0.726  54.161  1.00  0.00     0.012 A 
HETATM    2  C7  UNL     1      22.175  -1.106  54.504  1.00  0.00    -0.001 A 
HETATM    3  C8  UNL     1      21.531  -0.424  53.401  1.00  0.00     0.040 A 
HETATM    4  C9  UNL     1      22.882   0.036  53.019  1.00  0.00     0.043 A 
ENDROOT
BRANCH   1   5
HETATM    5  N2  UNL     1      24.697  -0.857  54.587  1.00  0.00    -0.337 N 
HETATM    6  H11 UNL     1      24.756  -1.337  55.506  1.00  0.00     0.168 HD
BRANCH   5   7
HETATM    7  C5  UNL     1      25.927  -0.476  54.003  1.00  0.00     0.172 C 
HETATM    8  S1  UNL     1      26.412  -1.103  52.591  1.00  0.00    -0.041 SA
BRANCH   7   9
HETATM    9  N1  UNL     1      26.934   0.418  54.423  1.00  0.00    -0.367 N 
HETATM   10  H10 UNL     1      26.590   1.380  54.266  1.00  0.00     0.161 HD
BRANCH   9  11
HETATM   11  C4  UNL     1      28.261   0.285  54.987  1.00  0.00     0.122 C 
BRANCH  11  12
HETATM   12  C3  UNL     1      29.227   1.049  54.130  1.00  0.00     0.019 C 
BRANCH  12  13
HETATM   13  C2  UNL     1      30.031   0.059  53.282  1.00  0.00    -0.003 C 
HETATM   14  C1  UNL     1      29.981  -1.332  53.823  1.00  0.00     0.005 C 
ENDBRANCH  12  13
ENDBRANCH  11  12
ENDBRANCH   9  11
ENDBRANCH   7   9
ENDBRANCH   5   7
ENDBRANCH   1   5
BRANCH   4  15
HETATM   15  C10 UNL     1      23.073   1.536  53.005  1.00  0.00     0.052 C 
BRANCH  15  16
HETATM   16  C11 UNL     1      23.513   2.100  51.721  1.00  0.00    -0.023 A 
HETATM   17  C12 UNL     1      22.497   2.073  50.749  1.00  0.00     0.010 A 
HETATM   18  C13 UNL     1      22.668   2.567  49.462  1.00  0.00     0.002 A 
HETATM   19  C14 UNL     1      23.877   3.113  49.095  1.00  0.00     0.022 A 
HETATM   20  C15 UNL     1      24.881   3.153  50.015  1.00  0.00     0.044 A 
HETATM   21 BR1  UNL     1      26.604   3.881  49.640  1.00  0.00    -0.048 Br
HETATM   22  C16 UNL     1      24.682   2.657  51.279  1.00  0.00     0.089 A 
BRANCH  22  23
HETATM   23  O1  UNL     1      25.671   2.673  52.246  1.00  0.00    -0.359 OA
HETATM   24  H21 UNL     1      25.453   2.295  53.167  1.00  0.00     0.217 HD
ENDBRANCH  22  23
ENDBRANCH  15  16
ENDBRANCH   4  15
TORSDOF 9
ENDMDL
MODEL 3
REMARK VINA RESULT:      -6.8      3.147      5.513
REMARK  9 active torsions:
REMARK  status: ('A' for Active; 'I' for Inactive)
REMARK    1  A    between atoms: C2_2  and  C3_3 
REMARK    2  A    between atoms: C3_3  and  C4_4 
REMARK    3  A    between atoms: C4_4  and  N1_5 
REMARK    4  A    between atoms: N1_5  and  C5_6 
REMARK    5  A    between atoms: C5_6  and  N2_8 
REMARK    6  A    between atoms: N2_8  and  C6_9 
REMARK    7  A    between atoms: C9_12  and  C10_13 
REMARK    8  A    between atoms: C10_13  and  C11_14 
REMARK    9  A    between atoms: C16_20  and  O1_21 
ROOT
HETATM    1  C6  UNL     1      22.385   3.575  52.057  1.00  0.00     0.012 A 
HETATM    2  C7  UNL     1      22.428   4.810  51.719  1.00  0.00    -0.001 A 
HETATM    3  C8  UNL     1      23.874   4.828  51.620  1.00  0.00     0.040 A 
HETATM    4  C9  UNL     1      23.826   3.411  52.036  1.00  0.00     0.043 A 
ENDROOT
BRANCH   1   5
HETATM    5  N2  UNL     1      21.432   2.577  52.389  1.00  0.00    -0.337 N 
HETATM    6  H11 UNL     1      20.877   2.848  53.223  1.00  0.00     0.168 HD
BRANCH   5   7
HETATM    7  C5  UNL     1      21.108   1.330  51.804  1.00  0.00     0.172 C 
HETATM    8  S1  UNL     1      21.547   0.981  50.284  1.00  0.00    -0.041 SA
BRANCH   7   9
HETATM    9  N1  UNL     1      20.409   0.209  52.297  1.00  0.00    -0.367 N 
HETATM   10  H10 UNL     1      20.079  -0.341  51.487  1.00  0.00     0.161 HD
BRANCH   9  11
HETATM   11  C4  UNL     1      20.074  -0.300  53.610  1.00  0.00     0.122 C 
BRANCH  11  12
HETATM   12  C3  UNL     1      21.258  -0.118  54.513  1.00  0.00     0.019 C 
BRANCH  12  13
HETATM   13  C2  UNL     1      22.076  -1.412  54.529  1.00  0.00    -0.003 C 
HETATM   14  C1  UNL     1      23.174  -1.384  55.541  1.00  0.00     0.005 C 
ENDBRANCH  12  13
ENDBRANCH  11  12
ENDBRANCH   9  11
ENDBRANCH   7   9
ENDBRANCH   5   7
ENDBRANCH   1   5
BRANCH   4  15
HETATM   15  C10 UNL     1      24.551   3.092  53.324  1.00  0.00     0.052 C 
BRANCH  15  16
HETATM   16  C11 UNL     1      25.393   1.888  53.287  1.00  0.00    -0.023 A 
HETATM   17  C12 UNL     1      24.695   0.763  52.812  1.00  0.00     0.010 A 
HETATM   18  C13 UNL     1      25.284  -0.487  52.669  1.00  0.00     0.002 A 
HETATM   19  C14 UNL     1      26.609  -0.661  53.002  1.00  0.00     0.022 A 
HETATM   20  C15 UNL     1      27.311   0.411  53.465  1.00  0.00     0.044 A 
HETATM   21 BR1  UNL     1      29.150   0.310  53.961  1.00  0.00    -0.048 Br
HETATM   22  C16 UNL     1      26.702   1.634  53.595  1.00  0.00     0.089 A 
BRANCH  22  23
HETATM   23  O1  UNL     1      27.372   2.750  54.063  1.00  0.00    -0.359 OA
HETATM   24  H21 UNL     1      28.196   2.611  54.647  1.00  0.00     0.217 HD
ENDBRANCH  22  23
ENDBRANCH  15  16
ENDBRANCH   4  15
TORSDOF 9
ENDMDL
MODEL 4
REMARK VINA RESULT:      -6.8      2.571      3.678
REMARK  9 active torsions:
REMARK  status: ('A' for Active; 'I' for Inactive)
REMARK    1  A    between atoms: C2_2  and  C3_3 
REMARK    2  A    between atoms: C3_3  and  C4_4 
REMARK    3  A    between atoms: C4_4  and  N1_5 
REMARK    4  A    between atoms: N1_5  and  C5_6 
REMARK    5  A    between atoms: C5_6  and  N2_8 
REMARK    6  A    between atoms: N2_8  and  C6_9 
REMARK    7  A    between atoms: C9_12  and  C10_13 
REMARK    8  A    between atoms: C10_13  and  C11_14 
REMARK    9  A    between atoms: C16_20  and  O1_21 
ROOT
HETATM    1  C6  UNL     1      22.140   0.291  52.872  1.00  0.00     0.012 A 
HETATM    2  C7  UNL     1      21.333  -0.390  53.598  1.00  0.00    -0.001 A 
HETATM    3  C8  UNL     1      22.352  -0.742  54.565  1.00  0.00     0.040 A 
HETATM    4  C9  UNL     1      23.289   0.022  53.716  1.00  0.00     0.043 A 
ENDROOT
BRANCH   1   5
HETATM    5  N2  UNL     1      22.137   1.059  51.679  1.00  0.00    -0.337 N 
HETATM    6  H11 UNL     1      22.006   0.457  50.843  1.00  0.00     0.168 HD
BRANCH   5   7
HETATM    7  C5  UNL     1      22.265   2.446  51.433  1.00  0.00     0.172 C 
HETATM    8  S1  UNL     1      21.160   3.246  50.560  1.00  0.00    -0.041 SA
BRANCH   7   9
HETATM    9  N1  UNL     1      23.247   3.385  51.813  1.00  0.00    -0.367 N 
HETATM   10  H10 UNL     1      23.025   3.706  52.770  1.00  0.00     0.161 HD
BRANCH   9  11
HETATM   11  C4  UNL     1      24.421   3.959  51.188  1.00  0.00     0.122 C 
BRANCH  11  12
HETATM   12  C3  UNL     1      24.924   3.007  50.144  1.00  0.00     0.019 C 
BRANCH  12  13
HETATM   13  C2  UNL     1      26.444   3.153  50.028  1.00  0.00    -0.003 C 
HETATM   14  C1  UNL     1      26.845   4.321  49.188  1.00  0.00     0.005 C 
ENDBRANCH  12  13
ENDBRANCH  11  12
ENDBRANCH   9  11
ENDBRANCH   7   9
ENDBRANCH   5   7
ENDBRANCH   1   5
BRANCH   4  15
HETATM   15  C10 UNL     1      24.446  -0.775  53.155  1.00  0.00     0.052 C 
BRANCH  15  16
HETATM   16  C11 UNL     1      25.767  -0.147  53.300  1.00  0.00    -0.023 A 
HETATM   17  C12 UNL     1      25.683   1.251  53.426  1.00  0.00     0.010 A 
HETATM   18  C13 UNL     1      26.798   2.063  53.593  1.00  0.00     0.002 A 
HETATM   19  C14 UNL     1      28.053   1.499  53.641  1.00  0.00     0.022 A 
HETATM   20  C15 UNL     1      28.166   0.147  53.522  1.00  0.00     0.044 A 
HETATM   21 BR1  UNL     1      29.842  -0.763  53.571  1.00  0.00    -0.048 Br
HETATM   22  C16 UNL     1      27.047  -0.630  53.357  1.00  0.00     0.089 A 
BRANCH  22  23
HETATM   23  O1  UNL     1      27.110  -2.006  53.230  1.00  0.00    -0.359 OA
HETATM   24  H21 UNL     1      26.325  -2.488  52.794  1.00  0.00     0.217 HD
ENDBRANCH  22  23
ENDBRANCH  15  16
ENDBRANCH   4  15
TORSDOF 9
ENDMDL
MODEL 5
REMARK VINA RESULT:      -6.7      1.528      2.097
REMARK  9 active torsions:
REMARK  status: ('A' for Active; 'I' for Inactive)
REMARK    1  A    between atoms: C2_2  and  C3_3 
REMARK    2  A    between atoms: C3_3  and  C4_4 
REMARK    3  A    between atoms: C4_4  and  N1_5 
REMARK    4  A    between atoms: N1_5  and  C5_6 
REMARK    5  A    between atoms: C5_6  and  N2_8 
REMARK    6  A    between atoms: N2_8  and  C6_9 
REMARK    7  A    between atoms: C9_12  and  C10_13 
REMARK    8  A    between atoms: C10_13  and  C11_14 
REMARK    9  A    between atoms: C16_20  and  O1_21 
ROOT
HETATM    1  C6  UNL     1      22.557   4.293  52.232  1.00  0.00     0.012 A 
HETATM    2  C7  UNL     1      21.335   4.258  51.849  1.00  0.00    -0.001 A 
HETATM    3  C8  UNL     1      21.158   2.871  52.230  1.00  0.00     0.040 A 
HETATM    4  C9  UNL     1      22.575   2.904  52.648  1.00  0.00     0.043 A 
ENDROOT
BRANCH   1   5
HETATM    5  N2  UNL     1      23.645   5.202  52.297  1.00  0.00    -0.337 N 
HETATM    6  H11 UNL     1      23.992   5.305  53.270  1.00  0.00     0.168 HD
BRANCH   5   7
HETATM    7  C5  UNL     1      24.323   5.957  51.311  1.00  0.00     0.172 C 
HETATM    8  S1  UNL     1      23.852   7.461  50.941  1.00  0.00    -0.041 SA
BRANCH   7   9
HETATM    9  N1  UNL     1      25.428   5.657  50.487  1.00  0.00    -0.367 N 
HETATM   10  H10 UNL     1      26.281   5.981  50.972  1.00  0.00     0.161 HD
BRANCH   9  11
HETATM   11  C4  UNL     1      25.610   5.037  49.192  1.00  0.00     0.122 C 
BRANCH  11  12
HETATM   12  C3  UNL     1      24.863   3.736  49.173  1.00  0.00     0.019 C 
BRANCH  12  13
HETATM   13  C2  UNL     1      23.454   3.979  48.625  1.00  0.00    -0.003 C 
HETATM   14  C1  UNL     1      22.691   2.711  48.422  1.00  0.00     0.005 C 
ENDBRANCH  12  13
ENDBRANCH  11  12
ENDBRANCH   9  11
ENDBRANCH   7   9
ENDBRANCH   5   7
ENDBRANCH   1   5
BRANCH   4  15
HETATM   15  C10 UNL     1      23.481   1.930  51.930  1.00  0.00     0.052 C 
BRANCH  15  16
HETATM   16  C11 UNL     1      24.647   1.474  52.700  1.00  0.00    -0.023 A 
HETATM   17  C12 UNL     1      24.393   0.282  53.400  1.00  0.00     0.010 A 
HETATM   18  C13 UNL     1      25.348  -0.354  54.184  1.00  0.00     0.002 A 
HETATM   19  C14 UNL     1      26.608   0.188  54.299  1.00  0.00     0.022 A 
HETATM   20  C15 UNL     1      26.885   1.343  53.632  1.00  0.00     0.044 A 
HETATM   21 BR1  UNL     1      28.588   2.200  53.703  1.00  0.00    -0.048 Br
HETATM   22  C16 UNL     1      25.921   1.948  52.865  1.00  0.00     0.089 A 
BRANCH  22  23
HETATM   23  O1  UNL     1      26.153   3.122  52.172  1.00  0.00    -0.359 OA
HETATM   24  H21 UNL     1      25.373   3.557  51.680  1.00  0.00     0.217 HD
ENDBRANCH  22  23
ENDBRANCH  15  16
ENDBRANCH   4  15
TORSDOF 9
ENDMDL
MODEL 6
REMARK VINA RESULT:      -6.6      2.273      5.013
REMARK  9 active torsions:
REMARK  status: ('A' for Active; 'I' for Inactive)
REMARK    1  A    between atoms: C2_2  and  C3_3 
REMARK    2  A    between atoms: C3_3  and  C4_4 
REMARK    3  A    between atoms: C4_4  and  N1_5 
REMARK    4  A    between atoms: N1_5  and  C5_6 
REMARK    5  A    between atoms: C5_6  and  N2_8 
REMARK    6  A    between atoms: N2_8  and  C6_9 
REMARK    7  A    between atoms: C9_12  and  C10_13 
REMARK    8  A    between atoms: C10_13  and  C11_14 
REMARK    9  A    between atoms: C16_20  and  O1_21 
ROOT
HETATM    1  C6  UNL     1      24.519   3.433  49.938  1.00  0.00     0.012 A 
HETATM    2  C7  UNL     1      25.075   4.391  49.293  1.00  0.00    -0.001 A 
HETATM    3  C8  UNL     1      26.418   3.936  49.592  1.00  0.00     0.040 A 
HETATM    4  C9  UNL     1      25.777   2.846  50.357  1.00  0.00     0.043 A 
ENDROOT
BRANCH   1   5
HETATM    5  N2  UNL     1      23.222   2.956  50.261  1.00  0.00    -0.337 N 
HETATM    6  H11 UNL     1      22.773   2.501  49.443  1.00  0.00     0.168 HD
BRANCH   5   7
HETATM    7  C5  UNL     1      22.463   2.980  51.455  1.00  0.00     0.172 C 
HETATM    8  S1  UNL     1      21.590   4.282  51.864  1.00  0.00    -0.041 SA
BRANCH   7   9
HETATM    9  N1  UNL     1      22.284   2.026  52.478  1.00  0.00    -0.367 N 
HETATM   10  H10 UNL     1      23.048   2.149  53.163  1.00  0.00     0.161 HD
BRANCH   9  11
HETATM   11  C4  UNL     1      21.324   0.978  52.754  1.00  0.00     0.122 C 
BRANCH  11  12
HETATM   12  C3  UNL     1      22.067  -0.302  53.000  1.00  0.00     0.019 C 
BRANCH  12  13
HETATM   13  C2  UNL     1      21.702  -0.829  54.391  1.00  0.00    -0.003 C 
HETATM   14  C1  UNL     1      22.897  -1.275  55.167  1.00  0.00     0.005 C 
ENDBRANCH  12  13
ENDBRANCH  11  12
ENDBRANCH   9  11
ENDBRANCH   7   9
ENDBRANCH   5   7
ENDBRANCH   1   5
BRANCH   4  15
HETATM   15  C10 UNL     1      26.117   2.805  51.829  1.00  0.00     0.052 C 
BRANCH  15  16
HETATM   16  C11 UNL     1      26.617   1.513  52.321  1.00  0.00    -0.023 A 
HETATM   17  C12 UNL     1      25.619   0.522  52.330  1.00  0.00     0.010 A 
HETATM   18  C13 UNL     1      25.856  -0.785  52.736  1.00  0.00     0.002 A 
HETATM   19  C14 UNL     1      27.114  -1.154  53.154  1.00  0.00     0.022 A 
HETATM   20  C15 UNL     1      28.102  -0.217  53.156  1.00  0.00     0.044 A 
HETATM   21 BR1  UNL     1      29.889  -0.592  53.710  1.00  0.00    -0.048 Br
HETATM   22  C16 UNL     1      27.839   1.068  52.750  1.00  0.00     0.089 A 
BRANCH  22  23
HETATM   23  O1  UNL     1      28.807   2.055  52.737  1.00  0.00    -0.359 OA
HETATM   24  H21 UNL     1      28.565   2.966  52.350  1.00  0.00     0.217 HD
ENDBRANCH  22  23
ENDBRANCH  15  16
ENDBRANCH   4  15
TORSDOF 9
ENDMDL
MODEL 7
REMARK VINA RESULT:      -6.5      4.147      6.212
REMARK  9 active torsions:
REMARK  status: ('A' for Active; 'I' for Inactive)
REMARK    1  A    between atoms: C2_2  and  C3_3 
REMARK    2  A    between atoms: C3_3  and  C4_4 
REMARK    3  A    between atoms: C4_4  and  N1_5 
REMARK    4  A    between atoms: N1_5  and  C5_6 
REMARK    5  A    between atoms: C5_6  and  N2_8 
REMARK    6  A    between atoms: N2_8  and  C6_9 
REMARK    7  A    between atoms: C9_12  and  C10_13 
REMARK    8  A    between atoms: C10_13  and  C11_14 
REMARK    9  A    between atoms: C16_20  and  O1_21 
ROOT
HETATM    1  C6  UNL     1      23.228  -0.265  53.413  1.00  0.00     0.012 A 
HETATM    2  C7  UNL     1      22.010  -0.648  53.308  1.00  0.00    -0.001 A 
HETATM    3  C8  UNL     1      21.750   0.185  52.152  1.00  0.00     0.040 A 
HETATM    4  C9  UNL     1      23.147   0.646  52.287  1.00  0.00     0.043 A 
ENDROOT
BRANCH   1   5
HETATM    5  N2  UNL     1      24.367  -0.490  54.230  1.00  0.00    -0.337 N 
HETATM    6  H11 UNL     1      24.092  -0.753  55.195  1.00  0.00     0.168 HD
BRANCH   5   7
HETATM    7  C5  UNL     1      25.757  -0.431  53.972  1.00  0.00     0.172 C 
HETATM    8  S1  UNL     1      26.437  -1.369  52.840  1.00  0.00    -0.041 SA
BRANCH   7   9
HETATM    9  N1  UNL     1      26.791   0.337  54.545  1.00  0.00    -0.367 N 
HETATM   10  H10 UNL     1      26.418   1.283  54.732  1.00  0.00     0.161 HD
BRANCH   9  11
HETATM   11  C4  UNL     1      28.175   0.101  54.902  1.00  0.00     0.122 C 
BRANCH  11  12
HETATM   12  C3  UNL     1      29.053   0.822  53.922  1.00  0.00     0.019 C 
BRANCH  12  13
HETATM   13  C2  UNL     1      30.227  -0.085  53.545  1.00  0.00    -0.003 C 
HETATM   14  C1  UNL     1      29.846  -1.528  53.502  1.00  0.00     0.005 C 
ENDBRANCH  12  13
ENDBRANCH  11  12
ENDBRANCH   9  11
ENDBRANCH   7   9
ENDBRANCH   5   7
ENDBRANCH   1   5
BRANCH   4  15
HETATM   15  C10 UNL     1      23.315   2.130  52.526  1.00  0.00     0.052 C 
BRANCH  15  16
HETATM   16  C11 UNL     1      24.248   2.809  51.616  1.00  0.00    -0.023 A 
HETATM   17  C12 UNL     1      25.487   2.148  51.529  1.00  0.00     0.010 A 
HETATM   18  C13 UNL     1      26.524   2.589  50.718  1.00  0.00     0.002 A 
HETATM   19  C14 UNL     1      26.360   3.723  49.954  1.00  0.00     0.022 A 
HETATM   20  C15 UNL     1      25.171   4.385  50.016  1.00  0.00     0.044 A 
HETATM   21 BR1  UNL     1      24.809   5.966  49.012  1.00  0.00    -0.048 Br
HETATM   22  C16 UNL     1      24.164   3.925  50.827  1.00  0.00     0.089 A 
BRANCH  22  23
HETATM   23  O1  UNL     1      22.941   4.563  50.927  1.00  0.00    -0.359 OA
HETATM   24  H21 UNL     1      22.775   5.170  51.729  1.00  0.00     0.217 HD
ENDBRANCH  22  23
ENDBRANCH  15  16
ENDBRANCH   4  15
TORSDOF 9
ENDMDL
MODEL 8
REMARK VINA RESULT:      -6.5      3.336      4.596
REMARK  9 active torsions:
REMARK  status: ('A' for Active; 'I' for Inactive)
REMARK    1  A    between atoms: C2_2  and  C3_3 
REMARK    2  A    between atoms: C3_3  and  C4_4 
REMARK    3  A    between atoms: C4_4  and  N1_5 
REMARK    4  A    between atoms: N1_5  and  C5_6 
REMARK    5  A    between atoms: C5_6  and  N2_8 
REMARK    6  A    between atoms: N2_8  and  C6_9 
REMARK    7  A    between atoms: C9_12  and  C10_13 
REMARK    8  A    between atoms: C10_13  and  C11_14 
REMARK    9  A    between atoms: C16_20  and  O1_21 
ROOT
HETATM    1  C6  UNL     1      26.072   1.521  52.111  1.00  0.00     0.012 A 
HETATM    2  C7  UNL     1      27.193   0.904  52.171  1.00  0.00    -0.001 A 
HETATM    3  C8  UNL     1      26.581  -0.376  52.462  1.00  0.00     0.040 A 
HETATM    4  C9  UNL     1      25.288   0.339  52.418  1.00  0.00     0.043 A 
ENDROOT
BRANCH   1   5
HETATM    5  N2  UNL     1      25.565   2.825  51.876  1.00  0.00    -0.337 N 
HETATM    6  H11 UNL     1      25.222   3.260  52.755  1.00  0.00     0.168 HD
BRANCH   5   7
HETATM    7  C5  UNL     1      25.455   3.614  50.707  1.00  0.00     0.172 C 
HETATM    8  S1  UNL     1      24.344   3.283  49.577  1.00  0.00    -0.041 SA
BRANCH   7   9
HETATM    9  N1  UNL     1      26.178   4.738  50.256  1.00  0.00    -0.367 N 
HETATM   10  H10 UNL     1      26.573   5.214  51.085  1.00  0.00     0.161 HD
BRANCH   9  11
HETATM   11  C4  UNL     1      26.463   5.331  48.967  1.00  0.00     0.122 C 
BRANCH  11  12
HETATM   12  C3  UNL     1      27.866   4.976  48.574  1.00  0.00     0.019 C 
BRANCH  12  13
HETATM   13  C2  UNL     1      28.574   6.234  48.062  1.00  0.00    -0.003 C 
HETATM   14  C1  UNL     1      27.886   7.491  48.484  1.00  0.00     0.005 C 
ENDBRANCH  12  13
ENDBRANCH  11  12
ENDBRANCH   9  11
ENDBRANCH   7   9
ENDBRANCH   5   7
ENDBRANCH   1   5
BRANCH   4  15
HETATM   15  C10 UNL     1      24.486   0.299  53.699  1.00  0.00     0.052 C 
BRANCH  15  16
HETATM   16  C11 UNL     1      23.030   0.199  53.523  1.00  0.00    -0.023 A 
HETATM   17  C12 UNL     1      22.514  -1.013  54.015  1.00  0.00     0.010 A 
HETATM   18  C13 UNL     1      21.162  -1.330  53.978  1.00  0.00     0.002 A 
HETATM   19  C14 UNL     1      20.265  -0.435  53.439  1.00  0.00     0.022 A 
HETATM   20  C15 UNL     1      20.735   0.748  52.954  1.00  0.00     0.044 A 
HETATM   21 BR1  UNL     1      19.603   2.076  52.182  1.00  0.00    -0.048 Br
HETATM   22  C16 UNL     1      22.076   1.033  53.005  1.00  0.00     0.089 A 
BRANCH  22  23
HETATM   23  O1  UNL     1      22.601   2.219  52.523  1.00  0.00    -0.359 OA
HETATM   24  H21 UNL     1      23.298   2.173  51.781  1.00  0.00     0.217 HD
ENDBRANCH  22  23
ENDBRANCH  15  16
ENDBRANCH   4  15
TORSDOF 9
ENDMDL
MODEL 9
REMARK VINA RESULT:      -6.4      3.658      5.642
REMARK  9 active torsions:
REMARK  status: ('A' for Active; 'I' for Inactive)
REMARK    1  A    between atoms: C2_2  and  C3_3 
REMARK    2  A    between atoms: C3_3  and  C4_4 
REMARK    3  A    between atoms: C4_4  and  N1_5 
REMARK    4  A    between atoms: N1_5  and  C5_6 
REMARK    5  A    between atoms: C5_6  and  N2_8 
REMARK    6  A    between atoms: N2_8  and  C6_9 
REMARK    7  A    between atoms: C9_12  and  C10_13 
REMARK    8  A    between atoms: C10_13  and  C11_14 
REMARK    9  A    between atoms: C16_20  and  O1_21 
ROOT
HETATM    1  C6  UNL     1      23.396   2.600  51.734  1.00  0.00     0.012 A 
HETATM    2  C7  UNL     1      22.935   3.638  52.327  1.00  0.00    -0.001 A 
HETATM    3  C8  UNL     1      24.129   3.829  53.124  1.00  0.00     0.040 A 
HETATM    4  C9  UNL     1      24.652   2.617  52.460  1.00  0.00     0.043 A 
ENDROOT
BRANCH   1   5
HETATM    5  N2  UNL     1      23.008   1.651  50.754  1.00  0.00    -0.337 N 
HETATM    6  H11 UNL     1      23.805   1.395  50.140  1.00  0.00     0.168 HD
BRANCH   5   7
HETATM    7  C5  UNL     1      21.778   1.008  50.478  1.00  0.00     0.172 C 
HETATM    8  S1  UNL     1      20.991   1.270  49.087  1.00  0.00    -0.041 SA
BRANCH   7   9
HETATM    9  N1  UNL     1      21.000   0.099  51.225  1.00  0.00    -0.367 N 
HETATM   10  H10 UNL     1      21.124  -0.840  50.810  1.00  0.00     0.161 HD
BRANCH   9  11
HETATM   11  C4  UNL     1      20.121   0.194  52.372  1.00  0.00     0.122 C 
BRANCH  11  12
HETATM   12  C3  UNL     1      20.950   0.470  53.591  1.00  0.00     0.019 C 
BRANCH  12  13
HETATM   13  C2  UNL     1      21.153  -0.838  54.362  1.00  0.00    -0.003 C 
HETATM   14  C1  UNL     1      22.578  -1.062  54.746  1.00  0.00     0.005 C 
ENDBRANCH  12  13
ENDBRANCH  11  12
ENDBRANCH   9  11
ENDBRANCH   7   9
ENDBRANCH   5   7
ENDBRANCH   1   5
BRANCH   4  15
HETATM   15  C10 UNL     1      24.985   1.468  53.385  1.00  0.00     0.052 C 
BRANCH  15  16
HETATM   16  C11 UNL     1      26.400   1.070  53.404  1.00  0.00    -0.023 A 
HETATM   17  C12 UNL     1      27.262   2.167  53.575  1.00  0.00     0.010 A 
HETATM   18  C13 UNL     1      28.644   2.040  53.643  1.00  0.00     0.002 A 
HETATM   19  C14 UNL     1      29.221   0.794  53.541  1.00  0.00     0.022 A 
HETATM   20  C15 UNL     1      28.412  -0.289  53.376  1.00  0.00     0.044 A 
HETATM   21 BR1  UNL     1      29.079  -2.069  53.222  1.00  0.00    -0.048 Br
HETATM   22  C16 UNL     1      27.050  -0.132  53.312  1.00  0.00     0.089 A 
BRANCH  22  23
HETATM   23  O1  UNL     1      26.187  -1.200  53.143  1.00  0.00    -0.359 OA
HETATM   24  H21 UNL     1      26.295  -1.782  52.313  1.00  0.00     0.217 HD
ENDBRANCH  22  23
ENDBRANCH  15  16
ENDBRANCH   4  15
TORSDOF 9
ENDMDL
