MODEL 1
REMARK VINA RESULT:      -7.4      0.000      0.000
REMARK  6 active torsions:
REMARK  status: ('A' for Active; 'I' for Inactive)
REMARK    1  A    between atoms: C2_2  and  C3_3 
REMARK    2  A    between atoms: C4_4  and  N1_5 
REMARK    3  A    between atoms: N1_5  and  C5_6 
REMARK    4  A    between atoms: C14_17  and  O1_18 
REMARK    5  A    between atoms: O1_18  and  C15_19 
REMARK    6  A    between atoms: C15_19  and  O2_20 
ROOT
HETATM    1  C3  UNL     1      26.178   0.296  53.468  1.00  0.00     0.062 A 
HETATM    2  C4  UNL     1      26.479   1.619  53.707  1.00  0.00     0.144 A 
HETATM    3  N2  UNL     1      27.709   1.955  54.139  1.00  0.00    -0.223 NA
HETATM    4  C13 UNL     1      28.663   1.032  54.347  1.00  0.00     0.238 A 
HETATM    5  N3  UNL     1      28.389  -0.264  54.122  1.00  0.00    -0.217 NA
HETATM    6  C14 UNL     1      27.177  -0.597  53.695  1.00  0.00     0.181 A 
ENDROOT
BRANCH   2   7
HETATM    7  N1  UNL     1      25.485   2.619  53.506  1.00  0.00    -0.339 N 
HETATM    8  H4  UNL     1      24.847   3.174  54.117  1.00  0.00     0.167 HD
BRANCH   7   9
HETATM    9  C5  UNL     1      25.369   2.890  52.092  1.00  0.00     0.045 C 
HETATM   10  C6  UNL     1      24.216   3.110  51.450  1.00  0.00     0.002 A 
HETATM   11  C7  UNL     1      22.770   3.239  51.439  1.00  0.00     0.015 A 
HETATM   12  C9  UNL     1      24.243   3.374  50.018  1.00  0.00    -0.012 A 
HETATM   13  C8  UNL     1      22.801   3.480  50.121  1.00  0.00     0.014 A 
HETATM   14  C10 UNL     1      25.362   3.407  49.317  1.00  0.00    -0.002 C 
HETATM   15  C11 UNL     1      26.485   3.108  49.891  1.00  0.00    -0.011 C 
HETATM   16  C12 UNL     1      26.537   2.965  51.180  1.00  0.00     0.043 C 
ENDBRANCH   7   9
ENDBRANCH   2   7
BRANCH   1  17
HETATM   17  C2  UNL     1      24.852  -0.012  53.008  1.00  0.00     0.009 C 
HETATM   18  C1  UNL     1      23.938  -0.445  53.844  1.00  0.00     0.012 C 
ENDBRANCH   1  17
BRANCH   6  19
HETATM   19  O1  UNL     1      26.923  -1.936  53.470  1.00  0.00    -0.308 OA
BRANCH  19  20
HETATM   20  C15 UNL     1      27.806  -2.717  52.687  1.00  0.00     0.343 C 
BRANCH  20  21
HETATM   21  O2  UNL     1      28.699  -3.439  53.459  1.00  0.00    -0.377 OA
HETATM   22  H11 UNL     1      29.355  -3.939  52.931  1.00  0.00     0.212 HD
ENDBRANCH  20  21
ENDBRANCH  19  20
ENDBRANCH   6  19
TORSDOF 6
ENDMDL
MODEL 2
REMARK VINA RESULT:      -7.4      2.833      5.541
REMARK  6 active torsions:
REMARK  status: ('A' for Active; 'I' for Inactive)
REMARK    1  A    between atoms: C2_2  and  C3_3 
REMARK    2  A    between atoms: C4_4  and  N1_5 
REMARK    3  A    between atoms: N1_5  and  C5_6 
REMARK    4  A    between atoms: C14_17  and  O1_18 
REMARK    5  A    between atoms: O1_18  and  C15_19 
REMARK    6  A    between atoms: C15_19  and  O2_20 
ROOT
HETATM    1  C3  UNL     1      24.765   2.457  51.889  1.00  0.00     0.062 A 
HETATM    2  C4  UNL     1      26.114   2.525  52.162  1.00  0.00     0.144 A 
HETATM    3  N2  UNL     1      26.976   2.863  51.184  1.00  0.00    -0.223 NA
HETATM    4  C13 UNL     1      26.559   3.138  49.936  1.00  0.00     0.238 A 
HETATM    5  N3  UNL     1      25.248   3.075  49.649  1.00  0.00    -0.217 NA
HETATM    6  C14 UNL     1      24.397   2.743  50.612  1.00  0.00     0.181 A 
ENDROOT
BRANCH   2   7
HETATM    7  N1  UNL     1      26.587   2.228  53.472  1.00  0.00    -0.339 N 
HETATM    8  H4  UNL     1      26.437   2.616  54.428  1.00  0.00     0.167 HD
BRANCH   7   9
HETATM    9  C5  UNL     1      27.499   1.109  53.401  1.00  0.00     0.045 C 
HETATM   10  C6  UNL     1      27.148  -0.140  53.072  1.00  0.00     0.002 A 
HETATM   11  C7  UNL     1      26.151  -1.121  52.682  1.00  0.00     0.015 A 
HETATM   12  C9  UNL     1      28.171  -1.175  53.037  1.00  0.00    -0.012 A 
HETATM   13  C8  UNL     1      27.097  -2.070  52.653  1.00  0.00     0.014 A 
HETATM   14  C10 UNL     1      29.439  -0.939  53.317  1.00  0.00    -0.002 C 
HETATM   15  C11 UNL     1      29.795   0.239  53.727  1.00  0.00    -0.011 C 
HETATM   16  C12 UNL     1      28.951   1.224  53.680  1.00  0.00     0.043 C 
ENDBRANCH   7   9
ENDBRANCH   2   7
BRANCH   1  17
HETATM   17  C2  UNL     1      23.887   2.093  52.966  1.00  0.00     0.009 C 
HETATM   18  C1  UNL     1      23.300   0.919  52.982  1.00  0.00     0.012 C 
ENDBRANCH   1  17
BRANCH   6  19
HETATM   19  O1  UNL     1      23.055   2.687  50.290  1.00  0.00    -0.308 OA
BRANCH  19  20
HETATM   20  C15 UNL     1      22.587   3.193  49.053  1.00  0.00     0.343 C 
BRANCH  20  21
HETATM   21  O2  UNL     1      22.809   2.317  48.006  1.00  0.00    -0.377 OA
HETATM   22  H11 UNL     1      23.742   2.289  47.712  1.00  0.00     0.212 HD
ENDBRANCH  20  21
ENDBRANCH  19  20
ENDBRANCH   6  19
TORSDOF 6
ENDMDL
MODEL 3
REMARK VINA RESULT:      -7.3      3.150      5.409
REMARK  6 active torsions:
REMARK  status: ('A' for Active; 'I' for Inactive)
REMARK    1  A    between atoms: C2_2  and  C3_3 
REMARK    2  A    between atoms: C4_4  and  N1_5 
REMARK    3  A    between atoms: N1_5  and  C5_6 
REMARK    4  A    between atoms: C14_17  and  O1_18 
REMARK    5  A    between atoms: O1_18  and  C15_19 
REMARK    6  A    between atoms: C15_19  and  O2_20 
ROOT
HETATM    1  C3  UNL     1      23.658   0.116  53.186  1.00  0.00     0.062 A 
HETATM    2  C4  UNL     1      24.971  -0.287  53.302  1.00  0.00     0.144 A 
HETATM    3  N2  UNL     1      25.354  -1.011  54.370  1.00  0.00    -0.223 NA
HETATM    4  C13 UNL     1      24.488  -1.357  55.339  1.00  0.00     0.238 A 
HETATM    5  N3  UNL     1      23.204  -0.973  55.245  1.00  0.00    -0.217 NA
HETATM    6  C14 UNL     1      22.824  -0.259  54.193  1.00  0.00     0.181 A 
ENDROOT
BRANCH   2   7
HETATM    7  N1  UNL     1      25.914   0.074  52.298  1.00  0.00    -0.339 N 
HETATM    8  H4  UNL     1      25.866   0.402  51.309  1.00  0.00     0.167 HD
BRANCH   7   9
HETATM    9  C5  UNL     1      27.249  -0.071  52.831  1.00  0.00     0.045 C 
HETATM   10  C6  UNL     1      27.984   0.931  53.326  1.00  0.00     0.002 A 
HETATM   11  C7  UNL     1      28.166   2.331  53.663  1.00  0.00     0.015 A 
HETATM   12  C9  UNL     1      29.318   0.643  53.835  1.00  0.00    -0.012 A 
HETATM   13  C8  UNL     1      29.393   2.061  54.128  1.00  0.00     0.014 A 
HETATM   14  C10 UNL     1      29.841  -0.569  53.831  1.00  0.00    -0.002 C 
HETATM   15  C11 UNL     1      29.191  -1.544  53.276  1.00  0.00    -0.011 C 
HETATM   16  C12 UNL     1      27.960  -1.371  52.899  1.00  0.00     0.043 C 
ENDBRANCH   7   9
ENDBRANCH   2   7
BRANCH   1  17
HETATM   17  C2  UNL     1      23.299   0.886  52.028  1.00  0.00     0.009 C 
HETATM   18  C1  UNL     1      23.162   2.189  52.108  1.00  0.00     0.012 C 
ENDBRANCH   1  17
BRANCH   6  19
HETATM   19  O1  UNL     1      21.499   0.122  54.121  1.00  0.00    -0.308 OA
BRANCH  19  20
HETATM   20  C15 UNL     1      20.488  -0.829  53.841  1.00  0.00     0.343 C 
BRANCH  20  21
HETATM   21  O2  UNL     1      20.518  -1.904  54.711  1.00  0.00    -0.377 OA
HETATM   22  H11 UNL     1      21.146  -2.605  54.443  1.00  0.00     0.212 HD
ENDBRANCH  20  21
ENDBRANCH  19  20
ENDBRANCH   6  19
TORSDOF 6
ENDMDL
MODEL 4
REMARK VINA RESULT:      -7.3      1.206      2.760
REMARK  6 active torsions:
REMARK  status: ('A' for Active; 'I' for Inactive)
REMARK    1  A    between atoms: C2_2  and  C3_3 
REMARK    2  A    between atoms: C4_4  and  N1_5 
REMARK    3  A    between atoms: N1_5  and  C5_6 
REMARK    4  A    between atoms: C14_17  and  O1_18 
REMARK    5  A    between atoms: O1_18  and  C15_19 
REMARK    6  A    between atoms: C15_19  and  O2_20 
ROOT
HETATM    1  C3  UNL     1      26.999   0.887  53.932  1.00  0.00     0.062 A 
HETATM    2  C4  UNL     1      25.710   1.290  53.655  1.00  0.00     0.144 A 
HETATM    3  N2  UNL     1      24.776   0.372  53.346  1.00  0.00    -0.223 NA
HETATM    4  C13 UNL     1      25.062  -0.941  53.297  1.00  0.00     0.238 A 
HETATM    5  N3  UNL     1      26.312  -1.354  53.562  1.00  0.00    -0.217 NA
HETATM    6  C14 UNL     1      27.235  -0.451  53.868  1.00  0.00     0.181 A 
ENDROOT
BRANCH   2   7
HETATM    7  N1  UNL     1      25.380   2.675  53.687  1.00  0.00    -0.339 N 
HETATM    8  H4  UNL     1      25.485   3.454  54.372  1.00  0.00     0.167 HD
BRANCH   7   9
HETATM    9  C5  UNL     1      24.741   3.036  52.442  1.00  0.00     0.045 C 
HETATM   10  C6  UNL     1      25.372   3.155  51.269  1.00  0.00     0.002 A 
HETATM   11  C7  UNL     1      26.576   3.101  50.459  1.00  0.00     0.015 A 
HETATM   12  C9  UNL     1      24.604   3.525  50.088  1.00  0.00    -0.012 A 
HETATM   13  C8  UNL     1      25.865   3.441  49.377  1.00  0.00     0.014 A 
HETATM   14  C10 UNL     1      23.303   3.749  50.121  1.00  0.00    -0.002 C 
HETATM   15  C11 UNL     1      22.680   3.730  51.257  1.00  0.00    -0.011 C 
HETATM   16  C12 UNL     1      23.288   3.309  52.324  1.00  0.00     0.043 C 
ENDBRANCH   7   9
ENDBRANCH   2   7
BRANCH   1  17
HETATM   17  C2  UNL     1      27.959   1.905  54.258  1.00  0.00     0.009 C 
HETATM   18  C1  UNL     1      28.752   2.394  53.334  1.00  0.00     0.012 C 
ENDBRANCH   1  17
BRANCH   6  19
HETATM   19  O1  UNL     1      28.511  -0.903  54.137  1.00  0.00    -0.308 OA
BRANCH  19  20
HETATM   20  C15 UNL     1      29.169  -1.784  53.244  1.00  0.00     0.343 C 
BRANCH  20  21
HETATM   21  O2  UNL     1      28.727  -3.089  53.367  1.00  0.00    -0.377 OA
HETATM   22  H11 UNL     1      27.776  -3.159  53.588  1.00  0.00     0.212 HD
ENDBRANCH  20  21
ENDBRANCH  19  20
ENDBRANCH   6  19
TORSDOF 6
ENDMDL
MODEL 5
REMARK VINA RESULT:      -6.9      4.668      7.040
REMARK  6 active torsions:
REMARK  status: ('A' for Active; 'I' for Inactive)
REMARK    1  A    between atoms: C2_2  and  C3_3 
REMARK    2  A    between atoms: C4_4  and  N1_5 
REMARK    3  A    between atoms: N1_5  and  C5_6 
REMARK    4  A    between atoms: C14_17  and  O1_18 
REMARK    5  A    between atoms: O1_18  and  C15_19 
REMARK    6  A    between atoms: C15_19  and  O2_20 
ROOT
HETATM    1  C3  UNL     1      26.079   6.024  49.332  1.00  0.00     0.062 A 
HETATM    2  C4  UNL     1      25.114   5.180  49.839  1.00  0.00     0.144 A 
HETATM    3  N2  UNL     1      24.251   5.635  50.767  1.00  0.00    -0.223 NA
HETATM    4  C13 UNL     1      24.302   6.899  51.222  1.00  0.00     0.238 A 
HETATM    5  N3  UNL     1      25.235   7.736  50.742  1.00  0.00    -0.217 NA
HETATM    6  C14 UNL     1      26.086   7.291  49.826  1.00  0.00     0.181 A 
ENDROOT
BRANCH   2   7
HETATM    7  N1  UNL     1      25.044   3.832  49.385  1.00  0.00    -0.339 N 
HETATM    8  H4  UNL     1      24.841   3.357  48.479  1.00  0.00     0.167 HD
BRANCH   7   9
HETATM    9  C5  UNL     1      25.327   2.947  50.492  1.00  0.00     0.045 C 
HETATM   10  C6  UNL     1      24.413   2.205  51.127  1.00  0.00     0.002 A 
HETATM   11  C7  UNL     1      23.046   1.750  51.310  1.00  0.00     0.015 A 
HETATM   12  C9  UNL     1      24.837   1.353  52.229  1.00  0.00    -0.012 A 
HETATM   13  C8  UNL     1      23.442   0.969  52.324  1.00  0.00     0.014 A 
HETATM   14  C10 UNL     1      26.091   1.277  52.635  1.00  0.00    -0.002 C 
HETATM   15  C11 UNL     1      26.983   2.051  52.101  1.00  0.00    -0.011 C 
HETATM   16  C12 UNL     1      26.687   2.754  51.051  1.00  0.00     0.043 C 
ENDBRANCH   7   9
ENDBRANCH   2   7
BRANCH   1  17
HETATM   17  C2  UNL     1      26.975   5.492  48.343  1.00  0.00     0.009 C 
HETATM   18  C1  UNL     1      28.208   5.177  48.661  1.00  0.00     0.012 C 
ENDBRANCH   1  17
BRANCH   6  19
HETATM   19  O1  UNL     1      27.035   8.173  49.349  1.00  0.00    -0.308 OA
BRANCH  19  20
HETATM   20  C15 UNL     1      27.175   9.462  49.919  1.00  0.00     0.343 C 
BRANCH  20  21
HETATM   21  O2  UNL     1      27.593   9.415  51.236  1.00  0.00    -0.377 OA
HETATM   22  H11 UNL     1      28.121   8.618  51.449  1.00  0.00     0.212 HD
ENDBRANCH  20  21
ENDBRANCH  19  20
ENDBRANCH   6  19
TORSDOF 6
ENDMDL
MODEL 6
REMARK VINA RESULT:      -6.8      1.514      2.626
REMARK  6 active torsions:
REMARK  status: ('A' for Active; 'I' for Inactive)
REMARK    1  A    between atoms: C2_2  and  C3_3 
REMARK    2  A    between atoms: C4_4  and  N1_5 
REMARK    3  A    between atoms: N1_5  and  C5_6 
REMARK    4  A    between atoms: C14_17  and  O1_18 
REMARK    5  A    between atoms: O1_18  and  C15_19 
REMARK    6  A    between atoms: C15_19  and  O2_20 
ROOT
HETATM    1  C3  UNL     1      27.324   0.781  53.393  1.00  0.00     0.062 A 
HETATM    2  C4  UNL     1      26.072   1.340  53.246  1.00  0.00     0.144 A 
HETATM    3  N2  UNL     1      24.978   0.602  53.512  1.00  0.00    -0.223 NA
HETATM    4  C13 UNL     1      25.067  -0.677  53.918  1.00  0.00     0.238 A 
HETATM    5  N3  UNL     1      26.278  -1.240  54.065  1.00  0.00    -0.217 NA
HETATM    6  C14 UNL     1      27.358  -0.514  53.805  1.00  0.00     0.181 A 
ENDROOT
BRANCH   2   7
HETATM    7  N1  UNL     1      25.946   2.688  52.806  1.00  0.00    -0.339 N 
HETATM    8  H4  UNL     1      26.513   3.559  52.889  1.00  0.00     0.167 HD
BRANCH   7   9
HETATM    9  C5  UNL     1      24.709   2.830  52.073  1.00  0.00     0.045 C 
HETATM   10  C6  UNL     1      23.791   3.777  52.302  1.00  0.00     0.002 A 
HETATM   11  C7  UNL     1      23.314   4.936  53.034  1.00  0.00     0.015 A 
HETATM   12  C9  UNL     1      22.586   3.805  51.486  1.00  0.00    -0.012 A 
HETATM   13  C8  UNL     1      22.207   4.956  52.281  1.00  0.00     0.014 A 
HETATM   14  C10 UNL     1      22.354   2.934  50.521  1.00  0.00    -0.002 C 
HETATM   15  C11 UNL     1      23.179   1.952  50.334  1.00  0.00    -0.011 C 
HETATM   16  C12 UNL     1      24.316   1.932  50.960  1.00  0.00     0.043 C 
ENDBRANCH   7   9
ENDBRANCH   2   7
BRANCH   1  17
HETATM   17  C2  UNL     1      28.460   1.610  53.098  1.00  0.00     0.009 C 
HETATM   18  C1  UNL     1      29.053   2.292  54.049  1.00  0.00     0.012 C 
ENDBRANCH   1  17
BRANCH   6  19
HETATM   19  O1  UNL     1      28.590  -1.117  53.965  1.00  0.00    -0.308 OA
BRANCH  19  20
HETATM   20  C15 UNL     1      29.018  -2.134  53.077  1.00  0.00     0.343 C 
BRANCH  20  21
HETATM   21  O2  UNL     1      28.611  -3.393  53.480  1.00  0.00    -0.377 OA
HETATM   22  H11 UNL     1      29.253  -3.841  54.067  1.00  0.00     0.212 HD
ENDBRANCH  20  21
ENDBRANCH  19  20
ENDBRANCH   6  19
TORSDOF 6
ENDMDL
MODEL 7
REMARK VINA RESULT:      -6.8      4.098      6.256
REMARK  6 active torsions:
REMARK  status: ('A' for Active; 'I' for Inactive)
REMARK    1  A    between atoms: C2_2  and  C3_3 
REMARK    2  A    between atoms: C4_4  and  N1_5 
REMARK    3  A    between atoms: N1_5  and  C5_6 
REMARK    4  A    between atoms: C14_17  and  O1_18 
REMARK    5  A    between atoms: O1_18  and  C15_19 
REMARK    6  A    between atoms: C15_19  and  O2_20 
ROOT
HETATM    1  C3  UNL     1      24.817   4.061  50.645  1.00  0.00     0.062 A 
HETATM    2  C4  UNL     1      24.547   3.256  51.731  1.00  0.00     0.144 A 
HETATM    3  N2  UNL     1      23.855   3.752  52.774  1.00  0.00    -0.223 NA
HETATM    4  C13 UNL     1      23.415   5.022  52.791  1.00  0.00     0.238 A 
HETATM    5  N3  UNL     1      23.669   5.824  51.744  1.00  0.00    -0.217 NA
HETATM    6  C14 UNL     1      24.350   5.337  50.715  1.00  0.00     0.181 A 
ENDROOT
BRANCH   2   7
HETATM    7  N1  UNL     1      25.011   1.910  51.746  1.00  0.00    -0.339 N 
HETATM    8  H4  UNL     1      25.910   1.425  51.533  1.00  0.00     0.167 HD
BRANCH   7   9
HETATM    9  C5  UNL     1      23.931   1.044  52.162  1.00  0.00     0.045 C 
HETATM   10  C6  UNL     1      22.768   0.912  51.513  1.00  0.00     0.002 A 
HETATM   11  C7  UNL     1      21.876   1.248  50.418  1.00  0.00     0.015 A 
HETATM   12  C9  UNL     1      21.764   0.001  52.043  1.00  0.00    -0.012 A 
HETATM   13  C8  UNL     1      20.956   0.409  50.910  1.00  0.00     0.014 A 
HETATM   14  C10 UNL     1      21.947  -0.708  53.141  1.00  0.00    -0.002 C 
HETATM   15  C11 UNL     1      23.025  -0.535  53.841  1.00  0.00    -0.011 C 
HETATM   16  C12 UNL     1      23.996   0.185  53.368  1.00  0.00     0.043 C 
ENDBRANCH   7   9
ENDBRANCH   2   7
BRANCH   1  17
HETATM   17  C2  UNL     1      25.558   3.485  49.558  1.00  0.00     0.009 C 
HETATM   18  C1  UNL     1      26.812   3.815  49.356  1.00  0.00     0.012 C 
ENDBRANCH   1  17
BRANCH   6  19
HETATM   19  O1  UNL     1      24.596   6.182  49.651  1.00  0.00    -0.308 OA
BRANCH  19  20
HETATM   20  C15 UNL     1      25.229   7.432  49.853  1.00  0.00     0.343 C 
BRANCH  20  21
HETATM   21  O2  UNL     1      26.154   7.396  50.880  1.00  0.00    -0.377 OA
HETATM   22  H11 UNL     1      26.489   6.497  51.072  1.00  0.00     0.212 HD
ENDBRANCH  20  21
ENDBRANCH  19  20
ENDBRANCH   6  19
TORSDOF 6
ENDMDL
MODEL 8
REMARK VINA RESULT:      -6.8      3.853      6.414
REMARK  6 active torsions:
REMARK  status: ('A' for Active; 'I' for Inactive)
REMARK    1  A    between atoms: C2_2  and  C3_3 
REMARK    2  A    between atoms: C4_4  and  N1_5 
REMARK    3  A    between atoms: N1_5  and  C5_6 
REMARK    4  A    between atoms: C14_17  and  O1_18 
REMARK    5  A    between atoms: O1_18  and  C15_19 
REMARK    6  A    between atoms: C15_19  and  O2_20 
ROOT
HETATM    1  C3  UNL     1      24.868   4.221  50.446  1.00  0.00     0.062 A 
HETATM    2  C4  UNL     1      24.599   3.259  51.396  1.00  0.00     0.144 A 
HETATM    3  N2  UNL     1      23.876   3.582  52.485  1.00  0.00    -0.223 NA
HETATM    4  C13 UNL     1      23.403   4.826  52.678  1.00  0.00     0.238 A 
HETATM    5  N3  UNL     1      23.656   5.777  51.764  1.00  0.00    -0.217 NA
HETATM    6  C14 UNL     1      24.368   5.461  50.690  1.00  0.00     0.181 A 
ENDROOT
BRANCH   2   7
HETATM    7  N1  UNL     1      25.097   1.936  51.225  1.00  0.00    -0.339 N 
HETATM    8  H4  UNL     1      24.944   1.161  50.545  1.00  0.00     0.167 HD
BRANCH   7   9
HETATM    9  C5  UNL     1      26.038   1.647  52.283  1.00  0.00     0.045 C 
HETATM   10  C6  UNL     1      25.824   0.774  53.274  1.00  0.00     0.002 A 
HETATM   11  C7  UNL     1      24.991  -0.202  53.954  1.00  0.00     0.015 A 
HETATM   12  C9  UNL     1      26.861   0.577  54.278  1.00  0.00    -0.012 A 
HETATM   13  C8  UNL     1      25.948  -0.378  54.875  1.00  0.00     0.014 A 
HETATM   14  C10 UNL     1      28.012   1.224  54.255  1.00  0.00    -0.002 C 
HETATM   15  C11 UNL     1      28.212   2.141  53.362  1.00  0.00    -0.011 C 
HETATM   16  C12 UNL     1      27.371   2.289  52.385  1.00  0.00     0.043 C 
ENDBRANCH   7   9
ENDBRANCH   2   7
BRANCH   1  17
HETATM   17  C2  UNL     1      25.643   3.826  49.302  1.00  0.00     0.009 C 
HETATM   18  C1  UNL     1      26.910   4.156  49.208  1.00  0.00     0.012 C 
ENDBRANCH   1  17
BRANCH   6  19
HETATM   19  O1  UNL     1      24.612   6.458  49.766  1.00  0.00    -0.308 OA
BRANCH  19  20
HETATM   20  C15 UNL     1      25.159   7.700  50.170  1.00  0.00     0.343 C 
BRANCH  20  21
HETATM   21  O2  UNL     1      26.224   7.550  51.040  1.00  0.00    -0.377 OA
HETATM   22  H11 UNL     1      27.082   7.416  50.586  1.00  0.00     0.212 HD
ENDBRANCH  20  21
ENDBRANCH  19  20
ENDBRANCH   6  19
TORSDOF 6
ENDMDL
MODEL 9
REMARK VINA RESULT:      -6.8      3.507      6.215
REMARK  6 active torsions:
REMARK  status: ('A' for Active; 'I' for Inactive)
REMARK    1  A    between atoms: C2_2  and  C3_3 
REMARK    2  A    between atoms: C4_4  and  N1_5 
REMARK    3  A    between atoms: N1_5  and  C5_6 
REMARK    4  A    between atoms: C14_17  and  O1_18 
REMARK    5  A    between atoms: O1_18  and  C15_19 
REMARK    6  A    between atoms: C15_19  and  O2_20 
ROOT
HETATM    1  C3  UNL     1      24.636   3.480  51.514  1.00  0.00     0.062 A 
HETATM    2  C4  UNL     1      25.609   2.507  51.426  1.00  0.00     0.144 A 
HETATM    3  N2  UNL     1      26.591   2.627  50.513  1.00  0.00    -0.223 NA
HETATM    4  C13 UNL     1      26.654   3.676  49.675  1.00  0.00     0.238 A 
HETATM    5  N3  UNL     1      25.715   4.633  49.743  1.00  0.00    -0.217 NA
HETATM    6  C14 UNL     1      24.746   4.518  50.643  1.00  0.00     0.181 A 
ENDROOT
BRANCH   2   7
HETATM    7  N1  UNL     1      25.562   1.378  52.294  1.00  0.00    -0.339 N 
HETATM    8  H4  UNL     1      24.831   0.701  52.601  1.00  0.00     0.167 HD
BRANCH   7   9
HETATM    9  C5  UNL     1      26.873   1.167  52.863  1.00  0.00     0.045 C 
HETATM   10  C6  UNL     1      27.481  -0.022  52.955  1.00  0.00     0.002 A 
HETATM   11  C7  UNL     1      27.508  -1.458  52.742  1.00  0.00     0.015 A 
HETATM   12  C9  UNL     1      28.807  -0.092  53.551  1.00  0.00    -0.012 A 
HETATM   13  C8  UNL     1      28.727  -1.517  53.292  1.00  0.00     0.014 A 
HETATM   14  C10 UNL     1      29.444   0.969  54.009  1.00  0.00    -0.002 C 
HETATM   15  C11 UNL     1      28.847   2.119  54.017  1.00  0.00    -0.011 C 
HETATM   16  C12 UNL     1      27.709   2.263  53.408  1.00  0.00     0.043 C 
ENDBRANCH   7   9
ENDBRANCH   2   7
BRANCH   1  17
HETATM   17  C2  UNL     1      23.611   3.306  52.505  1.00  0.00     0.009 C 
HETATM   18  C1  UNL     1      22.437   2.820  52.174  1.00  0.00     0.012 C 
ENDBRANCH   1  17
BRANCH   6  19
HETATM   19  O1  UNL     1      23.794   5.517  50.693  1.00  0.00    -0.308 OA
BRANCH  19  20
HETATM   20  C15 UNL     1      24.164   6.875  50.544  1.00  0.00     0.343 C 
BRANCH  20  21
HETATM   21  O2  UNL     1      25.225   7.227  51.360  1.00  0.00    -0.377 OA
HETATM   22  H11 UNL     1      25.836   6.485  51.545  1.00  0.00     0.212 HD
ENDBRANCH  20  21
ENDBRANCH  19  20
ENDBRANCH   6  19
TORSDOF 6
ENDMDL
