MODEL 1
REMARK VINA RESULT:      -7.7      0.000      0.000
REMARK  6 active torsions:
REMARK  status: ('A' for Active; 'I' for Inactive)
REMARK    1  A    between atoms: C3_3  and  C4_4 
REMARK    2  A    between atoms: C3_3  and  N1_10 
REMARK    3  A    between atoms: C5_5  and  C6_6 
REMARK    4  A    between atoms: C5_5  and  C7_8 
REMARK    5  A    between atoms: N1_10  and  C8_11 
REMARK    6  A    between atoms: C12_17  and  O1_18 
ROOT
HETATM    1  C8  UNL     1      24.427  -0.106  54.134  1.00  0.00     0.142 A 
HETATM    2  N2  UNL     1      24.938  -0.796  55.165  1.00  0.00    -0.224 NA
HETATM    3  C9  UNL     1      24.102  -1.609  55.851  1.00  0.00     0.236 A 
HETATM    4  N3  UNL     1      22.801  -1.722  55.512  1.00  0.00    -0.241 NA
HETATM    5  C10 UNL     1      22.285  -1.024  54.470  1.00  0.00     0.074 A 
HETATM    6  C11 UNL     1      20.954  -1.199  54.195  1.00  0.00     0.070 A 
HETATM    7  C12 UNL     1      20.483  -0.461  53.122  1.00  0.00     0.076 A 
HETATM    8  C14 UNL     1      21.279   0.401  52.360  1.00  0.00    -0.028 A 
HETATM    9  C15 UNL     1      20.720   1.163  51.223  1.00  0.00     0.051 C 
HETATM   10  C16 UNL     1      22.613   0.503  52.724  1.00  0.00     0.027 A 
HETATM   11  C17 UNL     1      23.121  -0.201  53.772  1.00  0.00     0.039 A 
ENDROOT
BRANCH   1  12
HETATM   12  N1  UNL     1      25.350   0.731  53.449  1.00  0.00    -0.341 N 
HETATM   13  H10 UNL     1      25.528   1.755  53.518  1.00  0.00     0.167 HD
BRANCH  12  14
HETATM   14  C3  UNL     1      26.234   0.190  52.476  1.00  0.00     0.029 C 
HETATM   15  C2  UNL     1      26.487   0.989  51.424  1.00  0.00    -0.002 C 
HETATM   16  C1  UNL     1      25.903   2.326  51.274  1.00  0.00     0.038 C 
BRANCH  14  17
HETATM   17  C4  UNL     1      26.861  -1.122  52.537  1.00  0.00     0.035 C 
HETATM   18  C5  UNL     1      28.054  -1.430  53.018  1.00  0.00    -0.036 C 
BRANCH  18  19
HETATM   19  C6  UNL     1      28.598  -2.830  53.026  1.00  0.00     0.257 C 
HETATM   20  F1  UNL     1      29.753  -2.934  53.772  1.00  0.00    -0.251 F 
ENDBRANCH  18  19
BRANCH  18  21
HETATM   21  C7  UNL     1      29.149  -0.637  53.634  1.00  0.00     0.151 C 
HETATM   22 CL1  UNL     1      28.562   0.240  55.068  1.00  0.00    -0.126 Cl
ENDBRANCH  18  21
ENDBRANCH  14  17
ENDBRANCH  12  14
ENDBRANCH   1  12
BRANCH   7  23
HETATM   23  O1  UNL     1      19.150  -0.550  52.742  1.00  0.00    -0.355 OA
HETATM   24  C13 UNL     1      18.211  -1.392  53.340  1.00  0.00     0.210 C 
ENDBRANCH   7  23
TORSDOF 6
ENDMDL
MODEL 2
REMARK VINA RESULT:      -7.7      2.819      3.904
REMARK  6 active torsions:
REMARK  status: ('A' for Active; 'I' for Inactive)
REMARK    1  A    between atoms: C3_3  and  C4_4 
REMARK    2  A    between atoms: C3_3  and  N1_10 
REMARK    3  A    between atoms: C5_5  and  C6_6 
REMARK    4  A    between atoms: C5_5  and  C7_8 
REMARK    5  A    between atoms: N1_10  and  C8_11 
REMARK    6  A    between atoms: C12_17  and  O1_18 
ROOT
HETATM    1  C8  UNL     1      24.431  -0.407  53.821  1.00  0.00     0.142 A 
HETATM    2  N2  UNL     1      25.018  -0.934  54.908  1.00  0.00    -0.224 NA
HETATM    3  C9  UNL     1      24.219  -1.525  55.826  1.00  0.00     0.236 A 
HETATM    4  N3  UNL     1      22.882  -1.584  55.658  1.00  0.00    -0.241 NA
HETATM    5  C10 UNL     1      22.290  -1.052  54.559  1.00  0.00     0.074 A 
HETATM    6  C11 UNL     1      20.926  -1.157  54.469  1.00  0.00     0.070 A 
HETATM    7  C12 UNL     1      20.378  -0.596  53.328  1.00  0.00     0.076 A 
HETATM    8  C14 UNL     1      21.130   0.033  52.331  1.00  0.00    -0.028 A 
HETATM    9  C15 UNL     1      20.487   0.614  51.133  1.00  0.00     0.051 C 
HETATM   10  C16 UNL     1      22.502   0.084  52.522  1.00  0.00     0.027 A 
HETATM   11  C17 UNL     1      23.087  -0.453  53.627  1.00  0.00     0.039 A 
ENDROOT
BRANCH   1  12
HETATM   12  N1  UNL     1      25.316   0.201  52.890  1.00  0.00    -0.341 N 
HETATM   13  H10 UNL     1      25.726  -0.154  52.002  1.00  0.00     0.167 HD
BRANCH  12  14
HETATM   14  C3  UNL     1      25.793   1.523  53.103  1.00  0.00     0.029 C 
HETATM   15  C2  UNL     1      27.129   1.641  53.207  1.00  0.00    -0.002 C 
HETATM   16  C1  UNL     1      28.044   0.499  53.109  1.00  0.00     0.038 C 
BRANCH  14  17
HETATM   17  C4  UNL     1      24.966   2.716  53.213  1.00  0.00     0.035 C 
HETATM   18  C5  UNL     1      24.263   3.307  52.261  1.00  0.00    -0.036 C 
BRANCH  18  19
HETATM   19  C6  UNL     1      23.442   4.543  52.497  1.00  0.00     0.257 C 
HETATM   20  F1  UNL     1      23.746   5.146  53.699  1.00  0.00    -0.251 F 
ENDBRANCH  18  19
BRANCH  18  21
HETATM   21  C7  UNL     1      24.051   3.029  50.818  1.00  0.00     0.151 C 
HETATM   22 CL1  UNL     1      25.569   3.232  49.908  1.00  0.00    -0.126 Cl
ENDBRANCH  18  21
ENDBRANCH  14  17
ENDBRANCH  12  14
ENDBRANCH   1  12
BRANCH   7  23
HETATM   23  O1  UNL     1      19.006  -0.636  53.118  1.00  0.00    -0.355 OA
HETATM   24  C13 UNL     1      18.188  -1.723  53.433  1.00  0.00     0.210 C 
ENDBRANCH   7  23
TORSDOF 6
ENDMDL
MODEL 3
REMARK VINA RESULT:      -7.6      1.605      1.901
REMARK  6 active torsions:
REMARK  status: ('A' for Active; 'I' for Inactive)
REMARK    1  A    between atoms: C3_3  and  C4_4 
REMARK    2  A    between atoms: C3_3  and  N1_10 
REMARK    3  A    between atoms: C5_5  and  C6_6 
REMARK    4  A    between atoms: C5_5  and  C7_8 
REMARK    5  A    between atoms: N1_10  and  C8_11 
REMARK    6  A    between atoms: C12_17  and  O1_18 
ROOT
HETATM    1  C8  UNL     1      23.427  -0.209  53.576  1.00  0.00     0.142 A 
HETATM    2  N2  UNL     1      23.909  -0.827  54.665  1.00  0.00    -0.224 NA
HETATM    3  C9  UNL     1      23.036  -1.526  55.427  1.00  0.00     0.236 A 
HETATM    4  N3  UNL     1      21.727  -1.598  55.105  1.00  0.00    -0.241 NA
HETATM    5  C10 UNL     1      21.241  -0.972  54.004  1.00  0.00     0.074 A 
HETATM    6  C11 UNL     1      19.899  -1.098  53.752  1.00  0.00     0.070 A 
HETATM    7  C12 UNL     1      19.460  -0.439  52.617  1.00  0.00     0.076 A 
HETATM    8  C14 UNL     1      20.294   0.304  51.776  1.00  0.00    -0.028 A 
HETATM    9  C15 UNL     1      19.767   0.987  50.575  1.00  0.00     0.051 C 
HETATM   10  C16 UNL     1      21.636   0.366  52.123  1.00  0.00     0.027 A 
HETATM   11  C17 UNL     1      22.114  -0.265  53.229  1.00  0.00     0.039 A 
ENDROOT
BRANCH   1  12
HETATM   12  N1  UNL     1      24.387   0.510  52.813  1.00  0.00    -0.341 N 
HETATM   13  H10 UNL     1      24.611   0.486  51.796  1.00  0.00     0.167 HD
BRANCH  12  14
HETATM   14  C3  UNL     1      25.250   1.452  53.436  1.00  0.00     0.029 C 
HETATM   15  C2  UNL     1      24.941   2.742  53.221  1.00  0.00    -0.002 C 
HETATM   16  C1  UNL     1      23.799   3.168  52.405  1.00  0.00     0.038 C 
BRANCH  14  17
HETATM   17  C4  UNL     1      26.404   1.127  54.262  1.00  0.00     0.035 C 
HETATM   18  C5  UNL     1      27.434   0.358  53.950  1.00  0.00    -0.036 C 
BRANCH  18  19
HETATM   19  C6  UNL     1      28.574   0.095  54.891  1.00  0.00     0.257 C 
HETATM   20  F1  UNL     1      29.526  -0.732  54.334  1.00  0.00    -0.251 F 
ENDBRANCH  18  19
BRANCH  18  21
HETATM   21  C7  UNL     1      27.802  -0.426  52.743  1.00  0.00     0.151 C 
HETATM   22 CL1  UNL     1      26.877  -1.945  52.672  1.00  0.00    -0.126 Cl
ENDBRANCH  18  21
ENDBRANCH  14  17
ENDBRANCH  12  14
ENDBRANCH   1  12
BRANCH   7  23
HETATM   23  O1  UNL     1      18.121  -0.489  52.252  1.00  0.00    -0.355 OA
HETATM   24  C13 UNL     1      17.162  -1.295  52.869  1.00  0.00     0.210 C 
ENDBRANCH   7  23
TORSDOF 6
ENDMDL
MODEL 4
REMARK VINA RESULT:      -7.2      3.716      6.294
REMARK  6 active torsions:
REMARK  status: ('A' for Active; 'I' for Inactive)
REMARK    1  A    between atoms: C3_3  and  C4_4 
REMARK    2  A    between atoms: C3_3  and  N1_10 
REMARK    3  A    between atoms: C5_5  and  C6_6 
REMARK    4  A    between atoms: C5_5  and  C7_8 
REMARK    5  A    between atoms: N1_10  and  C8_11 
REMARK    6  A    between atoms: C12_17  and  O1_18 
ROOT
HETATM    1  C8  UNL     1      22.373  -0.175  53.008  1.00  0.00     0.142 A 
HETATM    2  N2  UNL     1      21.632  -0.873  53.883  1.00  0.00    -0.224 NA
HETATM    3  C9  UNL     1      22.263  -1.403  54.955  1.00  0.00     0.236 A 
HETATM    4  N3  UNL     1      23.590  -1.239  55.139  1.00  0.00    -0.241 NA
HETATM    5  C10 UNL     1      24.338  -0.534  54.254  1.00  0.00     0.074 A 
HETATM    6  C11 UNL     1      25.678  -0.416  54.519  1.00  0.00     0.070 A 
HETATM    7  C12 UNL     1      26.390   0.314  53.582  1.00  0.00     0.076 A 
HETATM    8  C14 UNL     1      25.816   0.896  52.448  1.00  0.00    -0.028 A 
HETATM    9  C15 UNL     1      26.628   1.666  51.481  1.00  0.00     0.051 C 
HETATM   10  C16 UNL     1      24.452   0.715  52.276  1.00  0.00     0.027 A 
HETATM   11  C17 UNL     1      23.710   0.006  53.169  1.00  0.00     0.039 A 
ENDROOT
BRANCH   1  12
HETATM   12  N1  UNL     1      21.659   0.361  51.901  1.00  0.00    -0.341 N 
HETATM   13  H10 UNL     1      21.569   0.029  50.918  1.00  0.00     0.167 HD
BRANCH  12  14
HETATM   14  C3  UNL     1      20.899   1.554  52.039  1.00  0.00     0.029 C 
HETATM   15  C2  UNL     1      19.575   1.416  51.849  1.00  0.00    -0.002 C 
HETATM   16  C1  UNL     1      18.941   0.134  51.523  1.00  0.00     0.038 C 
BRANCH  14  17
HETATM   17  C4  UNL     1      21.436   2.869  52.358  1.00  0.00     0.035 C 
HETATM   18  C5  UNL     1      22.231   3.623  51.617  1.00  0.00    -0.036 C 
BRANCH  18  19
HETATM   19  C6  UNL     1      22.724   4.971  52.056  1.00  0.00     0.257 C 
HETATM   20  F1  UNL     1      23.427   4.907  53.241  1.00  0.00    -0.251 F 
ENDBRANCH  18  19
BRANCH  18  21
HETATM   21  C7  UNL     1      22.852   3.454  50.279  1.00  0.00     0.151 C 
HETATM   22 CL1  UNL     1      24.430   4.276  50.209  1.00  0.00    -0.126 Cl
ENDBRANCH  18  21
ENDBRANCH  14  17
ENDBRANCH  12  14
ENDBRANCH   1  12
BRANCH   7  23
HETATM   23  O1  UNL     1      27.757   0.505  53.736  1.00  0.00    -0.355 OA
HETATM   24  C13 UNL     1      28.488   0.122  54.862  1.00  0.00     0.210 C 
ENDBRANCH   7  23
TORSDOF 6
ENDMDL
MODEL 5
REMARK VINA RESULT:      -7.2      4.319      6.607
REMARK  6 active torsions:
REMARK  status: ('A' for Active; 'I' for Inactive)
REMARK    1  A    between atoms: C3_3  and  C4_4 
REMARK    2  A    between atoms: C3_3  and  N1_10 
REMARK    3  A    between atoms: C5_5  and  C6_6 
REMARK    4  A    between atoms: C5_5  and  C7_8 
REMARK    5  A    between atoms: N1_10  and  C8_11 
REMARK    6  A    between atoms: C12_17  and  O1_18 
ROOT
HETATM    1  C8  UNL     1      23.987   2.092  52.874  1.00  0.00     0.142 A 
HETATM    2  N2  UNL     1      22.838   1.398  52.847  1.00  0.00    -0.224 NA
HETATM    3  C9  UNL     1      22.880   0.102  53.231  1.00  0.00     0.236 A 
HETATM    4  N3  UNL     1      24.034  -0.475  53.626  1.00  0.00    -0.241 NA
HETATM    5  C10 UNL     1      25.194   0.227  53.653  1.00  0.00     0.074 A 
HETATM    6  C11 UNL     1      26.320  -0.437  54.069  1.00  0.00     0.070 A 
HETATM    7  C12 UNL     1      27.474   0.328  54.075  1.00  0.00     0.076 A 
HETATM    8  C14 UNL     1      27.518   1.673  53.694  1.00  0.00    -0.028 A 
HETATM    9  C15 UNL     1      28.781   2.441  53.722  1.00  0.00     0.051 C 
HETATM   10  C16 UNL     1      26.321   2.248  53.291  1.00  0.00     0.027 A 
HETATM   11  C17 UNL     1      25.163   1.535  53.267  1.00  0.00     0.039 A 
ENDROOT
BRANCH   1  12
HETATM   12  N1  UNL     1      23.885   3.448  52.461  1.00  0.00    -0.341 N 
HETATM   13  H10 UNL     1      23.730   4.321  53.007  1.00  0.00     0.167 HD
BRANCH  12  14
HETATM   14  C3  UNL     1      23.998   3.797  51.087  1.00  0.00     0.029 C 
HETATM   15  C2  UNL     1      22.873   4.265  50.520  1.00  0.00    -0.002 C 
HETATM   16  C1  UNL     1      21.609   4.415  51.250  1.00  0.00     0.038 C 
BRANCH  14  17
HETATM   17  C4  UNL     1      25.205   3.684  50.280  1.00  0.00     0.035 C 
HETATM   18  C5  UNL     1      25.907   4.660  49.729  1.00  0.00    -0.036 C 
BRANCH  18  19
HETATM   19  C6  UNL     1      27.143   4.419  48.912  1.00  0.00     0.257 C 
HETATM   20  F1  UNL     1      27.523   5.539  48.202  1.00  0.00    -0.251 F 
ENDBRANCH  18  19
BRANCH  18  21
HETATM   21  C7  UNL     1      25.765   6.138  49.703  1.00  0.00     0.151 C 
HETATM   22 CL1  UNL     1      24.577   6.635  48.473  1.00  0.00    -0.126 Cl
ENDBRANCH  18  21
ENDBRANCH  14  17
ENDBRANCH  12  14
ENDBRANCH   1  12
BRANCH   7  23
HETATM   23  O1  UNL     1      28.681  -0.228  54.475  1.00  0.00    -0.355 OA
HETATM   24  C13 UNL     1      29.471  -1.059  53.679  1.00  0.00     0.210 C 
ENDBRANCH   7  23
TORSDOF 6
ENDMDL
MODEL 6
REMARK VINA RESULT:      -7.1      4.032      6.495
REMARK  6 active torsions:
REMARK  status: ('A' for Active; 'I' for Inactive)
REMARK    1  A    between atoms: C3_3  and  C4_4 
REMARK    2  A    between atoms: C3_3  and  N1_10 
REMARK    3  A    between atoms: C5_5  and  C6_6 
REMARK    4  A    between atoms: C5_5  and  C7_8 
REMARK    5  A    between atoms: N1_10  and  C8_11 
REMARK    6  A    between atoms: C12_17  and  O1_18 
ROOT
HETATM    1  C8  UNL     1      24.008   3.023  51.632  1.00  0.00     0.142 A 
HETATM    2  N2  UNL     1      22.888   3.227  52.343  1.00  0.00    -0.224 NA
HETATM    3  C9  UNL     1      22.354   4.471  52.327  1.00  0.00     0.236 A 
HETATM    4  N3  UNL     1      22.927   5.470  51.625  1.00  0.00    -0.241 NA
HETATM    5  C10 UNL     1      24.059   5.262  50.907  1.00  0.00     0.074 A 
HETATM    6  C11 UNL     1      24.573   6.333  50.222  1.00  0.00     0.070 A 
HETATM    7  C12 UNL     1      25.728   6.062  49.508  1.00  0.00     0.076 A 
HETATM    8  C14 UNL     1      26.344   4.807  49.470  1.00  0.00    -0.028 A 
HETATM    9  C15 UNL     1      27.578   4.577  48.688  1.00  0.00     0.051 C 
HETATM   10  C16 UNL     1      25.740   3.793  50.199  1.00  0.00     0.027 A 
HETATM   11  C17 UNL     1      24.605   4.011  50.916  1.00  0.00     0.039 A 
ENDROOT
BRANCH   1  12
HETATM   12  N1  UNL     1      24.524   1.699  51.683  1.00  0.00    -0.341 N 
HETATM   13  H10 UNL     1      24.506   0.929  50.983  1.00  0.00     0.167 HD
BRANCH  12  14
HETATM   14  C3  UNL     1      25.203   1.232  52.842  1.00  0.00     0.029 C 
HETATM   15  C2  UNL     1      24.578   0.252  53.517  1.00  0.00    -0.002 C 
HETATM   16  C1  UNL     1      23.287  -0.309  53.103  1.00  0.00     0.038 C 
BRANCH  14  17
HETATM   17  C4  UNL     1      26.483   1.724  53.331  1.00  0.00     0.035 C 
HETATM   18  C5  UNL     1      27.619   1.057  53.444  1.00  0.00    -0.036 C 
BRANCH  18  19
HETATM   19  C6  UNL     1      28.884   1.676  53.967  1.00  0.00     0.257 C 
HETATM   20  F1  UNL     1      29.058   2.965  53.509  1.00  0.00    -0.251 F 
ENDBRANCH  18  19
BRANCH  18  21
HETATM   21  C7  UNL     1      28.022  -0.342  53.152  1.00  0.00     0.151 C 
HETATM   22 CL1  UNL     1      29.760  -0.575  53.462  1.00  0.00    -0.126 Cl
ENDBRANCH  18  21
ENDBRANCH  14  17
ENDBRANCH  12  14
ENDBRANCH   1  12
BRANCH   7  23
HETATM   23  O1  UNL     1      26.348   7.063  48.773  1.00  0.00    -0.355 OA
HETATM   24  C13 UNL     1      25.741   7.774  47.735  1.00  0.00     0.210 C 
ENDBRANCH   7  23
TORSDOF 6
ENDMDL
MODEL 7
REMARK VINA RESULT:      -7.0      4.174      6.146
REMARK  6 active torsions:
REMARK  status: ('A' for Active; 'I' for Inactive)
REMARK    1  A    between atoms: C3_3  and  C4_4 
REMARK    2  A    between atoms: C3_3  and  N1_10 
REMARK    3  A    between atoms: C5_5  and  C6_6 
REMARK    4  A    between atoms: C5_5  and  C7_8 
REMARK    5  A    between atoms: N1_10  and  C8_11 
REMARK    6  A    between atoms: C12_17  and  O1_18 
ROOT
HETATM    1  C8  UNL     1      26.034   2.493  51.126  1.00  0.00     0.142 A 
HETATM    2  N2  UNL     1      27.277   2.600  51.622  1.00  0.00    -0.224 NA
HETATM    3  C9  UNL     1      27.550   1.945  52.774  1.00  0.00     0.236 A 
HETATM    4  N3  UNL     1      26.609   1.211  53.402  1.00  0.00    -0.241 NA
HETATM    5  C10 UNL     1      25.353   1.104  52.900  1.00  0.00     0.074 A 
HETATM    6  C11 UNL     1      24.460   0.337  53.603  1.00  0.00     0.070 A 
HETATM    7  C12 UNL     1      23.195   0.264  53.044  1.00  0.00     0.076 A 
HETATM    8  C14 UNL     1      22.830   0.909  51.858  1.00  0.00    -0.028 A 
HETATM    9  C15 UNL     1      21.462   0.793  51.308  1.00  0.00     0.051 C 
HETATM   10  C16 UNL     1      23.811   1.659  51.227  1.00  0.00     0.027 A 
HETATM   11  C17 UNL     1      25.067   1.761  51.739  1.00  0.00     0.039 A 
ENDROOT
BRANCH   1  12
HETATM   12  N1  UNL     1      25.802   3.201  49.915  1.00  0.00    -0.341 N 
HETATM   13  H10 UNL     1      25.804   2.882  48.924  1.00  0.00     0.167 HD
BRANCH  12  14
HETATM   14  C3  UNL     1      25.509   4.592  49.934  1.00  0.00     0.029 C 
HETATM   15  C2  UNL     1      26.397   5.375  49.298  1.00  0.00    -0.002 C 
HETATM   16  C1  UNL     1      27.591   4.850  48.625  1.00  0.00     0.038 C 
BRANCH  14  17
HETATM   17  C4  UNL     1      24.354   5.206  50.574  1.00  0.00     0.035 C 
HETATM   18  C5  UNL     1      23.153   5.408  50.058  1.00  0.00    -0.036 C 
BRANCH  18  19
HETATM   19  C6  UNL     1      22.033   6.056  50.821  1.00  0.00     0.257 C 
HETATM   20  F1  UNL     1      21.701   5.349  51.957  1.00  0.00    -0.251 F 
ENDBRANCH  18  19
BRANCH  18  21
HETATM   21  C7  UNL     1      22.542   5.124  48.735  1.00  0.00     0.151 C 
HETATM   22 CL1  UNL     1      22.530   3.373  48.410  1.00  0.00    -0.126 Cl
ENDBRANCH  18  21
ENDBRANCH  14  17
ENDBRANCH  12  14
ENDBRANCH   1  12
BRANCH   7  23
HETATM   23  O1  UNL     1      22.199  -0.481  53.660  1.00  0.00    -0.355 OA
HETATM   24  C13 UNL     1      22.373  -1.217  54.834  1.00  0.00     0.210 C 
ENDBRANCH   7  23
TORSDOF 6
ENDMDL
MODEL 8
REMARK VINA RESULT:      -6.8      4.153      5.752
REMARK  6 active torsions:
REMARK  status: ('A' for Active; 'I' for Inactive)
REMARK    1  A    between atoms: C3_3  and  C4_4 
REMARK    2  A    between atoms: C3_3  and  N1_10 
REMARK    3  A    between atoms: C5_5  and  C6_6 
REMARK    4  A    between atoms: C5_5  and  C7_8 
REMARK    5  A    between atoms: N1_10  and  C8_11 
REMARK    6  A    between atoms: C12_17  and  O1_18 
ROOT
HETATM    1  C8  UNL     1      25.490   2.645  51.774  1.00  0.00     0.142 A 
HETATM    2  N2  UNL     1      26.812   2.412  51.795  1.00  0.00    -0.224 NA
HETATM    3  C9  UNL     1      27.231   1.234  52.312  1.00  0.00     0.236 A 
HETATM    4  N3  UNL     1      26.355   0.327  52.791  1.00  0.00    -0.241 NA
HETATM    5  C10 UNL     1      25.019   0.564  52.769  1.00  0.00     0.074 A 
HETATM    6  C11 UNL     1      24.201  -0.413  53.275  1.00  0.00     0.070 A 
HETATM    7  C12 UNL     1      22.849  -0.116  53.227  1.00  0.00     0.076 A 
HETATM    8  C14 UNL     1      22.331   1.076  52.709  1.00  0.00    -0.028 A 
HETATM    9  C15 UNL     1      20.876   1.337  52.684  1.00  0.00     0.051 C 
HETATM   10  C16 UNL     1      23.248   1.996  52.223  1.00  0.00     0.027 A 
HETATM   11  C17 UNL     1      24.586   1.749  52.249  1.00  0.00     0.039 A 
ENDROOT
BRANCH   1  12
HETATM   12  N1  UNL     1      25.105   3.896  51.220  1.00  0.00    -0.341 N 
HETATM   13  H10 UNL     1      24.649   4.726  51.653  1.00  0.00     0.167 HD
BRANCH  12  14
HETATM   14  C3  UNL     1      25.329   4.179  49.845  1.00  0.00     0.029 C 
HETATM   15  C2  UNL     1      24.219   4.314  49.099  1.00  0.00    -0.002 C 
HETATM   16  C1  UNL     1      22.864   4.183  49.646  1.00  0.00     0.038 C 
BRANCH  14  17
HETATM   17  C4  UNL     1      26.632   4.326  49.211  1.00  0.00     0.035 C 
HETATM   18  C5  UNL     1      27.242   5.446  48.860  1.00  0.00    -0.036 C 
BRANCH  18  19
HETATM   19  C6  UNL     1      28.594   5.472  48.208  1.00  0.00     0.257 C 
HETATM   20  F1  UNL     1      29.104   6.750  48.122  1.00  0.00    -0.251 F 
ENDBRANCH  18  19
BRANCH  18  21
HETATM   21  C7  UNL     1      26.883   6.884  48.955  1.00  0.00     0.151 C 
HETATM   22 CL1  UNL     1      25.641   7.303  47.749  1.00  0.00    -0.126 Cl
ENDBRANCH  18  21
ENDBRANCH  14  17
ENDBRANCH  12  14
ENDBRANCH   1  12
BRANCH   7  23
HETATM   23  O1  UNL     1      21.915  -1.023  53.709  1.00  0.00    -0.355 OA
HETATM   24  C13 UNL     1      21.987  -1.644  54.958  1.00  0.00     0.210 C 
ENDBRANCH   7  23
TORSDOF 6
ENDMDL
MODEL 9
REMARK VINA RESULT:      -6.8      4.160      6.806
REMARK  6 active torsions:
REMARK  status: ('A' for Active; 'I' for Inactive)
REMARK    1  A    between atoms: C3_3  and  C4_4 
REMARK    2  A    between atoms: C3_3  and  N1_10 
REMARK    3  A    between atoms: C5_5  and  C6_6 
REMARK    4  A    between atoms: C5_5  and  C7_8 
REMARK    5  A    between atoms: N1_10  and  C8_11 
REMARK    6  A    between atoms: C12_17  and  O1_18 
ROOT
HETATM    1  C8  UNL     1      24.366   3.252  51.661  1.00  0.00     0.142 A 
HETATM    2  N2  UNL     1      24.998   4.032  50.771  1.00  0.00    -0.224 NA
HETATM    3  C9  UNL     1      26.197   3.609  50.307  1.00  0.00     0.236 A 
HETATM    4  N3  UNL     1      26.739   2.447  50.725  1.00  0.00    -0.241 NA
HETATM    5  C10 UNL     1      26.100   1.659  51.626  1.00  0.00     0.074 A 
HETATM    6  C11 UNL     1      26.723   0.495  51.994  1.00  0.00     0.070 A 
HETATM    7  C12 UNL     1      26.024  -0.268  52.915  1.00  0.00     0.076 A 
HETATM    8  C14 UNL     1      24.781   0.095  53.444  1.00  0.00    -0.028 A 
HETATM    9  C15 UNL     1      24.081  -0.762  54.425  1.00  0.00     0.051 C 
HETATM   10  C16 UNL     1      24.241   1.293  53.002  1.00  0.00     0.027 A 
HETATM   11  C17 UNL     1      24.890   2.076  52.099  1.00  0.00     0.039 A 
ENDROOT
BRANCH   1  12
HETATM   12  N1  UNL     1      23.111   3.743  52.114  1.00  0.00    -0.341 N 
HETATM   13  H10 UNL     1      22.844   4.232  52.994  1.00  0.00     0.167 HD
BRANCH  12  14
HETATM   14  C3  UNL     1      21.946   3.599  51.313  1.00  0.00     0.029 C 
HETATM   15  C2  UNL     1      21.412   4.749  50.865  1.00  0.00    -0.002 C 
HETATM   16  C1  UNL     1      21.978   6.068  51.170  1.00  0.00     0.038 C 
BRANCH  14  17
HETATM   17  C4  UNL     1      21.311   2.338  50.957  1.00  0.00     0.035 C 
HETATM   18  C5  UNL     1      20.734   1.464  51.765  1.00  0.00    -0.036 C 
BRANCH  18  19
HETATM   19  C6  UNL     1      20.110   0.188  51.279  1.00  0.00     0.257 C 
HETATM   20  F1  UNL     1      18.747   0.308  51.110  1.00  0.00    -0.251 F 
ENDBRANCH  18  19
BRANCH  18  21
HETATM   21  C7  UNL     1      20.518   1.410  53.234  1.00  0.00     0.151 C 
HETATM   22 CL1  UNL     1      20.572  -0.272  53.816  1.00  0.00    -0.126 Cl
ENDBRANCH  18  21
ENDBRANCH  14  17
ENDBRANCH  12  14
ENDBRANCH   1  12
BRANCH   7  23
HETATM   23  O1  UNL     1      26.549  -1.471  53.370  1.00  0.00    -0.355 OA
HETATM   24  C13 UNL     1      27.259  -2.374  52.578  1.00  0.00     0.210 C 
ENDBRANCH   7  23
TORSDOF 6
ENDMDL
