MODEL 1
REMARK VINA RESULT:      -7.9      0.000      0.000
REMARK  4 active torsions:
REMARK  status: ('A' for Active; 'I' for Inactive)
REMARK    1  A    between atoms: C3_3  and  C4_4 
REMARK    2  A    between atoms: C8_9  and  N2_10 
REMARK    3  A    between atoms: C10_13  and  N4_14 
REMARK    4  A    between atoms: N4_14  and  C11_15 
ROOT
HETATM    1  C1  UNL     1      27.263   5.007  48.752  1.00  0.00     0.012 C 
HETATM    2  C2  UNL     1      26.796   4.060  49.335  1.00  0.00    -0.111 C 
HETATM    3  C3  UNL     1      26.219   2.931  50.056  1.00  0.00     0.150 C 
ENDROOT
BRANCH   3   4
HETATM    4  C4  UNL     1      25.217   3.336  51.021  1.00  0.00     0.023 C 
HETATM    5  C5  UNL     1      24.704   2.522  51.923  1.00  0.00    -0.011 C 
HETATM    6  C6  UNL     1      24.598   3.325  53.233  1.00  0.00     0.073 C 
HETATM    7  C10 UNL     1      24.071   1.157  52.131  1.00  0.00     0.240 C 
HETATM    8  C7  UNL     1      23.473   4.164  52.496  1.00  0.00     0.154 C 
HETATM    9  N1  UNL     1      24.408   4.516  51.388  1.00  0.00    -0.380 N 
HETATM   10  C8  UNL     1      22.550   3.031  52.084  1.00  0.00     0.120 C 
HETATM   11  H7  UNL     1      24.614   5.401  50.822  1.00  0.00     0.160 HD
HETATM   12  N3  UNL     1      22.658   1.715  52.268  1.00  0.00    -0.245 NA
BRANCH  10  13
HETATM   13  N2  UNL     1      21.371   3.484  51.381  1.00  0.00    -0.381 N 
HETATM   14  C9  UNL     1      20.052   3.305  51.999  1.00  0.00     0.147 C 
HETATM   15  H8  UNL     1      21.371   3.951  50.425  1.00  0.00     0.160 HD
ENDBRANCH  10  13
BRANCH   7  16
HETATM   16  N4  UNL     1      24.426   0.553  53.353  1.00  0.00    -0.364 N 
HETATM   17  H13 UNL     1      23.801   0.379  54.177  1.00  0.00     0.162 HD
BRANCH  16  18
HETATM   18  C11 UNL     1      25.778   0.133  53.491  1.00  0.00     0.029 A 
HETATM   19  C12 UNL     1      26.586   0.556  54.531  1.00  0.00     0.031 A 
HETATM   20  C13 UNL     1      27.899   0.177  54.704  1.00  0.00     0.026 A 
HETATM   21  C14 UNL     1      28.472  -0.682  53.793  1.00  0.00     0.034 A 
HETATM   22 CL1  UNL     1      30.131  -1.218  53.934  1.00  0.00    -0.084 Cl
HETATM   23  C15 UNL     1      27.720  -1.140  52.733  1.00  0.00     0.026 A 
HETATM   24  C16 UNL     1      26.412  -0.717  52.625  1.00  0.00     0.031 A 
ENDBRANCH  16  18
ENDBRANCH   7  16
ENDBRANCH   3   4
TORSDOF 4
ENDMDL
MODEL 2
REMARK VINA RESULT:      -7.6      3.389      6.637
REMARK  4 active torsions:
REMARK  status: ('A' for Active; 'I' for Inactive)
REMARK    1  A    between atoms: C3_3  and  C4_4 
REMARK    2  A    between atoms: C8_9  and  N2_10 
REMARK    3  A    between atoms: C10_13  and  N4_14 
REMARK    4  A    between atoms: N4_14  and  C11_15 
ROOT
HETATM    1  C1  UNL     1      21.582   1.017  53.226  1.00  0.00     0.012 C 
HETATM    2  C2  UNL     1      22.352   0.106  53.405  1.00  0.00    -0.111 C 
HETATM    3  C3  UNL     1      23.303  -0.978  53.623  1.00  0.00     0.150 C 
ENDROOT
BRANCH   3   4
HETATM    4  C4  UNL     1      24.618  -0.502  54.003  1.00  0.00     0.023 C 
HETATM    5  C5  UNL     1      25.283   0.416  53.329  1.00  0.00    -0.011 C 
HETATM    6  C6  UNL     1      25.935   1.343  54.371  1.00  0.00     0.073 C 
HETATM    7  C10 UNL     1      25.747   0.830  51.943  1.00  0.00     0.240 C 
HETATM    8  C7  UNL     1      26.854   0.104  54.732  1.00  0.00     0.154 C 
HETATM    9  N1  UNL     1      25.662  -0.746  55.019  1.00  0.00    -0.380 N 
HETATM   10  C8  UNL     1      27.414  -0.199  53.354  1.00  0.00     0.120 C 
HETATM   11  H7  UNL     1      25.406  -1.465  55.769  1.00  0.00     0.160 HD
HETATM   12  N3  UNL     1      27.188   0.389  52.179  1.00  0.00    -0.245 NA
BRANCH  10  13
HETATM   13  N2  UNL     1      28.340  -1.308  53.347  1.00  0.00    -0.381 N 
HETATM   14  C9  UNL     1      29.751  -1.071  53.677  1.00  0.00     0.147 C 
HETATM   15  H8  UNL     1      28.086  -2.315  53.117  1.00  0.00     0.160 HD
ENDBRANCH  10  13
BRANCH   7  16
HETATM   16  N4  UNL     1      25.741   2.224  51.741  1.00  0.00    -0.364 N 
HETATM   17  H13 UNL     1      26.571   2.865  51.736  1.00  0.00     0.162 HD
BRANCH  16  18
HETATM   18  C11 UNL     1      24.475   2.833  51.523  1.00  0.00     0.029 A 
HETATM   19  C12 UNL     1      23.673   2.517  50.441  1.00  0.00     0.031 A 
HETATM   20  C13 UNL     1      22.442   3.081  50.190  1.00  0.00     0.026 A 
HETATM   21  C14 UNL     1      21.951   4.030  51.059  1.00  0.00     0.034 A 
HETATM   22 CL1  UNL     1      20.399   4.798  50.819  1.00  0.00    -0.084 Cl
HETATM   23  C15 UNL     1      22.702   4.390  52.157  1.00  0.00     0.026 A 
HETATM   24  C16 UNL     1      23.926   3.782  52.344  1.00  0.00     0.031 A 
ENDBRANCH  16  18
ENDBRANCH   7  16
ENDBRANCH   3   4
TORSDOF 4
ENDMDL
MODEL 3
REMARK VINA RESULT:      -7.6      3.693      5.998
REMARK  4 active torsions:
REMARK  status: ('A' for Active; 'I' for Inactive)
REMARK    1  A    between atoms: C3_3  and  C4_4 
REMARK    2  A    between atoms: C8_9  and  N2_10 
REMARK    3  A    between atoms: C10_13  and  N4_14 
REMARK    4  A    between atoms: N4_14  and  C11_15 
ROOT
HETATM    1  C1  UNL     1      22.291   3.401  51.626  1.00  0.00     0.012 C 
HETATM    2  C2  UNL     1      23.198   3.462  52.419  1.00  0.00    -0.111 C 
HETATM    3  C3  UNL     1      24.304   3.513  53.367  1.00  0.00     0.150 C 
ENDROOT
BRANCH   3   4
HETATM    4  C4  UNL     1      25.338   2.539  53.075  1.00  0.00     0.023 C 
HETATM    5  C5  UNL     1      25.162   1.237  53.183  1.00  0.00    -0.011 C 
HETATM    6  C6  UNL     1      25.856   0.596  51.967  1.00  0.00     0.073 C 
HETATM    7  C10 UNL     1      24.655   0.134  54.097  1.00  0.00     0.240 C 
HETATM    8  C7  UNL     1      27.214   1.059  52.638  1.00  0.00     0.154 C 
HETATM    9  N1  UNL     1      26.757   2.479  52.672  1.00  0.00    -0.380 N 
HETATM   10  C8  UNL     1      27.051   0.408  54.000  1.00  0.00     0.120 C 
HETATM   11  H7  UNL     1      27.214   3.427  52.475  1.00  0.00     0.160 HD
HETATM   12  N3  UNL     1      26.053  -0.324  54.497  1.00  0.00    -0.245 NA
BRANCH  10  13
HETATM   13  N2  UNL     1      28.177   0.634  54.878  1.00  0.00    -0.381 N 
HETATM   14  C9  UNL     1      29.519   0.789  54.303  1.00  0.00     0.147 C 
HETATM   15  H8  UNL     1      28.122   0.701  55.938  1.00  0.00     0.160 HD
ENDBRANCH  10  13
BRANCH   7  16
HETATM   16  N4  UNL     1      24.025  -0.921  53.408  1.00  0.00    -0.364 N 
HETATM   17  H13 UNL     1      24.492  -1.723  52.919  1.00  0.00     0.162 HD
BRANCH  16  18
HETATM   18  C11 UNL     1      22.604  -0.901  53.365  1.00  0.00     0.029 A 
HETATM   19  C12 UNL     1      21.898  -0.157  52.438  1.00  0.00     0.031 A 
HETATM   20  C13 UNL     1      20.524  -0.107  52.360  1.00  0.00     0.026 A 
HETATM   21  C14 UNL     1      19.776  -0.839  53.255  1.00  0.00     0.034 A 
HETATM   22 CL1  UNL     1      18.028  -0.837  53.230  1.00  0.00    -0.084 Cl
HETATM   23  C15 UNL     1      20.420  -1.602  54.205  1.00  0.00     0.026 A 
HETATM   24  C16 UNL     1      21.799  -1.603  54.223  1.00  0.00     0.031 A 
ENDBRANCH  16  18
ENDBRANCH   7  16
ENDBRANCH   3   4
TORSDOF 4
ENDMDL
MODEL 4
REMARK VINA RESULT:      -7.3      1.930      3.756
REMARK  4 active torsions:
REMARK  status: ('A' for Active; 'I' for Inactive)
REMARK    1  A    between atoms: C3_3  and  C4_4 
REMARK    2  A    between atoms: C8_9  and  N2_10 
REMARK    3  A    between atoms: C10_13  and  N4_14 
REMARK    4  A    between atoms: N4_14  and  C11_15 
ROOT
HETATM    1  C1  UNL     1      20.978   0.055  54.728  1.00  0.00     0.012 C 
HETATM    2  C2  UNL     1      21.791  -0.030  53.841  1.00  0.00    -0.111 C 
HETATM    3  C3  UNL     1      22.765  -0.112  52.758  1.00  0.00     0.150 C 
ENDROOT
BRANCH   3   4
HETATM    4  C4  UNL     1      22.762   1.065  51.912  1.00  0.00     0.023 C 
HETATM    5  C5  UNL     1      23.739   1.950  51.894  1.00  0.00    -0.011 C 
HETATM    6  C6  UNL     1      23.960   2.331  50.418  1.00  0.00     0.073 C 
HETATM    7  C10 UNL     1      24.631   2.818  52.765  1.00  0.00     0.240 C 
HETATM    8  C7  UNL     1      22.541   3.030  50.502  1.00  0.00     0.154 C 
HETATM    9  N1  UNL     1      21.897   1.756  50.935  1.00  0.00    -0.380 N 
HETATM   10  C8  UNL     1      22.785   3.943  51.690  1.00  0.00     0.120 C 
HETATM   11  H7  UNL     1      20.982   1.252  50.702  1.00  0.00     0.160 HD
HETATM   12  N3  UNL     1      23.866   4.100  52.454  1.00  0.00    -0.245 NA
BRANCH  10  13
HETATM   13  N2  UNL     1      21.642   4.762  52.023  1.00  0.00    -0.381 N 
HETATM   14  C9  UNL     1      20.741   5.209  50.953  1.00  0.00     0.147 C 
HETATM   15  H8  UNL     1      21.384   5.083  53.004  1.00  0.00     0.160 HD
ENDBRANCH  10  13
BRANCH   7  16
HETATM   16  N4  UNL     1      25.941   2.955  52.266  1.00  0.00    -0.364 N 
HETATM   17  H13 UNL     1      26.301   3.710  51.634  1.00  0.00     0.162 HD
BRANCH  16  18
HETATM   18  C11 UNL     1      26.882   1.963  52.657  1.00  0.00     0.029 A 
HETATM   19  C12 UNL     1      26.686   0.615  52.417  1.00  0.00     0.031 A 
HETATM   20  C13 UNL     1      27.568  -0.380  52.778  1.00  0.00     0.026 A 
HETATM   21  C14 UNL     1      28.734  -0.036  53.424  1.00  0.00     0.034 A 
HETATM   22 CL1  UNL     1      29.912  -1.231  53.918  1.00  0.00    -0.084 Cl
HETATM   23  C15 UNL     1      28.990   1.291  53.694  1.00  0.00     0.026 A 
HETATM   24  C16 UNL     1      28.060   2.231  53.303  1.00  0.00     0.031 A 
ENDBRANCH  16  18
ENDBRANCH   7  16
ENDBRANCH   3   4
TORSDOF 4
ENDMDL
MODEL 5
REMARK VINA RESULT:      -7.1      2.314      4.445
REMARK  4 active torsions:
REMARK  status: ('A' for Active; 'I' for Inactive)
REMARK    1  A    between atoms: C3_3  and  C4_4 
REMARK    2  A    between atoms: C8_9  and  N2_10 
REMARK    3  A    between atoms: C10_13  and  N4_14 
REMARK    4  A    between atoms: N4_14  and  C11_15 
ROOT
HETATM    1  C1  UNL     1      22.190  -1.749  54.704  1.00  0.00     0.012 C 
HETATM    2  C2  UNL     1      21.502  -0.760  54.632  1.00  0.00    -0.111 C 
HETATM    3  C3  UNL     1      20.678   0.438  54.521  1.00  0.00     0.150 C 
ENDROOT
BRANCH   3   4
HETATM    4  C4  UNL     1      20.531   0.891  53.152  1.00  0.00     0.023 C 
HETATM    5  C5  UNL     1      21.552   1.193  52.372  1.00  0.00    -0.011 C 
HETATM    6  C6  UNL     1      21.225   0.623  50.979  1.00  0.00     0.073 C 
HETATM    7  C10 UNL     1      22.846   1.983  52.290  1.00  0.00     0.240 C 
HETATM    8  C7  UNL     1      20.094   1.730  50.915  1.00  0.00     0.154 C 
HETATM    9  N1  UNL     1      19.476   1.227  52.175  1.00  0.00    -0.380 N 
HETATM   10  C8  UNL     1      20.938   2.963  51.183  1.00  0.00     0.120 C 
HETATM   11  H7  UNL     1      18.474   1.060  52.515  1.00  0.00     0.160 HD
HETATM   12  N3  UNL     1      22.244   3.084  51.423  1.00  0.00    -0.245 NA
BRANCH  10  13
HETATM   13  N2  UNL     1      20.175   4.190  51.170  1.00  0.00    -0.381 N 
HETATM   14  C9  UNL     1      20.149   5.009  49.951  1.00  0.00     0.147 C 
HETATM   15  H8  UNL     1      19.610   4.568  51.988  1.00  0.00     0.160 HD
ENDBRANCH  10  13
BRANCH   7  16
HETATM   16  N4  UNL     1      23.852   1.336  51.545  1.00  0.00    -0.364 N 
HETATM   17  H13 UNL     1      23.829   1.099  50.524  1.00  0.00     0.162 HD
BRANCH  16  18
HETATM   18  C11 UNL     1      25.029   0.960  52.250  1.00  0.00     0.029 A 
HETATM   19  C12 UNL     1      25.021   0.019  53.263  1.00  0.00     0.031 A 
HETATM   20  C13 UNL     1      26.135  -0.375  53.972  1.00  0.00     0.026 A 
HETATM   21  C14 UNL     1      27.353   0.191  53.671  1.00  0.00     0.034 A 
HETATM   22 CL1  UNL     1      28.819  -0.248  54.518  1.00  0.00    -0.084 Cl
HETATM   23  C15 UNL     1      27.429   1.137  52.672  1.00  0.00     0.026 A 
HETATM   24  C16 UNL     1      26.272   1.482  52.005  1.00  0.00     0.031 A 
ENDBRANCH  16  18
ENDBRANCH   7  16
ENDBRANCH   3   4
TORSDOF 4
ENDMDL
MODEL 6
REMARK VINA RESULT:      -7.1      3.191      4.903
REMARK  4 active torsions:
REMARK  status: ('A' for Active; 'I' for Inactive)
REMARK    1  A    between atoms: C3_3  and  C4_4 
REMARK    2  A    between atoms: C8_9  and  N2_10 
REMARK    3  A    between atoms: C10_13  and  N4_14 
REMARK    4  A    between atoms: N4_14  and  C11_15 
ROOT
HETATM    1  C1  UNL     1      22.901   2.749  48.192  1.00  0.00     0.012 C 
HETATM    2  C2  UNL     1      22.185   1.889  48.643  1.00  0.00    -0.111 C 
HETATM    3  C3  UNL     1      21.322   0.861  49.211  1.00  0.00     0.150 C 
ENDROOT
BRANCH   3   4
HETATM    4  C4  UNL     1      20.861   1.192  50.545  1.00  0.00     0.023 C 
HETATM    5  C5  UNL     1      21.659   1.606  51.509  1.00  0.00    -0.011 C 
HETATM    6  C6  UNL     1      20.915   2.737  52.243  1.00  0.00     0.073 C 
HETATM    7  C10 UNL     1      22.958   1.316  52.241  1.00  0.00     0.240 C 
HETATM    8  C7  UNL     1      19.927   1.606  52.749  1.00  0.00     0.154 C 
HETATM    9  N1  UNL     1      19.621   1.193  51.348  1.00  0.00    -0.380 N 
HETATM   10  C8  UNL     1      20.934   0.663  53.382  1.00  0.00     0.120 C 
HETATM   11  H7  UNL     1      18.736   0.909  50.817  1.00  0.00     0.160 HD
HETATM   12  N3  UNL     1      22.261   0.746  53.472  1.00  0.00    -0.245 NA
BRANCH  10  13
HETATM   13  N2  UNL     1      20.325  -0.505  53.976  1.00  0.00    -0.381 N 
HETATM   14  C9  UNL     1      21.179  -1.601  54.450  1.00  0.00     0.147 C 
HETATM   15  H8  UNL     1      19.279  -0.650  54.107  1.00  0.00     0.160 HD
ENDBRANCH  10  13
BRANCH   7  16
HETATM   16  N4  UNL     1      23.656   2.477  52.629  1.00  0.00    -0.364 N 
HETATM   17  H13 UNL     1      23.596   2.973  53.551  1.00  0.00     0.162 HD
BRANCH  16  18
HETATM   18  C11 UNL     1      24.537   3.046  51.668  1.00  0.00     0.029 A 
HETATM   19  C12 UNL     1      24.342   4.307  51.134  1.00  0.00     0.031 A 
HETATM   20  C13 UNL     1      25.168   4.896  50.202  1.00  0.00     0.026 A 
HETATM   21  C14 UNL     1      26.271   4.204  49.753  1.00  0.00     0.034 A 
HETATM   22 CL1  UNL     1      27.374   4.874  48.573  1.00  0.00    -0.084 Cl
HETATM   23  C15 UNL     1      26.521   2.942  50.247  1.00  0.00     0.026 A 
HETATM   24  C16 UNL     1      25.650   2.416  51.177  1.00  0.00     0.031 A 
ENDBRANCH  16  18
ENDBRANCH   7  16
ENDBRANCH   3   4
TORSDOF 4
ENDMDL
MODEL 7
REMARK VINA RESULT:      -6.9      3.504      5.286
REMARK  4 active torsions:
REMARK  status: ('A' for Active; 'I' for Inactive)
REMARK    1  A    between atoms: C3_3  and  C4_4 
REMARK    2  A    between atoms: C8_9  and  N2_10 
REMARK    3  A    between atoms: C10_13  and  N4_14 
REMARK    4  A    between atoms: N4_14  and  C11_15 
ROOT
HETATM    1  C1  UNL     1      22.638   3.553  48.036  1.00  0.00     0.012 C 
HETATM    2  C2  UNL     1      22.225   2.477  48.393  1.00  0.00    -0.111 C 
HETATM    3  C3  UNL     1      21.731   1.183  48.849  1.00  0.00     0.150 C 
ENDROOT
BRANCH   3   4
HETATM    4  C4  UNL     1      21.551   1.128  50.287  1.00  0.00     0.023 C 
HETATM    5  C5  UNL     1      22.459   1.539  51.151  1.00  0.00    -0.011 C 
HETATM    6  C6  UNL     1      21.701   2.286  52.264  1.00  0.00     0.073 C 
HETATM    7  C10 UNL     1      23.928   1.454  51.528  1.00  0.00     0.240 C 
HETATM    8  C7  UNL     1      21.117   0.868  52.662  1.00  0.00     0.154 C 
HETATM    9  N1  UNL     1      20.571   0.664  51.289  1.00  0.00    -0.380 N 
HETATM   10  C8  UNL     1      22.418   0.107  52.844  1.00  0.00     0.120 C 
HETATM   11  H7  UNL     1      19.660   0.273  50.886  1.00  0.00     0.160 HD
HETATM   12  N3  UNL     1      23.682   0.503  52.695  1.00  0.00    -0.245 NA
BRANCH  10  13
HETATM   13  N2  UNL     1      22.222  -1.268  53.244  1.00  0.00    -0.381 N 
HETATM   14  C9  UNL     1      21.380  -1.566  54.409  1.00  0.00     0.147 C 
HETATM   15  H8  UNL     1      22.646  -2.113  52.757  1.00  0.00     0.160 HD
ENDBRANCH  10  13
BRANCH   7  16
HETATM   16  N4  UNL     1      24.447   2.658  52.042  1.00  0.00    -0.364 N 
HETATM   17  H13 UNL     1      24.466   2.960  53.046  1.00  0.00     0.162 HD
BRANCH  16  18
HETATM   18  C11 UNL     1      25.005   3.568  51.102  1.00  0.00     0.029 A 
HETATM   19  C12 UNL     1      26.104   3.252  50.323  1.00  0.00     0.031 A 
HETATM   20  C13 UNL     1      26.678   4.100  49.402  1.00  0.00     0.026 A 
HETATM   21  C14 UNL     1      26.142   5.356  49.224  1.00  0.00     0.034 A 
HETATM   22 CL1  UNL     1      26.804   6.498  48.078  1.00  0.00    -0.084 Cl
HETATM   23  C15 UNL     1      25.046   5.732  49.970  1.00  0.00     0.026 A 
HETATM   24  C16 UNL     1      24.525   4.830  50.874  1.00  0.00     0.031 A 
ENDBRANCH  16  18
ENDBRANCH   7  16
ENDBRANCH   3   4
TORSDOF 4
ENDMDL
MODEL 8
REMARK VINA RESULT:      -6.7      3.503      6.798
REMARK  4 active torsions:
REMARK  status: ('A' for Active; 'I' for Inactive)
REMARK    1  A    between atoms: C3_3  and  C4_4 
REMARK    2  A    between atoms: C8_9  and  N2_10 
REMARK    3  A    between atoms: C10_13  and  N4_14 
REMARK    4  A    between atoms: N4_14  and  C11_15 
ROOT
HETATM    1  C1  UNL     1      20.786   0.022  53.667  1.00  0.00     0.012 C 
HETATM    2  C2  UNL     1      21.675   0.332  52.912  1.00  0.00    -0.111 C 
HETATM    3  C3  UNL     1      22.764   0.711  52.020  1.00  0.00     0.150 C 
ENDROOT
BRANCH   3   4
HETATM    4  C4  UNL     1      24.018   0.911  52.720  1.00  0.00     0.023 C 
HETATM    5  C5  UNL     1      24.937   1.775  52.335  1.00  0.00    -0.011 C 
HETATM    6  C6  UNL     1      25.469   2.450  53.613  1.00  0.00     0.073 C 
HETATM    7  C10 UNL     1      25.747   2.263  51.147  1.00  0.00     0.240 C 
HETATM    8  C7  UNL     1      26.102   1.040  53.960  1.00  0.00     0.154 C 
HETATM    9  N1  UNL     1      24.769   0.377  53.874  1.00  0.00    -0.380 N 
HETATM   10  C8  UNL     1      26.903   0.810  52.690  1.00  0.00     0.120 C 
HETATM   11  H7  UNL     1      24.256  -0.371  54.442  1.00  0.00     0.160 HD
HETATM   12  N3  UNL     1      27.025   1.560  51.595  1.00  0.00    -0.245 NA
BRANCH  10  13
HETATM   13  N2  UNL     1      27.642  -0.432  52.701  1.00  0.00    -0.381 N 
HETATM   14  C9  UNL     1      28.708  -0.627  53.691  1.00  0.00     0.147 C 
HETATM   15  H8  UNL     1      27.481  -1.246  52.035  1.00  0.00     0.160 HD
ENDBRANCH  10  13
BRANCH   7  16
HETATM   16  N4  UNL     1      25.981   3.652  51.159  1.00  0.00    -0.364 N 
HETATM   17  H13 UNL     1      26.602   4.182  51.818  1.00  0.00     0.162 HD
BRANCH  16  18
HETATM   18  C11 UNL     1      25.305   4.424  50.175  1.00  0.00     0.029 A 
HETATM   19  C12 UNL     1      24.040   4.102  49.717  1.00  0.00     0.031 A 
HETATM   20  C13 UNL     1      23.348   4.820  48.767  1.00  0.00     0.026 A 
HETATM   21  C14 UNL     1      23.932   5.939  48.217  1.00  0.00     0.034 A 
HETATM   22 CL1  UNL     1      23.127   6.911  47.006  1.00  0.00    -0.084 Cl
HETATM   23  C15 UNL     1      25.192   6.314  48.631  1.00  0.00     0.026 A 
HETATM   24  C16 UNL     1      25.824   5.547  49.586  1.00  0.00     0.031 A 
ENDBRANCH  16  18
ENDBRANCH   7  16
ENDBRANCH   3   4
TORSDOF 4
ENDMDL
MODEL 9
REMARK VINA RESULT:      -6.6      3.306      4.735
REMARK  4 active torsions:
REMARK  status: ('A' for Active; 'I' for Inactive)
REMARK    1  A    between atoms: C3_3  and  C4_4 
REMARK    2  A    between atoms: C8_9  and  N2_10 
REMARK    3  A    between atoms: C10_13  and  N4_14 
REMARK    4  A    between atoms: N4_14  and  C11_15 
ROOT
HETATM    1  C1  UNL     1      21.920   1.383  48.635  1.00  0.00     0.012 C 
HETATM    2  C2  UNL     1      22.118   2.524  48.300  1.00  0.00    -0.111 C 
HETATM    3  C3  UNL     1      22.374   3.907  47.914  1.00  0.00     0.150 C 
ENDROOT
BRANCH   3   4
HETATM    4  C4  UNL     1      23.463   4.505  48.660  1.00  0.00     0.023 C 
HETATM    5  C5  UNL     1      23.854   4.077  49.845  1.00  0.00    -0.011 C 
HETATM    6  C6  UNL     1      25.394   4.114  49.840  1.00  0.00     0.073 C 
HETATM    7  C10 UNL     1      23.376   3.687  51.233  1.00  0.00     0.240 C 
HETATM    8  C7  UNL     1      25.244   5.690  49.809  1.00  0.00     0.154 C 
HETATM    9  N1  UNL     1      24.419   5.626  48.569  1.00  0.00    -0.380 N 
HETATM   10  C8  UNL     1      24.365   5.879  51.033  1.00  0.00     0.120 C 
HETATM   11  H7  UNL     1      24.370   6.192  47.661  1.00  0.00     0.160 HD
HETATM   12  N3  UNL     1      23.851   4.985  51.877  1.00  0.00    -0.245 NA
BRANCH  10  13
HETATM   13  N2  UNL     1      24.052   7.265  51.301  1.00  0.00    -0.381 N 
HETATM   14  C9  UNL     1      22.852   7.861  50.702  1.00  0.00     0.147 C 
HETATM   15  H8  UNL     1      24.631   7.915  51.913  1.00  0.00     0.160 HD
ENDBRANCH  10  13
BRANCH   7  16
HETATM   16  N4  UNL     1      24.103   2.621  51.799  1.00  0.00    -0.364 N 
HETATM   17  H13 UNL     1      25.146   2.508  51.818  1.00  0.00     0.162 HD
BRANCH  16  18
HETATM   18  C11 UNL     1      23.348   1.584  52.410  1.00  0.00     0.029 A 
HETATM   19  C12 UNL     1      23.939   0.524  53.074  1.00  0.00     0.031 A 
HETATM   20  C13 UNL     1      23.248  -0.502  53.680  1.00  0.00     0.026 A 
HETATM   21  C14 UNL     1      21.872  -0.499  53.636  1.00  0.00     0.034 A 
HETATM   22 CL1  UNL     1      20.913  -1.759  54.377  1.00  0.00    -0.084 Cl
HETATM   23  C15 UNL     1      21.221   0.530  52.989  1.00  0.00     0.026 A 
HETATM   24  C16 UNL     1      21.979   1.523  52.406  1.00  0.00     0.031 A 
ENDBRANCH  16  18
ENDBRANCH   7  16
ENDBRANCH   3   4
TORSDOF 4
ENDMDL
