MODEL 1
REMARK VINA RESULT:      -8.3      0.000      0.000
REMARK  6 active torsions:
REMARK  status: ('A' for Active; 'I' for Inactive)
REMARK    1  A    between atoms: C3_4  and  C4_5 
REMARK    2  A    between atoms: C4_5  and  C5_6 
REMARK    3  A    between atoms: C6_8  and  N3_9 
REMARK    4  A    between atoms: N3_9  and  C7_10 
REMARK    5  A    between atoms: C11_14  and  N4_15 
REMARK       I    between atoms: N4_15  and  C12_16 
REMARK    6  A    between atoms: C12_16  and  C13_18 
ROOT
HETATM    1  C1  UNL     1      29.412   1.237  54.532  1.00  0.00     0.039 C 
HETATM    2  C2  UNL     1      28.503   0.440  54.620  1.00  0.00     0.023 C 
HETATM    3  N1  UNL     1      27.438  -0.469  54.707  1.00  0.00    -0.215 NA
HETATM    4  C3  UNL     1      26.223  -0.043  54.688  1.00  0.00     0.106 C 
ENDROOT
BRANCH   4   5
HETATM    5  C4  UNL     1      25.018  -0.933  54.776  1.00  0.00     0.105 C 
BRANCH   5   6
HETATM    6  C5  UNL     1      23.938  -0.410  53.872  1.00  0.00     0.056 A 
HETATM    7  N2  UNL     1      24.038   0.503  52.939  1.00  0.00    -0.070 NA
HETATM    8  C6  UNL     1      22.741   0.673  52.340  1.00  0.00     0.722 A 
HETATM    9  N5  UNL     1      21.876  -0.112  52.890  1.00  0.00    -0.100 NA
HETATM   10  C21 UNL     1      22.522  -0.894  53.927  1.00  0.00     0.224 A 
BRANCH   8  11
HETATM   11  N3  UNL     1      22.440   1.577  51.288  1.00  0.00    -0.188 N 
HETATM   12  H5  UNL     1      21.977   1.223  50.423  1.00  0.00     0.184 HD
BRANCH  11  13
HETATM   13  C7  UNL     1      22.745   2.959  51.372  1.00  0.00     0.051 A 
HETATM   14  C8  UNL     1      21.959   3.922  51.962  1.00  0.00     0.030 A 
HETATM   15  C9  UNL     1      22.297   5.256  52.022  1.00  0.00     0.004 A 
HETATM   16  C10 UNL     1      23.483   5.693  51.472  1.00  0.00     0.029 A 
HETATM   17  C11 UNL     1      24.316   4.776  50.865  1.00  0.00     0.037 A 
HETATM   18  C20 UNL     1      23.918   3.455  50.840  1.00  0.00     0.059 A 
BRANCH  17  19
HETATM   19  N4  UNL     1      25.551   5.177  50.283  1.00  0.00    -0.323 N 
HETATM   20  C12 UNL     1      25.788   5.801  49.037  1.00  0.00     0.256 C 
HETATM   21  O1  UNL     1      24.852   6.092  48.242  1.00  0.00    -0.267 OA
HETATM   22  H9  UNL     1      26.311   4.933  50.944  1.00  0.00     0.169 HD
BRANCH  20  23
HETATM   23  C13 UNL     1      27.125   6.142  48.603  1.00  0.00     0.032 A 
HETATM   24  C14 UNL     1      28.075   5.148  48.499  1.00  0.00     0.017 A 
HETATM   25  C15 UNL     1      29.378   5.429  48.085  1.00  0.00     0.007 A 
HETATM   26  C16 UNL     1      29.765   6.693  47.768  1.00  0.00    -0.062 A 
HETATM   27  C17 UNL     1      31.144   7.045  47.322  1.00  0.00     0.048 C 
HETATM   28  C18 UNL     1      28.828   7.723  47.864  1.00  0.00     0.007 A 
HETATM   29  C19 UNL     1      27.546   7.415  48.275  1.00  0.00     0.017 A 
ENDBRANCH  20  23
ENDBRANCH  17  19
ENDBRANCH  11  13
ENDBRANCH   8  11
ENDBRANCH   5   6
ENDBRANCH   4   5
TORSDOF 6
ENDMDL
MODEL 2
REMARK VINA RESULT:      -8.2      1.780      2.540
REMARK  6 active torsions:
REMARK  status: ('A' for Active; 'I' for Inactive)
REMARK    1  A    between atoms: C3_4  and  C4_5 
REMARK    2  A    between atoms: C4_5  and  C5_6 
REMARK    3  A    between atoms: C6_8  and  N3_9 
REMARK    4  A    between atoms: N3_9  and  C7_10 
REMARK    5  A    between atoms: C11_14  and  N4_15 
REMARK       I    between atoms: N4_15  and  C12_16 
REMARK    6  A    between atoms: C12_16  and  C13_18 
ROOT
HETATM    1  C1  UNL     1      28.775   2.487  53.594  1.00  0.00     0.039 C 
HETATM    2  C2  UNL     1      28.052   1.518  53.499  1.00  0.00     0.023 C 
HETATM    3  N1  UNL     1      27.199   0.410  53.400  1.00  0.00    -0.215 NA
HETATM    4  C3  UNL     1      26.356   0.159  54.340  1.00  0.00     0.106 C 
ENDROOT
BRANCH   4   5
HETATM    5  C4  UNL     1      25.402  -1.001  54.328  1.00  0.00     0.105 C 
BRANCH   5   6
HETATM    6  C5  UNL     1      24.004  -0.500  54.106  1.00  0.00     0.056 A 
HETATM    7  N2  UNL     1      23.577   0.318  53.176  1.00  0.00    -0.070 NA
HETATM    8  C6  UNL     1      22.163   0.507  53.363  1.00  0.00     0.722 A 
HETATM    9  N5  UNL     1      21.740  -0.175  54.375  1.00  0.00    -0.100 NA
HETATM   10  C21 UNL     1      22.847  -0.896  54.971  1.00  0.00     0.224 A 
BRANCH   8  11
HETATM   11  N3  UNL     1      21.336   1.329  52.554  1.00  0.00    -0.188 N 
HETATM   12  H5  UNL     1      20.531   1.832  52.988  1.00  0.00     0.184 HD
BRANCH  11  13
HETATM   13  C7  UNL     1      21.566   1.495  51.165  1.00  0.00     0.051 A 
HETATM   14  C8  UNL     1      20.873   0.869  50.155  1.00  0.00     0.030 A 
HETATM   15  C9  UNL     1      21.130   1.064  48.816  1.00  0.00     0.004 A 
HETATM   16  C10 UNL     1      22.131   1.927  48.423  1.00  0.00     0.029 A 
HETATM   17  C11 UNL     1      22.863   2.585  49.389  1.00  0.00     0.037 A 
HETATM   18  C20 UNL     1      22.554   2.346  50.712  1.00  0.00     0.059 A 
BRANCH  17  19
HETATM   19  N4  UNL     1      23.905   3.486  49.034  1.00  0.00    -0.323 N 
HETATM   20  C12 UNL     1      25.140   3.720  49.683  1.00  0.00     0.256 C 
HETATM   21  O1  UNL     1      25.476   3.105  50.731  1.00  0.00    -0.267 OA
HETATM   22  H9  UNL     1      23.618   3.986  48.173  1.00  0.00     0.169 HD
BRANCH  20  23
HETATM   23  C13 UNL     1      26.090   4.685  49.174  1.00  0.00     0.032 A 
HETATM   24  C14 UNL     1      25.676   5.978  48.934  1.00  0.00     0.017 A 
HETATM   25  C15 UNL     1      26.558   6.944  48.443  1.00  0.00     0.007 A 
HETATM   26  C16 UNL     1      27.858   6.649  48.182  1.00  0.00    -0.062 A 
HETATM   27  C17 UNL     1      28.838   7.644  47.657  1.00  0.00     0.048 C 
HETATM   28  C18 UNL     1      28.310   5.349  48.413  1.00  0.00     0.007 A 
HETATM   29  C19 UNL     1      27.416   4.416  48.900  1.00  0.00     0.017 A 
ENDBRANCH  20  23
ENDBRANCH  17  19
ENDBRANCH  11  13
ENDBRANCH   8  11
ENDBRANCH   5   6
ENDBRANCH   4   5
TORSDOF 6
ENDMDL
MODEL 3
REMARK VINA RESULT:      -7.7      2.363      5.134
REMARK  6 active torsions:
REMARK  status: ('A' for Active; 'I' for Inactive)
REMARK    1  A    between atoms: C3_4  and  C4_5 
REMARK    2  A    between atoms: C4_5  and  C5_6 
REMARK    3  A    between atoms: C6_8  and  N3_9 
REMARK    4  A    between atoms: N3_9  and  C7_10 
REMARK    5  A    between atoms: C11_14  and  N4_15 
REMARK       I    between atoms: N4_15  and  C12_16 
REMARK    6  A    between atoms: C12_16  and  C13_18 
ROOT
HETATM    1  C1  UNL     1      22.048   4.036  47.589  1.00  0.00     0.039 C 
HETATM    2  C2  UNL     1      21.474   3.456  48.486  1.00  0.00     0.023 C 
HETATM    3  N1  UNL     1      20.823   2.764  49.517  1.00  0.00    -0.215 NA
HETATM    4  C3  UNL     1      20.585   1.505  49.400  1.00  0.00     0.106 C 
ENDROOT
BRANCH   4   5
HETATM    5  C4  UNL     1      19.895   0.678  50.446  1.00  0.00     0.105 C 
BRANCH   5   6
HETATM    6  C5  UNL     1      20.783   0.547  51.650  1.00  0.00     0.056 A 
HETATM    7  N2  UNL     1      21.935  -0.069  51.742  1.00  0.00    -0.070 NA
HETATM    8  C6  UNL     1      22.411   0.074  53.091  1.00  0.00     0.722 A 
HETATM    9  N5  UNL     1      21.576   0.756  53.802  1.00  0.00    -0.100 NA
HETATM   10  C21 UNL     1      20.443   1.141  52.983  1.00  0.00     0.224 A 
BRANCH   8  11
HETATM   11  N3  UNL     1      23.630  -0.458  53.587  1.00  0.00    -0.188 N 
HETATM   12  H5  UNL     1      23.613  -1.329  54.161  1.00  0.00     0.184 HD
BRANCH  11  13
HETATM   13  C7  UNL     1      24.882   0.155  53.326  1.00  0.00     0.051 A 
HETATM   14  C8  UNL     1      26.102  -0.281  53.790  1.00  0.00     0.030 A 
HETATM   15  C9  UNL     1      27.296   0.346  53.508  1.00  0.00     0.004 A 
HETATM   16  C10 UNL     1      27.312   1.477  52.720  1.00  0.00     0.029 A 
HETATM   17  C11 UNL     1      26.121   1.964  52.226  1.00  0.00     0.037 A 
HETATM   18  C20 UNL     1      24.961   1.289  52.545  1.00  0.00     0.059 A 
BRANCH  17  19
HETATM   19  N4  UNL     1      26.086   3.129  51.409  1.00  0.00    -0.323 N 
HETATM   20  C12 UNL     1      26.460   3.278  50.053  1.00  0.00     0.256 C 
HETATM   21  O1  UNL     1      26.901   2.315  49.368  1.00  0.00    -0.267 OA
HETATM   22  H9  UNL     1      25.724   3.912  51.982  1.00  0.00     0.169 HD
BRANCH  20  23
HETATM   23  C13 UNL     1      26.357   4.551  49.375  1.00  0.00     0.032 A 
HETATM   24  C14 UNL     1      27.491   5.128  48.844  1.00  0.00     0.017 A 
HETATM   25  C15 UNL     1      27.440   6.356  48.182  1.00  0.00     0.007 A 
HETATM   26  C16 UNL     1      26.272   7.034  48.033  1.00  0.00    -0.062 A 
HETATM   27  C17 UNL     1      26.164   8.347  47.335  1.00  0.00     0.048 C 
HETATM   28  C18 UNL     1      25.104   6.479  48.561  1.00  0.00     0.007 A 
HETATM   29  C19 UNL     1      25.185   5.263  49.209  1.00  0.00     0.017 A 
ENDBRANCH  20  23
ENDBRANCH  17  19
ENDBRANCH  11  13
ENDBRANCH   8  11
ENDBRANCH   5   6
ENDBRANCH   4   5
TORSDOF 6
ENDMDL
MODEL 4
REMARK VINA RESULT:      -7.7      3.042      9.382
REMARK  6 active torsions:
REMARK  status: ('A' for Active; 'I' for Inactive)
REMARK    1  A    between atoms: C3_4  and  C4_5 
REMARK    2  A    between atoms: C4_5  and  C5_6 
REMARK    3  A    between atoms: C6_8  and  N3_9 
REMARK    4  A    between atoms: N3_9  and  C7_10 
REMARK    5  A    between atoms: C11_14  and  N4_15 
REMARK       I    between atoms: N4_15  and  C12_16 
REMARK    6  A    between atoms: C12_16  and  C13_18 
ROOT
HETATM    1  C1  UNL     1      28.729  12.382  48.606  1.00  0.00     0.039 C 
HETATM    2  C2  UNL     1      29.512  11.489  48.850  1.00  0.00     0.023 C 
HETATM    3  N1  UNL     1      30.433  10.466  49.117  1.00  0.00    -0.215 NA
HETATM    4  C3  UNL     1      31.201  10.029  48.180  1.00  0.00     0.106 C 
ENDROOT
BRANCH   4   5
HETATM    5  C4  UNL     1      32.217   8.940  48.365  1.00  0.00     0.105 C 
BRANCH   5   6
HETATM    6  C5  UNL     1      31.517   7.621  48.531  1.00  0.00     0.056 A 
HETATM    7  N2  UNL     1      30.407   7.219  47.964  1.00  0.00    -0.070 NA
HETATM    8  C6  UNL     1      30.127   5.886  48.427  1.00  0.00     0.722 A 
HETATM    9  N5  UNL     1      31.037   5.487  49.251  1.00  0.00    -0.100 NA
HETATM   10  C21 UNL     1      32.029   6.531  49.421  1.00  0.00     0.224 A 
BRANCH   8  11
HETATM   11  N3  UNL     1      29.006   5.106  48.040  1.00  0.00    -0.188 N 
HETATM   12  H5  UNL     1      29.144   4.287  47.408  1.00  0.00     0.184 HD
BRANCH  11  13
HETATM   13  C7  UNL     1      27.693   5.400  48.486  1.00  0.00     0.051 A 
HETATM   14  C8  UNL     1      26.978   6.537  48.186  1.00  0.00     0.030 A 
HETATM   15  C9  UNL     1      25.701   6.780  48.641  1.00  0.00     0.004 A 
HETATM   16  C10 UNL     1      25.067   5.857  49.445  1.00  0.00     0.029 A 
HETATM   17  C11 UNL     1      25.732   4.696  49.782  1.00  0.00     0.037 A 
HETATM   18  C20 UNL     1      27.008   4.514  49.292  1.00  0.00     0.059 A 
BRANCH  17  19
HETATM   19  N4  UNL     1      25.120   3.713  50.608  1.00  0.00    -0.323 N 
HETATM   20  C12 UNL     1      25.660   2.504  51.106  1.00  0.00     0.256 C 
HETATM   21  O1  UNL     1      26.840   2.140  50.849  1.00  0.00    -0.267 OA
HETATM   22  H9  UNL     1      24.152   4.022  50.812  1.00  0.00     0.169 HD
BRANCH  20  23
HETATM   23  C13 UNL     1      24.884   1.616  51.942  1.00  0.00     0.032 A 
HETATM   24  C14 UNL     1      25.507   0.550  52.556  1.00  0.00     0.017 A 
HETATM   25  C15 UNL     1      24.798  -0.334  53.372  1.00  0.00     0.007 A 
HETATM   26  C16 UNL     1      23.466  -0.181  53.595  1.00  0.00    -0.062 A 
HETATM   27  C17 UNL     1      22.665  -1.097  54.457  1.00  0.00     0.048 C 
HETATM   28  C18 UNL     1      22.804   0.887  52.987  1.00  0.00     0.007 A 
HETATM   29  C19 UNL     1      23.531   1.746  52.187  1.00  0.00     0.017 A 
ENDBRANCH  20  23
ENDBRANCH  17  19
ENDBRANCH  11  13
ENDBRANCH   8  11
ENDBRANCH   5   6
ENDBRANCH   4   5
TORSDOF 6
ENDMDL
MODEL 5
REMARK VINA RESULT:      -7.6      4.015      5.524
REMARK  6 active torsions:
REMARK  status: ('A' for Active; 'I' for Inactive)
REMARK    1  A    between atoms: C3_4  and  C4_5 
REMARK    2  A    between atoms: C4_5  and  C5_6 
REMARK    3  A    between atoms: C6_8  and  N3_9 
REMARK    4  A    between atoms: N3_9  and  C7_10 
REMARK    5  A    between atoms: C11_14  and  N4_15 
REMARK       I    between atoms: N4_15  and  C12_16 
REMARK    6  A    between atoms: C12_16  and  C13_18 
ROOT
HETATM    1  C1  UNL     1      23.915  -1.352  55.505  1.00  0.00     0.039 C 
HETATM    2  C2  UNL     1      22.761  -1.082  55.248  1.00  0.00     0.023 C 
HETATM    3  N1  UNL     1      21.422  -0.793  54.950  1.00  0.00    -0.215 NA
HETATM    4  C3  UNL     1      20.747  -1.578  54.185  1.00  0.00     0.106 C 
ENDROOT
BRANCH   4   5
HETATM    5  C4  UNL     1      19.311  -1.356  53.808  1.00  0.00     0.105 C 
BRANCH   5   6
HETATM    6  C5  UNL     1      19.229  -0.311  52.732  1.00  0.00     0.056 A 
HETATM    7  N2  UNL     1      20.139   0.565  52.385  1.00  0.00    -0.070 NA
HETATM    8  C6  UNL     1      19.609   1.355  51.306  1.00  0.00     0.722 A 
HETATM    9  N5  UNL     1      18.414   0.973  51.003  1.00  0.00    -0.100 NA
HETATM   10  C21 UNL     1      18.023  -0.126  51.864  1.00  0.00     0.224 A 
BRANCH   8  11
HETATM   11  N3  UNL     1      20.297   2.413  50.656  1.00  0.00    -0.188 N 
HETATM   12  H5  UNL     1      20.029   2.678  49.683  1.00  0.00     0.184 HD
BRANCH  11  13
HETATM   13  C7  UNL     1      21.342   3.133  51.287  1.00  0.00     0.051 A 
HETATM   14  C8  UNL     1      21.331   4.478  51.578  1.00  0.00     0.030 A 
HETATM   15  C9  UNL     1      22.371   5.136  52.196  1.00  0.00     0.004 A 
HETATM   16  C10 UNL     1      23.506   4.444  52.561  1.00  0.00     0.029 A 
HETATM   17  C11 UNL     1      23.579   3.093  52.296  1.00  0.00     0.037 A 
HETATM   18  C20 UNL     1      22.502   2.494  51.675  1.00  0.00     0.059 A 
BRANCH  17  19
HETATM   19  N4  UNL     1      24.730   2.336  52.654  1.00  0.00    -0.323 N 
HETATM   20  C12 UNL     1      25.861   2.010  51.871  1.00  0.00     0.256 C 
HETATM   21  O1  UNL     1      25.981   2.388  50.674  1.00  0.00    -0.267 OA
HETATM   22  H9  UNL     1      24.620   2.031  53.638  1.00  0.00     0.169 HD
BRANCH  20  23
HETATM   23  C13 UNL     1      26.949   1.222  52.405  1.00  0.00     0.032 A 
HETATM   24  C14 UNL     1      26.868  -0.154  52.368  1.00  0.00     0.017 A 
HETATM   25  C15 UNL     1      27.894  -0.956  52.873  1.00  0.00     0.007 A 
HETATM   26  C16 UNL     1      29.013  -0.415  53.421  1.00  0.00    -0.062 A 
HETATM   27  C17 UNL     1      30.136  -1.228  53.972  1.00  0.00     0.048 C 
HETATM   28  C18 UNL     1      29.127   0.975  53.475  1.00  0.00     0.007 A 
HETATM   29  C19 UNL     1      28.098   1.743  52.968  1.00  0.00     0.017 A 
ENDBRANCH  20  23
ENDBRANCH  17  19
ENDBRANCH  11  13
ENDBRANCH   8  11
ENDBRANCH   5   6
ENDBRANCH   4   5
TORSDOF 6
ENDMDL
MODEL 6
REMARK VINA RESULT:      -7.6      2.985      6.077
REMARK  6 active torsions:
REMARK  status: ('A' for Active; 'I' for Inactive)
REMARK    1  A    between atoms: C3_4  and  C4_5 
REMARK    2  A    between atoms: C4_5  and  C5_6 
REMARK    3  A    between atoms: C6_8  and  N3_9 
REMARK    4  A    between atoms: N3_9  and  C7_10 
REMARK    5  A    between atoms: C11_14  and  N4_15 
REMARK       I    between atoms: N4_15  and  C12_16 
REMARK    6  A    between atoms: C12_16  and  C13_18 
ROOT
HETATM    1  C1  UNL     1      25.365   4.331  49.352  1.00  0.00     0.039 C 
HETATM    2  C2  UNL     1      26.172   3.665  49.965  1.00  0.00     0.023 C 
HETATM    3  N1  UNL     1      27.087   2.883  50.684  1.00  0.00    -0.215 NA
HETATM    4  C3  UNL     1      26.772   2.423  51.845  1.00  0.00     0.106 C 
ENDROOT
BRANCH   4   5
HETATM    5  C4  UNL     1      27.680   1.578  52.690  1.00  0.00     0.105 C 
BRANCH   5   6
HETATM    6  C5  UNL     1      26.858   0.699  53.589  1.00  0.00     0.056 A 
HETATM    7  N2  UNL     1      25.656   0.223  53.375  1.00  0.00    -0.070 NA
HETATM    8  C6  UNL     1      25.279  -0.566  54.517  1.00  0.00     0.722 A 
HETATM    9  N5  UNL     1      26.221  -0.572  55.401  1.00  0.00    -0.100 NA
HETATM   10  C21 UNL     1      27.335   0.225  54.927  1.00  0.00     0.224 A 
BRANCH   8  11
HETATM   11  N3  UNL     1      24.044  -1.248  54.665  1.00  0.00    -0.188 N 
HETATM   12  H5  UNL     1      24.025  -2.180  55.133  1.00  0.00     0.184 HD
BRANCH  11  13
HETATM   13  C7  UNL     1      22.821  -0.703  54.198  1.00  0.00     0.051 A 
HETATM   14  C8  UNL     1      21.636  -0.673  54.896  1.00  0.00     0.030 A 
HETATM   15  C9  UNL     1      20.470  -0.130  54.402  1.00  0.00     0.004 A 
HETATM   16  C10 UNL     1      20.447   0.426  53.141  1.00  0.00     0.029 A 
HETATM   17  C11 UNL     1      21.604   0.426  52.390  1.00  0.00     0.037 A 
HETATM   18  C20 UNL     1      22.737  -0.133  52.944  1.00  0.00     0.059 A 
BRANCH  17  19
HETATM   19  N4  UNL     1      21.632   0.988  51.083  1.00  0.00    -0.323 N 
HETATM   20  C12 UNL     1      21.572   2.347  50.696  1.00  0.00     0.256 C 
HETATM   21  O1  UNL     1      21.481   3.282  51.537  1.00  0.00    -0.267 OA
HETATM   22  H9  UNL     1      21.706   0.212  50.402  1.00  0.00     0.169 HD
BRANCH  20  23
HETATM   23  C13 UNL     1      21.613   2.739  49.304  1.00  0.00     0.032 A 
HETATM   24  C14 UNL     1      20.773   3.738  48.859  1.00  0.00     0.017 A 
HETATM   25  C15 UNL     1      20.777   4.149  47.525  1.00  0.00     0.007 A 
HETATM   26  C16 UNL     1      21.608   3.583  46.610  1.00  0.00    -0.062 A 
HETATM   27  C17 UNL     1      21.650   3.987  45.175  1.00  0.00     0.048 C 
HETATM   28  C18 UNL     1      22.471   2.569  47.028  1.00  0.00     0.007 A 
HETATM   29  C19 UNL     1      22.445   2.183  48.353  1.00  0.00     0.017 A 
ENDBRANCH  20  23
ENDBRANCH  17  19
ENDBRANCH  11  13
ENDBRANCH   8  11
ENDBRANCH   5   6
ENDBRANCH   4   5
TORSDOF 6
ENDMDL
MODEL 7
REMARK VINA RESULT:      -7.4      3.118      6.118
REMARK  6 active torsions:
REMARK  status: ('A' for Active; 'I' for Inactive)
REMARK    1  A    between atoms: C3_4  and  C4_5 
REMARK    2  A    between atoms: C4_5  and  C5_6 
REMARK    3  A    between atoms: C6_8  and  N3_9 
REMARK    4  A    between atoms: N3_9  and  C7_10 
REMARK    5  A    between atoms: C11_14  and  N4_15 
REMARK       I    between atoms: N4_15  and  C12_16 
REMARK    6  A    between atoms: C12_16  and  C13_18 
ROOT
HETATM    1  C1  UNL     1      25.128   4.215  49.289  1.00  0.00     0.039 C 
HETATM    2  C2  UNL     1      25.961   3.665  49.978  1.00  0.00     0.023 C 
HETATM    3  N1  UNL     1      26.908   3.012  50.778  1.00  0.00    -0.215 NA
HETATM    4  C3  UNL     1      26.526   2.290  51.773  1.00  0.00     0.106 C 
ENDROOT
BRANCH   4   5
HETATM    5  C4  UNL     1      27.461   1.552  52.687  1.00  0.00     0.105 C 
BRANCH   5   6
HETATM    6  C5  UNL     1      26.670   0.682  53.621  1.00  0.00     0.056 A 
HETATM    7  N2  UNL     1      25.415   0.320  53.521  1.00  0.00    -0.070 NA
HETATM    8  C6  UNL     1      25.100  -0.513  54.650  1.00  0.00     0.722 A 
HETATM    9  N5  UNL     1      26.129  -0.656  55.416  1.00  0.00    -0.100 NA
HETATM   10  C21 UNL     1      27.250   0.080  54.864  1.00  0.00     0.224 A 
BRANCH   8  11
HETATM   11  N3  UNL     1      23.833  -1.103  54.900  1.00  0.00    -0.188 N 
HETATM   12  H5  UNL     1      23.757  -1.882  55.589  1.00  0.00     0.184 HD
BRANCH  11  13
HETATM   13  C7  UNL     1      22.655  -0.665  54.244  1.00  0.00     0.051 A 
HETATM   14  C8  UNL     1      21.455  -1.338  54.214  1.00  0.00     0.030 A 
HETATM   15  C9  UNL     1      20.333  -0.872  53.564  1.00  0.00     0.004 A 
HETATM   16  C10 UNL     1      20.373   0.332  52.894  1.00  0.00     0.029 A 
HETATM   17  C11 UNL     1      21.548   1.054  52.887  1.00  0.00     0.037 A 
HETATM   18  C20 UNL     1      22.634   0.532  53.558  1.00  0.00     0.059 A 
BRANCH  17  19
HETATM   19  N4  UNL     1      21.639   2.302  52.210  1.00  0.00    -0.323 N 
HETATM   20  C12 UNL     1      20.660   3.314  52.070  1.00  0.00     0.256 C 
HETATM   21  O1  UNL     1      19.508   3.208  52.572  1.00  0.00    -0.267 OA
HETATM   22  H9  UNL     1      22.588   2.377  51.802  1.00  0.00     0.169 HD
BRANCH  20  23
HETATM   23  C13 UNL     1      20.931   4.532  51.339  1.00  0.00     0.032 A 
HETATM   24  C14 UNL     1      22.041   5.283  51.665  1.00  0.00     0.017 A 
HETATM   25  C15 UNL     1      22.342   6.466  50.987  1.00  0.00     0.007 A 
HETATM   26  C16 UNL     1      21.555   6.926  49.979  1.00  0.00    -0.062 A 
HETATM   27  C17 UNL     1      21.834   8.183  49.225  1.00  0.00     0.048 C 
HETATM   28  C18 UNL     1      20.423   6.190  49.624  1.00  0.00     0.007 A 
HETATM   29  C19 UNL     1      20.151   5.024  50.311  1.00  0.00     0.017 A 
ENDBRANCH  20  23
ENDBRANCH  17  19
ENDBRANCH  11  13
ENDBRANCH   8  11
ENDBRANCH   5   6
ENDBRANCH   4   5
TORSDOF 6
ENDMDL
MODEL 8
REMARK VINA RESULT:      -7.4      4.601      8.095
REMARK  6 active torsions:
REMARK  status: ('A' for Active; 'I' for Inactive)
REMARK    1  A    between atoms: C3_4  and  C4_5 
REMARK    2  A    between atoms: C4_5  and  C5_6 
REMARK    3  A    between atoms: C6_8  and  N3_9 
REMARK    4  A    between atoms: N3_9  and  C7_10 
REMARK    5  A    between atoms: C11_14  and  N4_15 
REMARK       I    between atoms: N4_15  and  C12_16 
REMARK    6  A    between atoms: C12_16  and  C13_18 
ROOT
HETATM    1  C1  UNL     1      18.498   8.292  47.831  1.00  0.00     0.039 C 
HETATM    2  C2  UNL     1      19.153   7.469  48.435  1.00  0.00     0.023 C 
HETATM    3  N1  UNL     1      19.911   6.533  49.153  1.00  0.00    -0.215 NA
HETATM    4  C3  UNL     1      20.770   6.930  50.025  1.00  0.00     0.106 C 
ENDROOT
BRANCH   4   5
HETATM    5  C4  UNL     1      21.627   6.007  50.843  1.00  0.00     0.105 C 
BRANCH   5   6
HETATM    6  C5  UNL     1      21.330   4.583  50.471  1.00  0.00     0.056 A 
HETATM    7  N2  UNL     1      20.578   3.721  51.108  1.00  0.00    -0.070 NA
HETATM    8  C6  UNL     1      20.594   2.485  50.373  1.00  0.00     0.722 A 
HETATM    9  N5  UNL     1      21.334   2.588  49.320  1.00  0.00    -0.100 NA
HETATM   10  C21 UNL     1      21.891   3.924  49.248  1.00  0.00     0.224 A 
BRANCH   8  11
HETATM   11  N3  UNL     1      19.899   1.305  50.745  1.00  0.00    -0.188 N 
HETATM   12  H5  UNL     1      19.046   1.023  50.214  1.00  0.00     0.184 HD
BRANCH  11  13
HETATM   13  C7  UNL     1      20.326   0.485  51.820  1.00  0.00     0.051 A 
HETATM   14  C8  UNL     1      19.503  -0.167  52.709  1.00  0.00     0.030 A 
HETATM   15  C9  UNL     1      19.963  -0.957  53.740  1.00  0.00     0.004 A 
HETATM   16  C10 UNL     1      21.318  -1.130  53.925  1.00  0.00     0.029 A 
HETATM   17  C11 UNL     1      22.195  -0.501  53.066  1.00  0.00     0.037 A 
HETATM   18  C20 UNL     1      21.669   0.275  52.055  1.00  0.00     0.059 A 
BRANCH  17  19
HETATM   19  N4  UNL     1      23.603  -0.649  53.216  1.00  0.00    -0.323 N 
HETATM   20  C12 UNL     1      24.591   0.348  53.389  1.00  0.00     0.256 C 
HETATM   21  O1  UNL     1      24.306   1.575  53.432  1.00  0.00    -0.267 OA
HETATM   22  H9  UNL     1      23.825  -1.661  53.179  1.00  0.00     0.169 HD
BRANCH  20  23
HETATM   23  C13 UNL     1      25.990   0.010  53.527  1.00  0.00     0.032 A 
HETATM   24  C14 UNL     1      26.526  -0.985  52.737  1.00  0.00     0.017 A 
HETATM   25  C15 UNL     1      27.871  -1.346  52.835  1.00  0.00     0.007 A 
HETATM   26  C16 UNL     1      28.708  -0.731  53.712  1.00  0.00    -0.062 A 
HETATM   27  C17 UNL     1      30.151  -1.079  53.855  1.00  0.00     0.048 C 
HETATM   28  C18 UNL     1      28.198   0.281  54.527  1.00  0.00     0.007 A 
HETATM   29  C19 UNL     1      26.864   0.616  54.407  1.00  0.00     0.017 A 
ENDBRANCH  20  23
ENDBRANCH  17  19
ENDBRANCH  11  13
ENDBRANCH   8  11
ENDBRANCH   5   6
ENDBRANCH   4   5
TORSDOF 6
ENDMDL
MODEL 9
REMARK VINA RESULT:      -7.3      2.969      4.601
REMARK  6 active torsions:
REMARK  status: ('A' for Active; 'I' for Inactive)
REMARK    1  A    between atoms: C3_4  and  C4_5 
REMARK    2  A    between atoms: C4_5  and  C5_6 
REMARK    3  A    between atoms: C6_8  and  N3_9 
REMARK    4  A    between atoms: N3_9  and  C7_10 
REMARK    5  A    between atoms: C11_14  and  N4_15 
REMARK       I    between atoms: N4_15  and  C12_16 
REMARK    6  A    between atoms: C12_16  and  C13_18 
ROOT
HETATM    1  C1  UNL     1      26.403   3.236  50.025  1.00  0.00     0.039 C 
HETATM    2  C2  UNL     1      26.607   2.535  50.993  1.00  0.00     0.023 C 
HETATM    3  N1  UNL     1      26.839   1.704  52.099  1.00  0.00    -0.215 NA
HETATM    4  C3  UNL     1      26.210   0.586  52.210  1.00  0.00     0.106 C 
ENDROOT
BRANCH   4   5
HETATM    5  C4  UNL     1      26.388  -0.370  53.353  1.00  0.00     0.105 C 
BRANCH   5   6
HETATM    6  C5  UNL     1      25.052  -0.678  53.965  1.00  0.00     0.056 A 
HETATM    7  N2  UNL     1      23.885  -0.731  53.373  1.00  0.00    -0.070 NA
HETATM    8  C6  UNL     1      22.896  -1.062  54.363  1.00  0.00     0.722 A 
HETATM    9  N5  UNL     1      23.442  -1.207  55.525  1.00  0.00    -0.100 NA
HETATM   10  C21 UNL     1      24.870  -0.983  55.420  1.00  0.00     0.224 A 
BRANCH   8  11
HETATM   11  N3  UNL     1      21.507  -1.211  54.112  1.00  0.00    -0.188 N 
HETATM   12  H5  UNL     1      20.991  -2.011  54.538  1.00  0.00     0.184 HD
BRANCH  11  13
HETATM   13  C7  UNL     1      20.787  -0.301  53.298  1.00  0.00     0.051 A 
HETATM   14  C8  UNL     1      19.497  -0.472  52.848  1.00  0.00     0.030 A 
HETATM   15  C9  UNL     1      18.835   0.442  52.059  1.00  0.00     0.004 A 
HETATM   16  C10 UNL     1      19.463   1.608  51.676  1.00  0.00     0.029 A 
HETATM   17  C11 UNL     1      20.757   1.837  52.094  1.00  0.00     0.037 A 
HETATM   18  C20 UNL     1      21.363   0.882  52.883  1.00  0.00     0.059 A 
BRANCH  17  19
HETATM   19  N4  UNL     1      21.448   3.025  51.725  1.00  0.00    -0.323 N 
HETATM   20  C12 UNL     1      22.498   3.193  50.792  1.00  0.00     0.256 C 
HETATM   21  O1  UNL     1      22.971   2.228  50.133  1.00  0.00    -0.267 OA
HETATM   22  H9  UNL     1      21.051   3.810  52.273  1.00  0.00     0.169 HD
BRANCH  20  23
HETATM   23  C13 UNL     1      23.087   4.490  50.542  1.00  0.00     0.032 A 
HETATM   24  C14 UNL     1      23.573   5.227  51.601  1.00  0.00     0.017 A 
HETATM   25  C15 UNL     1      24.150   6.483  51.408  1.00  0.00     0.007 A 
HETATM   26  C16 UNL     1      24.257   7.032  50.169  1.00  0.00    -0.062 A 
HETATM   27  C17 UNL     1      24.864   8.370  49.910  1.00  0.00     0.048 C 
HETATM   28  C18 UNL     1      23.774   6.313  49.075  1.00  0.00     0.007 A 
HETATM   29  C19 UNL     1      23.209   5.072  49.296  1.00  0.00     0.017 A 
ENDBRANCH  20  23
ENDBRANCH  17  19
ENDBRANCH  11  13
ENDBRANCH   8  11
ENDBRANCH   5   6
ENDBRANCH   4   5
TORSDOF 6
ENDMDL
