MODEL 1
REMARK VINA RESULT:      -7.7      0.000      0.000
REMARK  7 active torsions:
REMARK  status: ('A' for Active; 'I' for Inactive)
REMARK    1  A    between atoms: C2_2  and  C3_3 
REMARK    2  A    between atoms: C3_3  and  O1_4 
REMARK    3  A    between atoms: C5_6  and  C6_7 
REMARK    4  A    between atoms: C5_6  and  O4_26 
REMARK    5  A    between atoms: C9_11  and  C10_12 
REMARK       I    between atoms: C10_12  and  N2_14 
REMARK    6  A    between atoms: N2_14  and  C11_15 
REMARK    7  A    between atoms: C11_15  and  C13_17 
ROOT
HETATM    1  C6  UNL     1      25.382   2.486  51.374  1.00  0.00     0.078 C 
HETATM    2  C7  UNL     1      25.427   3.261  50.318  1.00  0.00     0.095 C 
HETATM    3  C8  UNL     1      26.618   3.215  49.496  1.00  0.00     0.154 C 
HETATM    4  N1  UNL     1      27.341   4.081  48.869  1.00  0.00    -0.253 NA
HETATM    5  C9  UNL     1      27.314   5.512  48.679  1.00  0.00     0.124 C 
HETATM    6  C16 UNL     1      26.291   6.318  48.773  1.00  0.00     0.039 C 
HETATM    7  C17 UNL     1      24.866   6.255  49.066  1.00  0.00     0.027 C 
HETATM    8  C18 UNL     1      24.055   5.351  49.605  1.00  0.00     0.142 C 
HETATM    9  O3  UNL     1      24.278   4.054  50.121  1.00  0.00    -0.321 OA
ENDROOT
BRANCH   5  10
HETATM   10  C10 UNL     1      28.636   5.983  48.353  1.00  0.00     0.270 C 
HETATM   11  O2  UNL     1      28.840   6.764  47.358  1.00  0.00    -0.266 OA
HETATM   12  N2  UNL     1      29.866   5.724  48.981  1.00  0.00    -0.345 N 
HETATM   13  H9  UNL     1      29.856   5.098  49.813  1.00  0.00     0.163 HD
BRANCH  12  14
HETATM   14  C11 UNL     1      31.148   6.225  48.606  1.00  0.00     0.140 C 
HETATM   15  C12 UNL     1      31.784   7.112  49.622  1.00  0.00     0.039 C 
BRANCH  14  16
HETATM   16  C13 UNL     1      32.111   5.137  48.259  1.00  0.00     0.097 A 
HETATM   17  N3  UNL     1      32.163   3.995  47.876  1.00  0.00    -0.256 NA
HETATM   18  C14 UNL     1      33.313   3.374  47.686  1.00  0.00     0.124 A 
HETATM   19  C15 UNL     1      34.528   4.006  47.918  1.00  0.00     0.071 A 
HETATM   20  S1  UNL     1      33.890   5.649  48.458  1.00  0.00    -0.083 SA
ENDBRANCH  14  16
ENDBRANCH  12  14
ENDBRANCH   5  10
BRANCH   1  21
HETATM   21  C5  UNL     1      25.986   1.496  52.238  1.00  0.00     0.103 C 
HETATM   22  C3  UNL     1      27.146   1.294  52.837  1.00  0.00     0.097 C 
BRANCH  22  23
HETATM   23  C2  UNL     1      27.179   0.086  53.603  1.00  0.00     0.013 C 
HETATM   24  C1  UNL     1      27.907  -0.849  53.021  1.00  0.00     0.034 C 
ENDBRANCH  22  23
BRANCH  22  25
HETATM   25  O1  UNL     1      28.157   2.221  52.670  1.00  0.00    -0.353 OA
HETATM   26  C4  UNL     1      29.075   2.546  53.706  1.00  0.00     0.210 C 
ENDBRANCH  22  25
BRANCH  21  27
HETATM   27  O4  UNL     1      24.873   0.686  52.289  1.00  0.00    -0.353 OA
HETATM   28  C19 UNL     1      23.607   1.034  52.745  1.00  0.00     0.210 C 
ENDBRANCH  21  27
ENDBRANCH   1  21
TORSDOF 7
ENDMDL
MODEL 2
REMARK VINA RESULT:      -7.4      1.819      3.055
REMARK  7 active torsions:
REMARK  status: ('A' for Active; 'I' for Inactive)
REMARK    1  A    between atoms: C2_2  and  C3_3 
REMARK    2  A    between atoms: C3_3  and  O1_4 
REMARK    3  A    between atoms: C5_6  and  C6_7 
REMARK    4  A    between atoms: C5_6  and  O4_26 
REMARK    5  A    between atoms: C9_11  and  C10_12 
REMARK       I    between atoms: C10_12  and  N2_14 
REMARK    6  A    between atoms: N2_14  and  C11_15 
REMARK    7  A    between atoms: C11_15  and  C13_17 
ROOT
HETATM    1  C6  UNL     1      26.007   1.629  53.424  1.00  0.00     0.078 C 
HETATM    2  C7  UNL     1      25.315   2.229  52.487  1.00  0.00     0.095 C 
HETATM    3  C8  UNL     1      25.939   2.398  51.190  1.00  0.00     0.154 C 
HETATM    4  N1  UNL     1      25.982   3.332  50.302  1.00  0.00    -0.253 NA
HETATM    5  C9  UNL     1      25.430   4.659  50.164  1.00  0.00     0.124 C 
HETATM    6  C16 UNL     1      24.374   5.158  50.750  1.00  0.00     0.039 C 
HETATM    7  C17 UNL     1      23.345   4.746  51.694  1.00  0.00     0.027 C 
HETATM    8  C18 UNL     1      23.201   3.739  52.549  1.00  0.00     0.142 C 
HETATM    9  O3  UNL     1      24.025   2.640  52.878  1.00  0.00    -0.321 OA
ENDROOT
BRANCH   5  10
HETATM   10  C10 UNL     1      26.231   5.426  49.244  1.00  0.00     0.270 C 
HETATM   11  O2  UNL     1      25.698   6.087  48.284  1.00  0.00    -0.266 OA
HETATM   12  N2  UNL     1      27.624   5.603  49.193  1.00  0.00    -0.345 N 
HETATM   13  H9  UNL     1      28.194   5.119  49.918  1.00  0.00     0.163 HD
BRANCH  12  14
HETATM   14  C11 UNL     1      28.361   6.380  48.250  1.00  0.00     0.140 C 
HETATM   15  C12 UNL     1      28.389   7.842  48.545  1.00  0.00     0.039 C 
BRANCH  14  16
HETATM   16  C13 UNL     1      29.766   5.903  48.087  1.00  0.00     0.097 A 
HETATM   17  N3  UNL     1      30.421   4.908  47.902  1.00  0.00    -0.256 NA
HETATM   18  C14 UNL     1      31.739   4.945  47.814  1.00  0.00     0.124 A 
HETATM   19  C15 UNL     1      32.442   6.136  47.932  1.00  0.00     0.071 A 
HETATM   20  S1  UNL     1      31.019   7.278  48.190  1.00  0.00    -0.083 SA
ENDBRANCH  14  16
ENDBRANCH  12  14
ENDBRANCH   5  10
BRANCH   1  21
HETATM   21  C5  UNL     1      27.214   0.974  53.878  1.00  0.00     0.103 C 
HETATM   22  C3  UNL     1      27.666  -0.259  54.023  1.00  0.00     0.097 C 
BRANCH  22  23
HETATM   23  C2  UNL     1      28.998  -0.311  54.541  1.00  0.00     0.013 C 
HETATM   24  C1  UNL     1      29.822  -0.943  53.725  1.00  0.00     0.034 C 
ENDBRANCH  22  23
BRANCH  22  25
HETATM   25  O1  UNL     1      26.847  -1.318  53.678  1.00  0.00    -0.353 OA
HETATM   26  C4  UNL     1      26.670  -1.741  52.333  1.00  0.00     0.210 C 
ENDBRANCH  22  25
BRANCH  21  27
HETATM   27  O4  UNL     1      27.883   2.143  54.168  1.00  0.00    -0.353 OA
HETATM   28  C19 UNL     1      28.939   2.699  53.455  1.00  0.00     0.210 C 
ENDBRANCH  21  27
ENDBRANCH   1  21
TORSDOF 7
ENDMDL
MODEL 3
REMARK VINA RESULT:      -7.4      2.894      5.762
REMARK  7 active torsions:
REMARK  status: ('A' for Active; 'I' for Inactive)
REMARK    1  A    between atoms: C2_2  and  C3_3 
REMARK    2  A    between atoms: C3_3  and  O1_4 
REMARK    3  A    between atoms: C5_6  and  C6_7 
REMARK    4  A    between atoms: C5_6  and  O4_26 
REMARK    5  A    between atoms: C9_11  and  C10_12 
REMARK       I    between atoms: C10_12  and  N2_14 
REMARK    6  A    between atoms: N2_14  and  C11_15 
REMARK    7  A    between atoms: C11_15  and  C13_17 
ROOT
HETATM    1  C6  UNL     1      22.498  -0.075  53.167  1.00  0.00     0.078 C 
HETATM    2  C7  UNL     1      23.643   0.562  53.148  1.00  0.00     0.095 C 
HETATM    3  C8  UNL     1      23.647   1.929  52.668  1.00  0.00     0.154 C 
HETATM    4  N1  UNL     1      24.427   2.647  51.932  1.00  0.00    -0.253 NA
HETATM    5  C9  UNL     1      25.672   2.440  51.232  1.00  0.00     0.124 C 
HETATM    6  C16 UNL     1      26.594   1.546  51.473  1.00  0.00     0.039 C 
HETATM    7  C17 UNL     1      26.849   0.455  52.403  1.00  0.00     0.027 C 
HETATM    8  C18 UNL     1      26.112  -0.243  53.260  1.00  0.00     0.142 C 
HETATM    9  O3  UNL     1      24.743  -0.189  53.608  1.00  0.00    -0.321 OA
ENDROOT
BRANCH   5  10
HETATM   10  C10 UNL     1      25.793   3.397  50.162  1.00  0.00     0.270 C 
HETATM   11  O2  UNL     1      25.090   3.298  49.095  1.00  0.00    -0.266 OA
HETATM   12  N2  UNL     1      26.616   4.530  50.054  1.00  0.00    -0.345 N 
HETATM   13  H9  UNL     1      27.249   4.739  50.855  1.00  0.00     0.163 HD
BRANCH  12  14
HETATM   14  C11 UNL     1      26.688   5.443  48.961  1.00  0.00     0.140 C 
HETATM   15  C12 UNL     1      26.096   6.785  49.237  1.00  0.00     0.039 C 
BRANCH  14  16
HETATM   16  C13 UNL     1      28.084   5.635  48.465  1.00  0.00     0.097 A 
HETATM   17  N3  UNL     1      29.137   5.065  48.335  1.00  0.00    -0.256 NA
HETATM   18  C14 UNL     1      30.192   5.657  47.804  1.00  0.00     0.124 A 
HETATM   19  C15 UNL     1      30.143   6.974  47.365  1.00  0.00     0.071 A 
HETATM   20  S1  UNL     1      28.386   7.342  47.782  1.00  0.00    -0.083 SA
ENDBRANCH  14  16
ENDBRANCH  12  14
ENDBRANCH   5  10
BRANCH   1  21
HETATM   21  C5  UNL     1      21.073  -0.116  52.925  1.00  0.00     0.103 C 
HETATM   22  C3  UNL     1      20.221   0.311  52.009  1.00  0.00     0.097 C 
BRANCH  22  23
HETATM   23  C2  UNL     1      18.864  -0.034  52.302  1.00  0.00     0.013 C 
HETATM   24  C1  UNL     1      18.149  -0.206  51.205  1.00  0.00     0.034 C 
ENDBRANCH  22  23
BRANCH  22  25
HETATM   25  O1  UNL     1      20.703   1.011  50.919  1.00  0.00    -0.353 OA
HETATM   26  C4  UNL     1      20.612   2.425  50.818  1.00  0.00     0.210 C 
ENDBRANCH  22  25
BRANCH  21  27
HETATM   27  O4  UNL     1      20.776  -0.823  54.069  1.00  0.00    -0.353 OA
HETATM   28  C19 UNL     1      21.503  -1.875  54.612  1.00  0.00     0.210 C 
ENDBRANCH  21  27
ENDBRANCH   1  21
TORSDOF 7
ENDMDL
MODEL 4
REMARK VINA RESULT:      -7.4      1.264      1.463
REMARK  7 active torsions:
REMARK  status: ('A' for Active; 'I' for Inactive)
REMARK    1  A    between atoms: C2_2  and  C3_3 
REMARK    2  A    between atoms: C3_3  and  O1_4 
REMARK    3  A    between atoms: C5_6  and  C6_7 
REMARK    4  A    between atoms: C5_6  and  O4_26 
REMARK    5  A    between atoms: C9_11  and  C10_12 
REMARK       I    between atoms: C10_12  and  N2_14 
REMARK    6  A    between atoms: N2_14  and  C11_15 
REMARK    7  A    between atoms: C11_15  and  C13_17 
ROOT
HETATM    1  C6  UNL     1      25.466   1.817  52.223  1.00  0.00     0.078 C 
HETATM    2  C7  UNL     1      25.074   2.751  51.391  1.00  0.00     0.095 C 
HETATM    3  C8  UNL     1      25.816   2.913  50.159  1.00  0.00     0.154 C 
HETATM    4  N1  UNL     1      26.220   3.911  49.448  1.00  0.00    -0.253 NA
HETATM    5  C9  UNL     1      26.127   5.349  49.534  1.00  0.00     0.124 C 
HETATM    6  C16 UNL     1      25.241   6.063  50.175  1.00  0.00     0.039 C 
HETATM    7  C17 UNL     1      24.065   5.862  51.011  1.00  0.00     0.027 C 
HETATM    8  C18 UNL     1      23.545   4.834  51.672  1.00  0.00     0.142 C 
HETATM    9  O3  UNL     1      23.953   3.489  51.821  1.00  0.00    -0.321 OA
ENDROOT
BRANCH   5  10
HETATM   10  C10 UNL     1      27.197   5.951  48.780  1.00  0.00     0.270 C 
HETATM   11  O2  UNL     1      26.963   6.775  47.827  1.00  0.00    -0.266 OA
HETATM   12  N2  UNL     1      28.588   5.790  48.903  1.00  0.00    -0.345 N 
HETATM   13  H9  UNL     1      28.931   5.142  49.643  1.00  0.00     0.163 HD
BRANCH  12  14
HETATM   14  C11 UNL     1      29.601   6.418  48.120  1.00  0.00     0.140 C 
HETATM   15  C12 UNL     1      30.123   7.692  48.695  1.00  0.00     0.039 C 
BRANCH  14  16
HETATM   16  C13 UNL     1      30.758   5.514  47.845  1.00  0.00     0.097 A 
HETATM   17  N3  UNL     1      31.033   4.375  47.565  1.00  0.00    -0.256 NA
HETATM   18  C14 UNL     1      32.282   3.978  47.400  1.00  0.00     0.124 A 
HETATM   19  C15 UNL     1      33.349   4.855  47.543  1.00  0.00     0.071 A 
HETATM   20  S1  UNL     1      32.402   6.383  47.951  1.00  0.00    -0.083 SA
ENDBRANCH  14  16
ENDBRANCH  12  14
ENDBRANCH   5  10
BRANCH   1  21
HETATM   21  C5  UNL     1      26.367   0.744  52.581  1.00  0.00     0.103 C 
HETATM   22  C3  UNL     1      27.659   0.583  52.810  1.00  0.00     0.097 C 
BRANCH  22  23
HETATM   23  C2  UNL     1      28.005  -0.766  53.139  1.00  0.00     0.013 C 
HETATM   24  C1  UNL     1      29.296  -0.898  53.387  1.00  0.00     0.034 C 
ENDBRANCH  22  23
BRANCH  22  25
HETATM   25  O1  UNL     1      28.499   1.675  52.711  1.00  0.00    -0.353 OA
HETATM   26  C4  UNL     1      28.801   2.510  53.821  1.00  0.00     0.210 C 
ENDBRANCH  22  25
BRANCH  21  27
HETATM   27  O4  UNL     1      25.388  -0.224  52.632  1.00  0.00    -0.353 OA
HETATM   28  C19 UNL     1      24.270  -0.237  53.458  1.00  0.00     0.210 C 
ENDBRANCH  21  27
ENDBRANCH   1  21
TORSDOF 7
ENDMDL
MODEL 5
REMARK VINA RESULT:      -6.9      3.691      5.527
REMARK  7 active torsions:
REMARK  status: ('A' for Active; 'I' for Inactive)
REMARK    1  A    between atoms: C2_2  and  C3_3 
REMARK    2  A    between atoms: C3_3  and  O1_4 
REMARK    3  A    between atoms: C5_6  and  C6_7 
REMARK    4  A    between atoms: C5_6  and  O4_26 
REMARK    5  A    between atoms: C9_11  and  C10_12 
REMARK       I    between atoms: C10_12  and  N2_14 
REMARK    6  A    between atoms: N2_14  and  C11_15 
REMARK    7  A    between atoms: C11_15  and  C13_17 
ROOT
HETATM    1  C6  UNL     1      24.357  -0.138  53.486  1.00  0.00     0.078 C 
HETATM    2  C7  UNL     1      23.375   0.405  52.810  1.00  0.00     0.095 C 
HETATM    3  C8  UNL     1      23.706   1.127  51.599  1.00  0.00     0.154 C 
HETATM    4  N1  UNL     1      23.308   2.217  51.036  1.00  0.00    -0.253 NA
HETATM    5  C9  UNL     1      22.340   3.245  51.334  1.00  0.00     0.124 C 
HETATM    6  C16 UNL     1      21.280   3.159  52.093  1.00  0.00     0.039 C 
HETATM    7  C17 UNL     1      20.597   2.171  52.915  1.00  0.00     0.027 C 
HETATM    8  C18 UNL     1      20.918   0.988  53.428  1.00  0.00     0.142 C 
HETATM    9  O3  UNL     1      22.096   0.209  53.368  1.00  0.00    -0.321 OA
ENDROOT
BRANCH   5  10
HETATM   10  C10 UNL     1      22.700   4.464  50.655  1.00  0.00     0.270 C 
HETATM   11  O2  UNL     1      21.920   5.004  49.794  1.00  0.00    -0.266 OA
HETATM   12  N2  UNL     1      23.859   5.250  50.768  1.00  0.00    -0.345 N 
HETATM   13  H9  UNL     1      24.591   4.931  51.437  1.00  0.00     0.163 HD
BRANCH  12  14
HETATM   14  C11 UNL     1      24.157   6.454  50.062  1.00  0.00     0.140 C 
HETATM   15  C12 UNL     1      24.029   7.695  50.879  1.00  0.00     0.039 C 
BRANCH  14  16
HETATM   16  C13 UNL     1      25.515   6.434  49.441  1.00  0.00     0.097 A 
HETATM   17  N3  UNL     1      26.363   7.155  48.979  1.00  0.00    -0.256 NA
HETATM   18  C14 UNL     1      27.502   6.680  48.507  1.00  0.00     0.124 A 
HETATM   19  C15 UNL     1      27.783   5.320  48.517  1.00  0.00     0.071 A 
HETATM   20  S1  UNL     1      26.223   4.718  49.292  1.00  0.00    -0.083 SA
ENDBRANCH  14  16
ENDBRANCH  12  14
ENDBRANCH   5  10
BRANCH   1  21
HETATM   21  C5  UNL     1      25.765  -0.417  53.662  1.00  0.00     0.103 C 
HETATM   22  C3  UNL     1      26.911  -0.065  53.104  1.00  0.00     0.097 C 
BRANCH  22  23
HETATM   23  C2  UNL     1      28.046  -0.682  53.720  1.00  0.00     0.013 C 
HETATM   24  C1  UNL     1      28.641   0.125  54.580  1.00  0.00     0.034 C 
ENDBRANCH  22  23
BRANCH  22  25
HETATM   25  O1  UNL     1      26.896   0.814  52.039  1.00  0.00    -0.353 OA
HETATM   26  C4  UNL     1      27.063   2.216  52.202  1.00  0.00     0.210 C 
ENDBRANCH  22  25
BRANCH  21  27
HETATM   27  O4  UNL     1      25.588  -1.276  54.723  1.00  0.00    -0.353 OA
HETATM   28  C19 UNL     1      24.699  -1.122  55.782  1.00  0.00     0.210 C 
ENDBRANCH  21  27
ENDBRANCH   1  21
TORSDOF 7
ENDMDL
MODEL 6
REMARK VINA RESULT:      -6.9      5.917      8.097
REMARK  7 active torsions:
REMARK  status: ('A' for Active; 'I' for Inactive)
REMARK    1  A    between atoms: C2_2  and  C3_3 
REMARK    2  A    between atoms: C3_3  and  O1_4 
REMARK    3  A    between atoms: C5_6  and  C6_7 
REMARK    4  A    between atoms: C5_6  and  O4_26 
REMARK    5  A    between atoms: C9_11  and  C10_12 
REMARK       I    between atoms: C10_12  and  N2_14 
REMARK    6  A    between atoms: N2_14  and  C11_15 
REMARK    7  A    between atoms: C11_15  and  C13_17 
ROOT
HETATM    1  C6  UNL     1      24.883  -0.572  54.051  1.00  0.00     0.078 C 
HETATM    2  C7  UNL     1      23.660  -0.524  53.583  1.00  0.00     0.095 C 
HETATM    3  C8  UNL     1      23.402   0.344  52.453  1.00  0.00     0.154 C 
HETATM    4  N1  UNL     1      22.453   1.143  52.100  1.00  0.00    -0.253 NA
HETATM    5  C9  UNL     1      21.187   1.559  52.656  1.00  0.00     0.124 C 
HETATM    6  C16 UNL     1      20.439   0.927  53.520  1.00  0.00     0.039 C 
HETATM    7  C17 UNL     1      20.446  -0.318  54.275  1.00  0.00     0.027 C 
HETATM    8  C18 UNL     1      21.364  -1.232  54.575  1.00  0.00     0.142 C 
HETATM    9  O3  UNL     1      22.737  -1.345  54.263  1.00  0.00    -0.321 OA
ENDROOT
BRANCH   5  10
HETATM   10  C10 UNL     1      20.816   2.841  52.113  1.00  0.00     0.270 C 
HETATM   11  O2  UNL     1      19.676   3.369  52.363  1.00  0.00    -0.266 OA
HETATM   12  N2  UNL     1      21.539   3.710  51.278  1.00  0.00    -0.345 N 
HETATM   13  H9  UNL     1      22.494   3.410  50.988  1.00  0.00     0.163 HD
BRANCH  12  14
HETATM   14  C11 UNL     1      21.113   4.974  50.772  1.00  0.00     0.140 C 
HETATM   15  C12 UNL     1      21.966   6.125  51.189  1.00  0.00     0.039 C 
BRANCH  14  16
HETATM   16  C13 UNL     1      20.997   4.987  49.283  1.00  0.00     0.097 A 
HETATM   17  N3  UNL     1      20.211   5.173  48.389  1.00  0.00    -0.256 NA
HETATM   18  C14 UNL     1      20.561   5.075  47.119  1.00  0.00     0.124 A 
HETATM   19  C15 UNL     1      21.859   4.750  46.745  1.00  0.00     0.071 A 
HETATM   20  S1  UNL     1      22.600   4.583  48.424  1.00  0.00    -0.083 SA
ENDBRANCH  14  16
ENDBRANCH  12  14
ENDBRANCH   5  10
BRANCH   1  21
HETATM   21  C5  UNL     1      26.266  -0.151  54.011  1.00  0.00     0.103 C 
HETATM   22  C3  UNL     1      26.956   0.966  54.167  1.00  0.00     0.097 C 
BRANCH  22  23
HETATM   23  C2  UNL     1      28.366   0.780  54.006  1.00  0.00     0.013 C 
HETATM   24  C1  UNL     1      29.016   1.929  53.977  1.00  0.00     0.034 C 
ENDBRANCH  22  23
BRANCH  22  25
HETATM   25  O1  UNL     1      26.281   2.137  54.454  1.00  0.00    -0.353 OA
HETATM   26  C4  UNL     1      25.471   2.806  53.497  1.00  0.00     0.210 C 
ENDBRANCH  22  25
BRANCH  21  27
HETATM   27  O4  UNL     1      26.765  -1.402  53.723  1.00  0.00    -0.353 OA
HETATM   28  C19 UNL     1      26.817  -2.013  52.476  1.00  0.00     0.210 C 
ENDBRANCH  21  27
ENDBRANCH   1  21
TORSDOF 7
ENDMDL
MODEL 7
REMARK VINA RESULT:      -6.6      2.104      3.882
REMARK  7 active torsions:
REMARK  status: ('A' for Active; 'I' for Inactive)
REMARK    1  A    between atoms: C2_2  and  C3_3 
REMARK    2  A    between atoms: C3_3  and  O1_4 
REMARK    3  A    between atoms: C5_6  and  C6_7 
REMARK    4  A    between atoms: C5_6  and  O4_26 
REMARK    5  A    between atoms: C9_11  and  C10_12 
REMARK       I    between atoms: C10_12  and  N2_14 
REMARK    6  A    between atoms: N2_14  and  C11_15 
REMARK    7  A    between atoms: C11_15  and  C13_17 
ROOT
HETATM    1  C6  UNL     1      25.263   5.811  49.705  1.00  0.00     0.078 C 
HETATM    2  C7  UNL     1      26.156   5.954  48.757  1.00  0.00     0.095 C 
HETATM    3  C8  UNL     1      27.198   4.954  48.654  1.00  0.00     0.154 C 
HETATM    4  N1  UNL     1      28.465   4.963  48.409  1.00  0.00    -0.253 NA
HETATM    5  C9  UNL     1      29.458   5.970  48.117  1.00  0.00     0.124 C 
HETATM    6  C16 UNL     1      29.274   7.163  47.618  1.00  0.00     0.039 C 
HETATM    7  C17 UNL     1      28.178   8.003  47.157  1.00  0.00     0.027 C 
HETATM    8  C18 UNL     1      26.855   7.979  47.285  1.00  0.00     0.142 C 
HETATM    9  O3  UNL     1      25.975   7.092  47.946  1.00  0.00    -0.321 OA
ENDROOT
BRANCH   5  10
HETATM   10  C10 UNL     1      30.766   5.476  48.464  1.00  0.00     0.270 C 
HETATM   11  O2  UNL     1      31.134   5.359  49.686  1.00  0.00    -0.266 OA
HETATM   12  N2  UNL     1      31.821   5.058  47.635  1.00  0.00    -0.345 N 
HETATM   13  H9  UNL     1      31.665   5.099  46.606  1.00  0.00     0.163 HD
BRANCH  12  14
HETATM   14  C11 UNL     1      33.100   4.577  48.044  1.00  0.00     0.140 C 
HETATM   15  C12 UNL     1      33.686   3.542  47.143  1.00  0.00     0.039 C 
BRANCH  14  16
HETATM   16  C13 UNL     1      34.098   5.675  48.215  1.00  0.00     0.097 A 
HETATM   17  N3  UNL     1      35.120   5.955  48.791  1.00  0.00    -0.256 NA
HETATM   18  C14 UNL     1      35.709   7.128  48.639  1.00  0.00     0.124 A 
HETATM   19  C15 UNL     1      35.181   8.104  47.805  1.00  0.00     0.071 A 
HETATM   20  S1  UNL     1      33.696   7.190  47.209  1.00  0.00    -0.083 SA
ENDBRANCH  14  16
ENDBRANCH  12  14
ENDBRANCH   5  10
BRANCH   1  21
HETATM   21  C5  UNL     1      24.726   5.080  50.832  1.00  0.00     0.103 C 
HETATM   22  C3  UNL     1      24.777   3.853  51.319  1.00  0.00     0.097 C 
BRANCH  22  23
HETATM   23  C2  UNL     1      24.013   3.693  52.518  1.00  0.00     0.013 C 
HETATM   24  C1  UNL     1      23.000   2.862  52.352  1.00  0.00     0.034 C 
ENDBRANCH  22  23
BRANCH  22  25
HETATM   25  O1  UNL     1      25.524   2.898  50.655  1.00  0.00    -0.353 OA
HETATM   26  C4  UNL     1      26.685   2.306  51.222  1.00  0.00     0.210 C 
ENDBRANCH  22  25
BRANCH  21  27
HETATM   27  O4  UNL     1      24.037   6.152  51.354  1.00  0.00    -0.353 OA
HETATM   28  C19 UNL     1      24.146   7.483  50.968  1.00  0.00     0.210 C 
ENDBRANCH  21  27
ENDBRANCH   1  21
TORSDOF 7
ENDMDL
MODEL 8
REMARK VINA RESULT:      -6.6      2.718      4.024
REMARK  7 active torsions:
REMARK  status: ('A' for Active; 'I' for Inactive)
REMARK    1  A    between atoms: C2_2  and  C3_3 
REMARK    2  A    between atoms: C3_3  and  O1_4 
REMARK    3  A    between atoms: C5_6  and  C6_7 
REMARK    4  A    between atoms: C5_6  and  O4_26 
REMARK    5  A    between atoms: C9_11  and  C10_12 
REMARK       I    between atoms: C10_12  and  N2_14 
REMARK    6  A    between atoms: N2_14  and  C11_15 
REMARK    7  A    between atoms: C11_15  and  C13_17 
ROOT
HETATM    1  C6  UNL     1      23.248   1.169  52.616  1.00  0.00     0.078 C 
HETATM    2  C7  UNL     1      22.689   1.990  51.761  1.00  0.00     0.095 C 
HETATM    3  C8  UNL     1      23.463   2.392  50.605  1.00  0.00     0.154 C 
HETATM    4  N1  UNL     1      23.638   3.488  49.947  1.00  0.00    -0.253 NA
HETATM    5  C9  UNL     1      23.149   4.843  50.040  1.00  0.00     0.124 C 
HETATM    6  C16 UNL     1      22.048   5.266  50.604  1.00  0.00     0.039 C 
HETATM    7  C17 UNL     1      20.905   4.723  51.323  1.00  0.00     0.027 C 
HETATM    8  C18 UNL     1      20.630   3.568  51.921  1.00  0.00     0.142 C 
HETATM    9  O3  UNL     1      21.376   2.380  52.092  1.00  0.00    -0.321 OA
ENDROOT
BRANCH   5  10
HETATM   10  C10 UNL     1      24.075   5.740  49.396  1.00  0.00     0.270 C 
HETATM   11  O2  UNL     1      23.950   6.056  48.161  1.00  0.00    -0.266 OA
HETATM   12  N2  UNL     1      25.201   6.398  49.917  1.00  0.00    -0.345 N 
HETATM   13  H9  UNL     1      25.430   6.233  50.920  1.00  0.00     0.163 HD
BRANCH  12  14
HETATM   14  C11 UNL     1      26.083   7.278  49.224  1.00  0.00     0.140 C 
HETATM   15  C12 UNL     1      26.475   8.494  49.996  1.00  0.00     0.039 C 
BRANCH  14  16
HETATM   16  C13 UNL     1      27.326   6.595  48.755  1.00  0.00     0.097 A 
HETATM   17  N3  UNL     1      27.796   5.505  48.551  1.00  0.00    -0.256 NA
HETATM   18  C14 UNL     1      29.028   5.347  48.101  1.00  0.00     0.124 A 
HETATM   19  C15 UNL     1      29.850   6.435  47.836  1.00  0.00     0.071 A 
HETATM   20  S1  UNL     1      28.684   7.786  48.299  1.00  0.00    -0.083 SA
ENDBRANCH  14  16
ENDBRANCH  12  14
ENDBRANCH   5  10
BRANCH   1  21
HETATM   21  C5  UNL     1      24.374   0.367  53.044  1.00  0.00     0.103 C 
HETATM   22  C3  UNL     1      25.667   0.531  53.262  1.00  0.00     0.097 C 
BRANCH  22  23
HETATM   23  C2  UNL     1      26.317  -0.668  53.695  1.00  0.00     0.013 C 
HETATM   24  C1  UNL     1      26.932  -1.283  52.701  1.00  0.00     0.034 C 
ENDBRANCH  22  23
BRANCH  22  25
HETATM   25  O1  UNL     1      26.229   1.776  53.059  1.00  0.00    -0.353 OA
HETATM   26  C4  UNL     1      26.850   2.144  51.834  1.00  0.00     0.210 C 
ENDBRANCH  22  25
BRANCH  21  27
HETATM   27  O4  UNL     1      23.647  -0.793  53.191  1.00  0.00    -0.353 OA
HETATM   28  C19 UNL     1      22.536  -0.985  54.005  1.00  0.00     0.210 C 
ENDBRANCH  21  27
ENDBRANCH   1  21
TORSDOF 7
ENDMDL
MODEL 9
REMARK VINA RESULT:      -6.5      2.873      3.759
REMARK  7 active torsions:
REMARK  status: ('A' for Active; 'I' for Inactive)
REMARK    1  A    between atoms: C2_2  and  C3_3 
REMARK    2  A    between atoms: C3_3  and  O1_4 
REMARK    3  A    between atoms: C5_6  and  C6_7 
REMARK    4  A    between atoms: C5_6  and  O4_26 
REMARK    5  A    between atoms: C9_11  and  C10_12 
REMARK       I    between atoms: C10_12  and  N2_14 
REMARK    6  A    between atoms: N2_14  and  C11_15 
REMARK    7  A    between atoms: C11_15  and  C13_17 
ROOT
HETATM    1  C6  UNL     1      25.555   2.421  51.933  1.00  0.00     0.078 C 
HETATM    2  C7  UNL     1      25.241   3.372  51.088  1.00  0.00     0.095 C 
HETATM    3  C8  UNL     1      25.961   3.426  49.833  1.00  0.00     0.154 C 
HETATM    4  N1  UNL     1      26.448   4.359  49.087  1.00  0.00    -0.253 NA
HETATM    5  C9  UNL     1      26.511   5.801  49.138  1.00  0.00     0.124 C 
HETATM    6  C16 UNL     1      25.723   6.620  49.784  1.00  0.00     0.039 C 
HETATM    7  C17 UNL     1      24.557   6.564  50.654  1.00  0.00     0.027 C 
HETATM    8  C18 UNL     1      23.950   5.612  51.355  1.00  0.00     0.142 C 
HETATM    9  O3  UNL     1      24.217   4.235  51.527  1.00  0.00    -0.321 OA
ENDROOT
BRANCH   5  10
HETATM   10  C10 UNL     1      27.617   6.268  48.342  1.00  0.00     0.270 C 
HETATM   11  O2  UNL     1      28.661   5.547  48.161  1.00  0.00    -0.266 OA
HETATM   12  N2  UNL     1      27.786   7.484  47.659  1.00  0.00    -0.345 N 
HETATM   13  H9  UNL     1      27.010   8.177  47.717  1.00  0.00     0.163 HD
BRANCH  12  14
HETATM   14  C11 UNL     1      28.913   7.888  46.884  1.00  0.00     0.140 C 
HETATM   15  C12 UNL     1      28.628   8.069  45.430  1.00  0.00     0.039 C 
BRANCH  14  16
HETATM   16  C13 UNL     1      29.547   9.137  47.400  1.00  0.00     0.097 A 
HETATM   17  N3  UNL     1      29.905  10.237  47.060  1.00  0.00    -0.256 NA
HETATM   18  C14 UNL     1      30.459  11.085  47.909  1.00  0.00     0.124 A 
HETATM   19  C15 UNL     1      30.658  10.754  49.242  1.00  0.00     0.071 A 
HETATM   20  S1  UNL     1      29.963   9.047  49.214  1.00  0.00    -0.083 SA
ENDBRANCH  14  16
ENDBRANCH  12  14
ENDBRANCH   5  10
BRANCH   1  21
HETATM   21  C5  UNL     1      26.347   1.266  52.295  1.00  0.00     0.103 C 
HETATM   22  C3  UNL     1      26.146  -0.006  52.593  1.00  0.00     0.097 C 
BRANCH  22  23
HETATM   23  C2  UNL     1      27.357  -0.711  52.882  1.00  0.00     0.013 C 
HETATM   24  C1  UNL     1      27.248  -2.004  52.633  1.00  0.00     0.034 C 
ENDBRANCH  22  23
BRANCH  22  25
HETATM   25  O1  UNL     1      24.855  -0.498  52.597  1.00  0.00    -0.353 OA
HETATM   26  C4  UNL     1      24.039  -0.495  53.761  1.00  0.00     0.210 C 
ENDBRANCH  22  25
BRANCH  21  27
HETATM   27  O4  UNL     1      27.555   1.925  52.243  1.00  0.00    -0.353 OA
HETATM   28  C19 UNL     1      28.259   2.463  53.313  1.00  0.00     0.210 C 
ENDBRANCH  21  27
ENDBRANCH   1  21
TORSDOF 7
ENDMDL
