MODEL 1
REMARK VINA RESULT:      -8.5      0.000      0.000
REMARK  2 active torsions:
REMARK  status: ('A' for Active; 'I' for Inactive)
REMARK    1  A    between atoms: C15_19  and  O1_20 
REMARK    2  A    between atoms: O1_20  and  C16_21 
ROOT
HETATM    1  C16 UNL     1      27.407  -1.298  53.078  1.00  0.00     0.299 C 
HETATM    2  C17 UNL     1      28.810  -1.105  53.406  1.00  0.00     0.085 C 
HETATM    3  N3  UNL     1      29.921  -0.961  53.650  1.00  0.00    -0.195 NA
ENDROOT
BRANCH   1   4
HETATM    4  O1  UNL     1      26.655  -0.602  54.056  1.00  0.00    -0.337 OA
BRANCH   4   5
HETATM    5  C15 UNL     1      25.488   0.080  53.753  1.00  0.00     0.074 C 
HETATM    6  C2  UNL     1      25.768   1.412  53.165  1.00  0.00    -0.028 C 
HETATM    7  C1  UNL     1      27.002   2.018  53.714  1.00  0.00     0.051 C 
HETATM    8  C3  UNL     1      25.129   2.164  52.245  1.00  0.00     0.023 C 
HETATM    9  C4  UNL     1      23.884   1.911  51.477  1.00  0.00    -0.006 A 
HETATM   10  C5  UNL     1      24.079   2.674  50.345  1.00  0.00     0.057 A 
HETATM   11  C9  UNL     1      22.788   1.116  51.755  1.00  0.00     0.044 A 
HETATM   12  C6  UNL     1      23.096   2.659  49.377  1.00  0.00     0.139 A 
HETATM   13  F1  UNL     1      23.316   3.412  48.290  1.00  0.00    -0.204 F 
HETATM   14  C7  UNL     1      21.980   1.895  49.578  1.00  0.00     0.074 A 
HETATM   15 CL1  UNL     1      20.774   1.915  48.323  1.00  0.00    -0.081 Cl
HETATM   16  C8  UNL     1      21.859   1.159  50.738  1.00  0.00     0.057 A 
HETATM   17  N1  UNL     1      22.279   0.252  52.768  1.00  0.00    -0.350 N 
HETATM   18  C10 UNL     1      20.902   0.047  52.411  1.00  0.00     0.275 C 
HETATM   19  C13 UNL     1      22.860  -0.361  53.949  1.00  0.00     0.137 C 
HETATM   20  N2  UNL     1      20.385  -0.463  53.735  1.00  0.00    -0.268 NA
HETATM   21  C11 UNL     1      20.871  -1.522  54.236  1.00  0.00     0.079 C 
HETATM   22  C12 UNL     1      22.166  -1.640  54.274  1.00  0.00     0.036 C 
HETATM   23  C14 UNL     1      24.306  -0.460  53.991  1.00  0.00     0.039 C 
ENDBRANCH   4   5
ENDBRANCH   1   4
TORSDOF 2
ENDMDL
MODEL 2
REMARK VINA RESULT:      -8.4      3.525      5.336
REMARK  2 active torsions:
REMARK  status: ('A' for Active; 'I' for Inactive)
REMARK    1  A    between atoms: C15_19  and  O1_20 
REMARK    2  A    between atoms: O1_20  and  C16_21 
ROOT
HETATM    1  C16 UNL     1      26.881   3.722  49.335  1.00  0.00     0.299 C 
HETATM    2  C17 UNL     1      26.857   5.122  48.945  1.00  0.00     0.085 C 
HETATM    3  N3  UNL     1      26.854   6.226  48.634  1.00  0.00    -0.195 NA
ENDROOT
BRANCH   1   4
HETATM    4  O1  UNL     1      25.548   3.355  49.640  1.00  0.00    -0.337 OA
BRANCH   4   5
HETATM    5  C15 UNL     1      25.169   2.891  50.890  1.00  0.00     0.074 C 
HETATM    6  C2  UNL     1      23.848   3.431  51.297  1.00  0.00    -0.028 C 
HETATM    7  C1  UNL     1      23.619   4.799  50.781  1.00  0.00     0.051 C 
HETATM    8  C3  UNL     1      22.836   2.927  52.034  1.00  0.00     0.023 C 
HETATM    9  C4  UNL     1      22.688   1.614  52.712  1.00  0.00    -0.006 A 
HETATM   10  C5  UNL     1      21.318   1.457  52.746  1.00  0.00     0.057 A 
HETATM   11  C9  UNL     1      23.630   0.724  53.190  1.00  0.00     0.044 A 
HETATM   12  C6  UNL     1      20.813   0.304  53.309  1.00  0.00     0.139 A 
HETATM   13  F1  UNL     1      19.477   0.182  53.327  1.00  0.00    -0.204 F 
HETATM   14  C7  UNL     1      21.683  -0.628  53.805  1.00  0.00     0.074 A 
HETATM   15 CL1  UNL     1      20.988  -2.063  54.503  1.00  0.00    -0.081 Cl
HETATM   16  C8  UNL     1      23.040  -0.397  53.733  1.00  0.00     0.057 A 
HETATM   17  N1  UNL     1      25.042   0.575  53.322  1.00  0.00    -0.350 N 
HETATM   18  C10 UNL     1      25.206  -0.533  54.222  1.00  0.00     0.275 C 
HETATM   19  C13 UNL     1      26.181   1.283  52.767  1.00  0.00     0.137 C 
HETATM   20  N2  UNL     1      26.643  -0.300  54.628  1.00  0.00    -0.268 NA
HETATM   21  C11 UNL     1      27.556  -0.309  53.749  1.00  0.00     0.079 C 
HETATM   22  C12 UNL     1      27.363   0.379  52.662  1.00  0.00     0.036 C 
HETATM   23  C14 UNL     1      25.946   2.070  51.573  1.00  0.00     0.039 C 
ENDBRANCH   4   5
ENDBRANCH   1   4
TORSDOF 2
ENDMDL
MODEL 3
REMARK VINA RESULT:      -8.2      4.662      6.450
REMARK  2 active torsions:
REMARK  status: ('A' for Active; 'I' for Inactive)
REMARK    1  A    between atoms: C15_19  and  O1_20 
REMARK    2  A    between atoms: O1_20  and  C16_21 
ROOT
HETATM    1  C16 UNL     1      25.319   8.097  50.121  1.00  0.00     0.299 C 
HETATM    2  C17 UNL     1      26.271   9.187  49.988  1.00  0.00     0.085 C 
HETATM    3  N3  UNL     1      27.009  10.058  49.886  1.00  0.00    -0.195 NA
ENDROOT
BRANCH   1   4
HETATM    4  O1  UNL     1      26.046   6.892  49.956  1.00  0.00    -0.337 OA
BRANCH   4   5
HETATM    5  C15 UNL     1      25.439   5.647  49.971  1.00  0.00     0.074 C 
HETATM    6  C2  UNL     1      26.391   4.569  49.606  1.00  0.00    -0.028 C 
HETATM    7  C1  UNL     1      27.401   5.023  48.624  1.00  0.00     0.051 C 
HETATM    8  C3  UNL     1      26.511   3.280  49.987  1.00  0.00     0.023 C 
HETATM    9  C4  UNL     1      25.708   2.468  50.936  1.00  0.00    -0.006 A 
HETATM   10  C5  UNL     1      26.619   1.519  51.351  1.00  0.00     0.057 A 
HETATM   11  C9  UNL     1      24.396   2.588  51.354  1.00  0.00     0.044 A 
HETATM   12  C6  UNL     1      26.203   0.585  52.276  1.00  0.00     0.139 A 
HETATM   13  F1  UNL     1      27.112  -0.324  52.658  1.00  0.00    -0.204 F 
HETATM   14  C7  UNL     1      24.918   0.637  52.740  1.00  0.00     0.074 A 
HETATM   15 CL1  UNL     1      24.450  -0.567  53.906  1.00  0.00    -0.081 Cl
HETATM   16  C8  UNL     1      24.066   1.618  52.276  1.00  0.00     0.057 A 
HETATM   17  N1  UNL     1      23.238   3.391  51.141  1.00  0.00    -0.350 N 
HETATM   18  C10 UNL     1      22.168   2.655  51.755  1.00  0.00     0.275 C 
HETATM   19  C13 UNL     1      23.008   4.663  50.479  1.00  0.00     0.137 C 
HETATM   20  N2  UNL     1      20.996   3.335  51.088  1.00  0.00    -0.268 NA
HETATM   21  C11 UNL     1      20.817   4.581  51.243  1.00  0.00     0.079 C 
HETATM   22  C12 UNL     1      21.841   5.368  51.085  1.00  0.00     0.036 C 
HETATM   23  C14 UNL     1      24.162   5.518  50.282  1.00  0.00     0.039 C 
ENDBRANCH   4   5
ENDBRANCH   1   4
TORSDOF 2
ENDMDL
MODEL 4
REMARK VINA RESULT:      -8.0      3.792      5.839
REMARK  2 active torsions:
REMARK  status: ('A' for Active; 'I' for Inactive)
REMARK    1  A    between atoms: C15_19  and  O1_20 
REMARK    2  A    between atoms: O1_20  and  C16_21 
ROOT
HETATM    1  C16 UNL     1      21.960   5.029  52.025  1.00  0.00     0.299 C 
HETATM    2  C17 UNL     1      21.883   6.173  51.132  1.00  0.00     0.085 C 
HETATM    3  N3  UNL     1      21.825   7.086  50.441  1.00  0.00    -0.195 NA
ENDROOT
BRANCH   1   4
HETATM    4  O1  UNL     1      21.880   3.868  51.217  1.00  0.00    -0.337 OA
BRANCH   4   5
HETATM    5  C15 UNL     1      22.623   2.727  51.474  1.00  0.00     0.074 C 
HETATM    6  C2  UNL     1      23.881   2.702  50.688  1.00  0.00    -0.028 C 
HETATM    7  C1  UNL     1      23.727   3.349  49.366  1.00  0.00     0.051 C 
HETATM    8  C3  UNL     1      25.113   2.213  50.940  1.00  0.00     0.023 C 
HETATM    9  C4  UNL     1      25.655   1.509  52.129  1.00  0.00    -0.006 A 
HETATM   10  C5  UNL     1      26.999   1.811  52.059  1.00  0.00     0.057 A 
HETATM   11  C9  UNL     1      25.031   0.751  53.101  1.00  0.00     0.044 A 
HETATM   12  C6  UNL     1      27.825   1.319  53.047  1.00  0.00     0.139 A 
HETATM   13  F1  UNL     1      29.126   1.630  52.950  1.00  0.00    -0.204 F 
HETATM   14  C7  UNL     1      27.283   0.559  54.047  1.00  0.00     0.074 A 
HETATM   15 CL1  UNL     1      28.373  -0.034  55.267  1.00  0.00    -0.081 Cl
HETATM   16  C8  UNL     1      25.928   0.302  54.047  1.00  0.00     0.057 A 
HETATM   17  N1  UNL     1      23.743   0.257  53.460  1.00  0.00    -0.350 N 
HETATM   18  C10 UNL     1      24.001  -0.726  54.475  1.00  0.00     0.275 C 
HETATM   19  C13 UNL     1      22.395   0.553  53.009  1.00  0.00     0.137 C 
HETATM   20  N2  UNL     1      22.685  -1.465  54.433  1.00  0.00    -0.268 NA
HETATM   21  C11 UNL     1      21.606  -0.847  54.685  1.00  0.00     0.079 C 
HETATM   22  C12 UNL     1      21.408   0.297  54.097  1.00  0.00     0.036 C 
HETATM   23  C14 UNL     1      22.193   1.817  52.330  1.00  0.00     0.039 C 
ENDBRANCH   4   5
ENDBRANCH   1   4
TORSDOF 2
ENDMDL
MODEL 5
REMARK VINA RESULT:      -8.0      2.513      4.282
REMARK  2 active torsions:
REMARK  status: ('A' for Active; 'I' for Inactive)
REMARK    1  A    between atoms: C15_19  and  O1_20 
REMARK    2  A    between atoms: O1_20  and  C16_21 
ROOT
HETATM    1  C16 UNL     1      27.693   2.491  53.783  1.00  0.00     0.299 C 
HETATM    2  C17 UNL     1      28.678   1.422  53.811  1.00  0.00     0.085 C 
HETATM    3  N3  UNL     1      29.468   0.591  53.829  1.00  0.00    -0.195 NA
ENDROOT
BRANCH   1   4
HETATM    4  O1  UNL     1      26.456   1.921  54.172  1.00  0.00    -0.337 OA
BRANCH   4   5
HETATM    5  C15 UNL     1      25.536   1.436  53.257  1.00  0.00     0.074 C 
HETATM    6  C2  UNL     1      25.006   0.112  53.662  1.00  0.00    -0.028 C 
HETATM    7  C1  UNL     1      26.013  -0.699  54.382  1.00  0.00     0.051 C 
HETATM    8  C3  UNL     1      23.806  -0.486  53.504  1.00  0.00     0.023 C 
HETATM    9  C4  UNL     1      22.561  -0.010  52.850  1.00  0.00    -0.006 A 
HETATM   10  C5  UNL     1      21.590  -0.729  53.514  1.00  0.00     0.057 A 
HETATM   11  C9  UNL     1      22.357   0.921  51.850  1.00  0.00     0.044 A 
HETATM   12  C6  UNL     1      20.274  -0.517  53.162  1.00  0.00     0.139 A 
HETATM   13  F1  UNL     1      19.354  -1.232  53.825  1.00  0.00    -0.204 F 
HETATM   14  C7  UNL     1      19.988   0.391  52.179  1.00  0.00     0.074 A 
HETATM   15 CL1  UNL     1      18.310   0.617  51.778  1.00  0.00    -0.081 Cl
HETATM   16  C8  UNL     1      21.017   1.071  51.563  1.00  0.00     0.057 A 
HETATM   17  N1  UNL     1      23.083   1.792  50.987  1.00  0.00    -0.350 N 
HETATM   18  C10 UNL     1      22.121   2.217  50.007  1.00  0.00     0.275 C 
HETATM   19  C13 UNL     1      24.462   2.247  50.949  1.00  0.00     0.137 C 
HETATM   20  N2  UNL     1      23.068   2.724  48.946  1.00  0.00    -0.268 NA
HETATM   21  C11 UNL     1      23.869   3.670  49.214  1.00  0.00     0.079 C 
HETATM   22  C12 UNL     1      24.555   3.594  50.317  1.00  0.00     0.036 C 
HETATM   23  C14 UNL     1      25.224   2.130  52.177  1.00  0.00     0.039 C 
ENDBRANCH   4   5
ENDBRANCH   1   4
TORSDOF 2
ENDMDL
MODEL 6
REMARK VINA RESULT:      -8.0      1.758      2.208
REMARK  2 active torsions:
REMARK  status: ('A' for Active; 'I' for Inactive)
REMARK    1  A    between atoms: C15_19  and  O1_20 
REMARK    2  A    between atoms: O1_20  and  C16_21 
ROOT
HETATM    1  C16 UNL     1      27.749   0.323  52.732  1.00  0.00     0.299 C 
HETATM    2  C17 UNL     1      28.195   1.525  53.417  1.00  0.00     0.085 C 
HETATM    3  N3  UNL     1      28.558   2.464  53.966  1.00  0.00    -0.195 NA
ENDROOT
BRANCH   1   4
HETATM    4  O1  UNL     1      26.829   0.733  51.736  1.00  0.00    -0.337 OA
BRANCH   4   5
HETATM    5  C15 UNL     1      25.518   1.075  52.026  1.00  0.00     0.074 C 
HETATM    6  C2  UNL     1      25.049   2.207  51.191  1.00  0.00    -0.028 C 
HETATM    7  C1  UNL     1      26.138   3.159  50.875  1.00  0.00     0.051 C 
HETATM    8  C3  UNL     1      23.846   2.531  50.673  1.00  0.00     0.023 C 
HETATM    9  C4  UNL     1      22.532   1.845  50.762  1.00  0.00    -0.006 A 
HETATM   10  C5  UNL     1      21.903   2.269  49.610  1.00  0.00     0.057 A 
HETATM   11  C9  UNL     1      22.019   0.981  51.710  1.00  0.00     0.044 A 
HETATM   12  C6  UNL     1      20.633   1.797  49.356  1.00  0.00     0.139 A 
HETATM   13  F1  UNL     1      20.049   2.228  48.228  1.00  0.00    -0.204 F 
HETATM   14  C7  UNL     1      20.055   0.935  50.247  1.00  0.00     0.074 A 
HETATM   15 CL1  UNL     1      18.451   0.372  49.873  1.00  0.00    -0.081 Cl
HETATM   16  C8  UNL     1      20.750   0.558  51.377  1.00  0.00     0.057 A 
HETATM   17  N1  UNL     1      22.364   0.371  52.951  1.00  0.00    -0.350 N 
HETATM   18  C10 UNL     1      21.129  -0.174  53.443  1.00  0.00     0.275 C 
HETATM   19  C13 UNL     1      23.605   0.242  53.695  1.00  0.00     0.137 C 
HETATM   20  N2  UNL     1      21.511  -0.363  54.892  1.00  0.00    -0.268 NA
HETATM   21  C11 UNL     1      22.479  -1.125  55.195  1.00  0.00     0.079 C 
HETATM   22  C12 UNL     1      23.591  -0.991  54.533  1.00  0.00     0.036 C 
HETATM   23  C14 UNL     1      24.836   0.423  52.951  1.00  0.00     0.039 C 
ENDBRANCH   4   5
ENDBRANCH   1   4
TORSDOF 2
ENDMDL
MODEL 7
REMARK VINA RESULT:      -7.9      2.628      5.161
REMARK  2 active torsions:
REMARK  status: ('A' for Active; 'I' for Inactive)
REMARK    1  A    between atoms: C15_19  and  O1_20 
REMARK    2  A    between atoms: O1_20  and  C16_21 
ROOT
HETATM    1  C16 UNL     1      21.185   0.490  54.285  1.00  0.00     0.299 C 
HETATM    2  C17 UNL     1      21.404  -0.902  54.642  1.00  0.00     0.085 C 
HETATM    3  N3  UNL     1      21.575  -1.996  54.941  1.00  0.00    -0.195 NA
ENDROOT
BRANCH   1   4
HETATM    4  O1  UNL     1      21.124   0.548  52.871  1.00  0.00    -0.337 OA
BRANCH   4   5
HETATM    5  C15 UNL     1      22.232   0.824  52.087  1.00  0.00     0.074 C 
HETATM    6  C2  UNL     1      21.847   1.183  50.700  1.00  0.00    -0.028 C 
HETATM    7  C1  UNL     1      20.633   0.464  50.252  1.00  0.00     0.051 C 
HETATM    8  C3  UNL     1      22.378   2.021  49.785  1.00  0.00     0.023 C 
HETATM    9  C4  UNL     1      23.570   2.904  49.852  1.00  0.00    -0.006 A 
HETATM   10  C5  UNL     1      23.253   3.891  48.943  1.00  0.00     0.057 A 
HETATM   11  C9  UNL     1      24.719   2.826  50.616  1.00  0.00     0.044 A 
HETATM   12  C6  UNL     1      24.158   4.915  48.759  1.00  0.00     0.139 A 
HETATM   13  F1  UNL     1      23.820   5.859  47.867  1.00  0.00    -0.204 F 
HETATM   14  C7  UNL     1      25.320   4.911  49.480  1.00  0.00     0.074 A 
HETATM   15 CL1  UNL     1      26.423   6.230  49.206  1.00  0.00    -0.081 Cl
HETATM   16  C8  UNL     1      25.564   3.887  50.371  1.00  0.00     0.057 A 
HETATM   17  N1  UNL     1      25.344   1.994  51.590  1.00  0.00    -0.350 N 
HETATM   18  C10 UNL     1      26.697   2.473  51.661  1.00  0.00     0.275 C 
HETATM   19  C13 UNL     1      24.884   0.882  52.402  1.00  0.00     0.137 C 
HETATM   20  N2  UNL     1      27.338   1.281  52.332  1.00  0.00    -0.268 NA
HETATM   21  C11 UNL     1      26.941   0.913  53.479  1.00  0.00     0.079 C 
HETATM   22  C12 UNL     1      25.659   0.803  53.674  1.00  0.00     0.036 C 
HETATM   23  C14 UNL     1      23.452   0.754  52.588  1.00  0.00     0.039 C 
ENDBRANCH   4   5
ENDBRANCH   1   4
TORSDOF 2
ENDMDL
MODEL 8
REMARK VINA RESULT:      -7.9      3.562      5.341
REMARK  2 active torsions:
REMARK  status: ('A' for Active; 'I' for Inactive)
REMARK    1  A    between atoms: C15_19  and  O1_20 
REMARK    2  A    between atoms: O1_20  and  C16_21 
ROOT
HETATM    1  C16 UNL     1      25.909   5.348  49.481  1.00  0.00     0.299 C 
HETATM    2  C17 UNL     1      27.212   5.004  48.936  1.00  0.00     0.085 C 
HETATM    3  N3  UNL     1      28.238   4.745  48.495  1.00  0.00    -0.195 NA
ENDROOT
BRANCH   1   4
HETATM    4  O1  UNL     1      25.676   4.478  50.574  1.00  0.00    -0.337 OA
BRANCH   4   5
HETATM    5  C15 UNL     1      24.909   3.329  50.463  1.00  0.00     0.074 C 
HETATM    6  C2  UNL     1      25.411   2.249  51.347  1.00  0.00    -0.028 C 
HETATM    7  C1  UNL     1      26.882   2.290  51.503  1.00  0.00     0.051 C 
HETATM    8  C3  UNL     1      24.798   1.254  52.022  1.00  0.00     0.023 C 
HETATM    9  C4  UNL     1      23.363   0.885  52.119  1.00  0.00    -0.006 A 
HETATM   10  C5  UNL     1      23.306   0.252  53.343  1.00  0.00     0.057 A 
HETATM   11  C9  UNL     1      22.306   1.106  51.257  1.00  0.00     0.044 A 
HETATM   12  C6  UNL     1      22.083  -0.218  53.772  1.00  0.00     0.139 A 
HETATM   13  F1  UNL     1      22.062  -0.829  54.966  1.00  0.00    -0.204 F 
HETATM   14  C7  UNL     1      20.986  -0.037  52.975  1.00  0.00     0.074 A 
HETATM   15 CL1  UNL     1      19.469  -0.651  53.570  1.00  0.00    -0.081 Cl
HETATM   16  C8  UNL     1      21.125   0.607  51.764  1.00  0.00     0.057 A 
HETATM   17  N1  UNL     1      22.019   1.681  49.985  1.00  0.00    -0.350 N 
HETATM   18  C10 UNL     1      20.694   1.224  49.670  1.00  0.00     0.275 C 
HETATM   19  C13 UNL     1      22.767   2.535  49.079  1.00  0.00     0.137 C 
HETATM   20  N2  UNL     1      20.694   1.494  48.184  1.00  0.00    -0.268 NA
HETATM   21  C11 UNL     1      20.864   2.676  47.757  1.00  0.00     0.079 C 
HETATM   22  C12 UNL     1      21.842   3.371  48.260  1.00  0.00     0.036 C 
HETATM   23  C14 UNL     1      23.873   3.282  49.646  1.00  0.00     0.039 C 
ENDBRANCH   4   5
ENDBRANCH   1   4
TORSDOF 2
ENDMDL
MODEL 9
REMARK VINA RESULT:      -7.6      3.786      6.776
REMARK  2 active torsions:
REMARK  status: ('A' for Active; 'I' for Inactive)
REMARK    1  A    between atoms: C15_19  and  O1_20 
REMARK    2  A    between atoms: O1_20  and  C16_21 
ROOT
HETATM    1  C16 UNL     1      18.133   0.485  50.870  1.00  0.00     0.299 C 
HETATM    2  C17 UNL     1      16.904   0.409  51.643  1.00  0.00     0.085 C 
HETATM    3  N3  UNL     1      15.927   0.357  52.240  1.00  0.00    -0.195 NA
ENDROOT
BRANCH   1   4
HETATM    4  O1  UNL     1      19.133  -0.185  51.617  1.00  0.00    -0.337 OA
BRANCH   4   5
HETATM    5  C15 UNL     1      20.155   0.487  52.267  1.00  0.00     0.074 C 
HETATM    6  C2  UNL     1      20.858  -0.389  53.237  1.00  0.00    -0.028 C 
HETATM    7  C1  UNL     1      19.949  -1.379  53.856  1.00  0.00     0.051 C 
HETATM    8  C3  UNL     1      22.138  -0.455  53.656  1.00  0.00     0.023 C 
HETATM    9  C4  UNL     1      23.328   0.350  53.279  1.00  0.00    -0.006 A 
HETATM   10  C5  UNL     1      24.364  -0.525  53.531  1.00  0.00     0.057 A 
HETATM   11  C9  UNL     1      23.438   1.634  52.781  1.00  0.00     0.044 A 
HETATM   12  C6  UNL     1      25.648  -0.099  53.268  1.00  0.00     0.139 A 
HETATM   13  F1  UNL     1      26.633  -0.973  53.524  1.00  0.00    -0.204 F 
HETATM   14  C7  UNL     1      25.841   1.161  52.772  1.00  0.00     0.074 A 
HETATM   15 CL1  UNL     1      27.484   1.643  52.459  1.00  0.00    -0.081 Cl
HETATM   16  C8  UNL     1      24.752   1.977  52.546  1.00  0.00     0.057 A 
HETATM   17  N1  UNL     1      22.631   2.755  52.429  1.00  0.00    -0.350 N 
HETATM   18  C10 UNL     1      23.563   3.836  52.267  1.00  0.00     0.275 C 
HETATM   19  C13 UNL     1      21.203   2.944  52.242  1.00  0.00     0.137 C 
HETATM   20  N2  UNL     1      22.601   4.998  52.357  1.00  0.00    -0.268 NA
HETATM   21  C11 UNL     1      21.658   5.102  51.516  1.00  0.00     0.079 C 
HETATM   22  C12 UNL     1      20.941   4.044  51.270  1.00  0.00     0.036 C 
HETATM   23  C14 UNL     1      20.411   1.755  51.999  1.00  0.00     0.039 C 
ENDBRANCH   4   5
ENDBRANCH   1   4
TORSDOF 2
ENDMDL
