MODEL 1
REMARK VINA RESULT:      -6.7      0.000      0.000
REMARK  10 active torsions:
REMARK  status: ('A' for Active; 'I' for Inactive)
REMARK    1  A    between atoms: N1_2  and  C2_3 
REMARK    2  A    between atoms: C2_3  and  C3_4 
REMARK    3  A    between atoms: C3_4  and  N2_5 
REMARK    4  A    between atoms: N2_5  and  C4_6 
REMARK    5  A    between atoms: C9_13  and  O1_14 
REMARK    6  A    between atoms: C11_16  and  O2_17 
REMARK    7  A    between atoms: O2_17  and  C12_18 
REMARK    8  A    between atoms: C12_18  and  C13_19 
REMARK    9  A    between atoms: C13_19  and  C14_20 
REMARK   10  A    between atoms: C14_20  and  N5_21 
ROOT
HETATM    1  C4  UNL     1      25.738   3.556  50.402  1.00  0.00     0.137 A 
HETATM    2  N3  UNL     1      24.520   3.737  49.837  1.00  0.00    -0.224 NA
HETATM    3  C5  UNL     1      23.464   2.939  50.092  1.00  0.00     0.235 A 
HETATM    4  N4  UNL     1      23.584   1.890  50.952  1.00  0.00    -0.242 NA
HETATM    5  C6  UNL     1      24.773   1.642  51.559  1.00  0.00     0.085 A 
HETATM    6  C7  UNL     1      25.819   2.486  51.265  1.00  0.00     0.040 A 
HETATM    7  C8  UNL     1      26.980   2.024  52.028  1.00  0.00     0.052 A 
HETATM    8  C9  UNL     1      26.630   0.946  52.747  1.00  0.00     0.081 A 
HETATM    9  C11 UNL     1      25.206   0.583  52.534  1.00  0.00     0.230 A 
ENDROOT
BRANCH   9  10
HETATM   10  O2  UNL     1      24.475   0.610  53.704  1.00  0.00    -0.373 OA
BRANCH  10  11
HETATM   11  C12 UNL     1      23.911  -0.636  53.960  1.00  0.00     0.171 C 
BRANCH  11  12
HETATM   12  C13 UNL     1      22.539  -0.780  53.334  1.00  0.00     0.056 C 
BRANCH  12  13
HETATM   13  C14 UNL     1      21.488  -0.654  54.411  1.00  0.00     0.274 C 
BRANCH  13  14
HETATM   14  N5  UNL     1      20.289   0.023  53.923  1.00  0.00     0.088 N 
HETATM   15  C15 UNL     1      19.401  -0.979  53.432  1.00  0.00     0.272 C 
HETATM   16  C16 UNL     1      18.337  -0.512  52.493  1.00  0.00     0.030 C 
HETATM   17  C17 UNL     1      18.994   0.277  51.374  1.00  0.00     0.003 C 
HETATM   18  C18 UNL     1      19.613   1.498  52.060  1.00  0.00     0.030 C 
HETATM   19  C19 UNL     1      20.704   0.982  52.940  1.00  0.00     0.272 C 
ENDBRANCH  13  14
ENDBRANCH  12  13
ENDBRANCH  11  12
ENDBRANCH  10  11
ENDBRANCH   9  10
BRANCH   8  20
HETATM   20  O1  UNL     1      27.372   0.139  53.633  1.00  0.00    -0.357 OA
HETATM   21  C10 UNL     1      28.641   0.676  54.034  1.00  0.00     0.209 C 
ENDBRANCH   8  20
BRANCH   1  22
HETATM   22  N2  UNL     1      26.836   4.412  50.117  1.00  0.00    -0.372 N 
HETATM   23  H9  UNL     1      27.391   4.769  50.916  1.00  0.00     0.161 HD
BRANCH  22  24
HETATM   24  C3  UNL     1      27.137   4.750  48.763  1.00  0.00     0.151 C 
BRANCH  24  25
HETATM   25  C2  UNL     1      27.204   6.245  48.527  1.00  0.00     0.288 C 
BRANCH  25  26
HETATM   26  N1  UNL     1      26.770   6.999  49.671  1.00  0.00     0.080 N 
HETATM   27  C1  UNL     1      27.154   8.409  49.531  1.00  0.00     0.306 C 
HETATM   28  H4  UNL     1      25.744   6.976  49.819  1.00  0.00     0.315 HD
ENDBRANCH  25  26
ENDBRANCH  24  25
ENDBRANCH  22  24
ENDBRANCH   1  22
TORSDOF 10
ENDMDL
MODEL 2
REMARK VINA RESULT:      -6.6      3.502      5.767
REMARK  10 active torsions:
REMARK  status: ('A' for Active; 'I' for Inactive)
REMARK    1  A    between atoms: N1_2  and  C2_3 
REMARK    2  A    between atoms: C2_3  and  C3_4 
REMARK    3  A    between atoms: C3_4  and  N2_5 
REMARK    4  A    between atoms: N2_5  and  C4_6 
REMARK    5  A    between atoms: C9_13  and  O1_14 
REMARK    6  A    between atoms: C11_16  and  O2_17 
REMARK    7  A    between atoms: O2_17  and  C12_18 
REMARK    8  A    between atoms: C12_18  and  C13_19 
REMARK    9  A    between atoms: C13_19  and  C14_20 
REMARK   10  A    between atoms: C14_20  and  N5_21 
ROOT
HETATM    1  C4  UNL     1      26.064   1.550  53.942  1.00  0.00     0.137 A 
HETATM    2  N3  UNL     1      26.173   0.309  54.477  1.00  0.00    -0.224 NA
HETATM    3  C5  UNL     1      25.206  -0.624  54.374  1.00  0.00     0.235 A 
HETATM    4  N4  UNL     1      24.049  -0.349  53.711  1.00  0.00    -0.242 NA
HETATM    5  C6  UNL     1      23.863   0.872  53.146  1.00  0.00     0.085 A 
HETATM    6  C7  UNL     1      24.881   1.789  53.280  1.00  0.00     0.040 A 
HETATM    7  C8  UNL     1      24.455   3.014  52.600  1.00  0.00     0.052 A 
HETATM    8  C9  UNL     1      23.231   2.826  52.084  1.00  0.00     0.081 A 
HETATM    9  C11 UNL     1      22.720   1.461  52.369  1.00  0.00     0.230 A 
ENDROOT
BRANCH   9  10
HETATM   10  O2  UNL     1      22.442   0.751  51.218  1.00  0.00    -0.373 OA
BRANCH  10  11
HETATM   11  C12 UNL     1      21.095   0.407  51.166  1.00  0.00     0.171 C 
BRANCH  11  12
HETATM   12  C13 UNL     1      20.426   0.912  49.903  1.00  0.00     0.056 C 
BRANCH  12  13
HETATM   13  C14 UNL     1      21.475   1.117  48.837  1.00  0.00     0.274 C 
BRANCH  13  14
HETATM   14  N5  UNL     1      21.163   2.259  47.982  1.00  0.00     0.088 N 
HETATM   15  C15 UNL     1      22.362   3.015  47.823  1.00  0.00     0.272 C 
HETATM   16  C16 UNL     1      22.191   4.433  47.381  1.00  0.00     0.030 C 
HETATM   17  C17 UNL     1      21.198   5.111  48.307  1.00  0.00     0.003 C 
HETATM   18  C18 UNL     1      19.878   4.366  48.087  1.00  0.00     0.030 C 
HETATM   19  C19 UNL     1      20.085   2.978  48.596  1.00  0.00     0.272 C 
ENDBRANCH  13  14
ENDBRANCH  12  13
ENDBRANCH  11  12
ENDBRANCH  10  11
ENDBRANCH   9  10
BRANCH   8  20
HETATM   20  O1  UNL     1      22.390   3.684  51.348  1.00  0.00    -0.357 OA
HETATM   21  C10 UNL     1      21.183   4.080  52.016  1.00  0.00     0.209 C 
ENDBRANCH   8  20
BRANCH   1  22
HETATM   22  N2  UNL     1      27.098   2.517  54.063  1.00  0.00    -0.372 N 
HETATM   23  H9  UNL     1      26.902   3.369  54.620  1.00  0.00     0.161 HD
BRANCH  22  24
HETATM   24  C3  UNL     1      28.355   2.292  53.426  1.00  0.00     0.151 C 
BRANCH  24  25
HETATM   25  C2  UNL     1      29.329   1.516  54.292  1.00  0.00     0.288 C 
BRANCH  25  26
HETATM   26  N1  UNL     1      30.092   0.562  53.535  1.00  0.00     0.080 N 
HETATM   27  C1  UNL     1      29.534  -0.786  53.702  1.00  0.00     0.306 C 
HETATM   28  H4  UNL     1      30.112   0.760  52.517  1.00  0.00     0.315 HD
ENDBRANCH  25  26
ENDBRANCH  24  25
ENDBRANCH  22  24
ENDBRANCH   1  22
TORSDOF 10
ENDMDL
MODEL 3
REMARK VINA RESULT:      -6.6      3.037      5.210
REMARK  10 active torsions:
REMARK  status: ('A' for Active; 'I' for Inactive)
REMARK    1  A    between atoms: N1_2  and  C2_3 
REMARK    2  A    between atoms: C2_3  and  C3_4 
REMARK    3  A    between atoms: C3_4  and  N2_5 
REMARK    4  A    between atoms: N2_5  and  C4_6 
REMARK    5  A    between atoms: C9_13  and  O1_14 
REMARK    6  A    between atoms: C11_16  and  O2_17 
REMARK    7  A    between atoms: O2_17  and  C12_18 
REMARK    8  A    between atoms: C12_18  and  C13_19 
REMARK    9  A    between atoms: C13_19  and  C14_20 
REMARK   10  A    between atoms: C14_20  and  N5_21 
ROOT
HETATM    1  C4  UNL     1      26.517   0.482  54.484  1.00  0.00     0.137 A 
HETATM    2  N3  UNL     1      25.837  -0.538  55.061  1.00  0.00    -0.224 NA
HETATM    3  C5  UNL     1      24.563  -0.845  54.746  1.00  0.00     0.235 A 
HETATM    4  N4  UNL     1      23.891  -0.121  53.808  1.00  0.00    -0.242 NA
HETATM    5  C6  UNL     1      24.504   0.918  53.184  1.00  0.00     0.085 A 
HETATM    6  C7  UNL     1      25.804   1.189  53.542  1.00  0.00     0.040 A 
HETATM    7  C8  UNL     1      26.245   2.337  52.746  1.00  0.00     0.052 A 
HETATM    8  C9  UNL     1      25.240   2.727  51.948  1.00  0.00     0.081 A 
HETATM    9  C11 UNL     1      24.033   1.882  52.132  1.00  0.00     0.230 A 
ENDROOT
BRANCH   9  10
HETATM   10  O2  UNL     1      23.651   1.248  50.967  1.00  0.00    -0.373 OA
BRANCH  10  11
HETATM   11  C12 UNL     1      22.633   1.954  50.334  1.00  0.00     0.171 C 
BRANCH  11  12
HETATM   12  C13 UNL     1      21.625   2.509  51.321  1.00  0.00     0.056 C 
BRANCH  12  13
HETATM   13  C14 UNL     1      20.268   1.918  51.025  1.00  0.00     0.274 C 
BRANCH  13  14
HETATM   14  N5  UNL     1      19.657   1.339  52.219  1.00  0.00     0.088 N 
HETATM   15  C15 UNL     1      20.664   1.271  53.226  1.00  0.00     0.272 C 
HETATM   16  C16 UNL     1      20.407   0.322  54.351  1.00  0.00     0.030 C 
HETATM   17  C17 UNL     1      20.078  -1.041  53.768  1.00  0.00     0.003 C 
HETATM   18  C18 UNL     1      18.775  -0.836  52.991  1.00  0.00     0.030 C 
HETATM   19  C19 UNL     1      19.100   0.070  51.849  1.00  0.00     0.272 C 
ENDBRANCH  13  14
ENDBRANCH  12  13
ENDBRANCH  11  12
ENDBRANCH  10  11
ENDBRANCH   9  10
BRANCH   8  20
HETATM   20  O1  UNL     1      25.155   3.770  51.003  1.00  0.00    -0.357 OA
HETATM   21  C10 UNL     1      26.099   3.697  49.925  1.00  0.00     0.209 C 
ENDBRANCH   8  20
BRANCH   1  22
HETATM   22  N2  UNL     1      27.861   0.785  54.834  1.00  0.00    -0.372 N 
HETATM   23  H9  UNL     1      28.055   1.714  55.249  1.00  0.00     0.161 HD
BRANCH  22  24
HETATM   24  C3  UNL     1      28.887  -0.181  54.606  1.00  0.00     0.151 C 
BRANCH  24  25
HETATM   25  C2  UNL     1      28.769  -0.863  53.257  1.00  0.00     0.288 C 
BRANCH  25  26
HETATM   26  N1  UNL     1      28.247  -2.198  53.365  1.00  0.00     0.080 N 
HETATM   27  C1  UNL     1      27.143  -2.393  52.416  1.00  0.00     0.306 C 
HETATM   28  H4  UNL     1      28.949  -2.936  53.172  1.00  0.00     0.315 HD
ENDBRANCH  25  26
ENDBRANCH  24  25
ENDBRANCH  22  24
ENDBRANCH   1  22
TORSDOF 10
ENDMDL
MODEL 4
REMARK VINA RESULT:      -6.5      2.605      6.308
REMARK  10 active torsions:
REMARK  status: ('A' for Active; 'I' for Inactive)
REMARK    1  A    between atoms: N1_2  and  C2_3 
REMARK    2  A    between atoms: C2_3  and  C3_4 
REMARK    3  A    between atoms: C3_4  and  N2_5 
REMARK    4  A    between atoms: N2_5  and  C4_6 
REMARK    5  A    between atoms: C9_13  and  O1_14 
REMARK    6  A    between atoms: C11_16  and  O2_17 
REMARK    7  A    between atoms: O2_17  and  C12_18 
REMARK    8  A    between atoms: C12_18  and  C13_19 
REMARK    9  A    between atoms: C13_19  and  C14_20 
REMARK   10  A    between atoms: C14_20  and  N5_21 
ROOT
HETATM    1  C4  UNL     1      26.347   0.181  52.752  1.00  0.00     0.137 A 
HETATM    2  N3  UNL     1      27.062   1.023  51.966  1.00  0.00    -0.224 NA
HETATM    3  C5  UNL     1      26.496   1.986  51.211  1.00  0.00     0.235 A 
HETATM    4  N4  UNL     1      25.145   2.154  51.208  1.00  0.00    -0.242 NA
HETATM    5  C6  UNL     1      24.358   1.350  51.969  1.00  0.00     0.085 A 
HETATM    6  C7  UNL     1      24.985   0.384  52.721  1.00  0.00     0.040 A 
HETATM    7  C8  UNL     1      23.944  -0.348  53.446  1.00  0.00     0.052 A 
HETATM    8  C9  UNL     1      22.747   0.169  53.132  1.00  0.00     0.081 A 
HETATM    9  C11 UNL     1      22.869   1.293  52.169  1.00  0.00     0.230 A 
ENDROOT
BRANCH   9  10
HETATM   10  O2  UNL     1      22.357   2.473  52.669  1.00  0.00    -0.373 OA
BRANCH  10  11
HETATM   11  C12 UNL     1      21.370   2.975  51.827  1.00  0.00     0.171 C 
BRANCH  11  12
HETATM   12  C13 UNL     1      21.917   3.998  50.852  1.00  0.00     0.056 C 
BRANCH  12  13
HETATM   13  C14 UNL     1      22.603   5.099  51.625  1.00  0.00     0.274 C 
BRANCH  13  14
HETATM   14  N5  UNL     1      23.944   5.367  51.112  1.00  0.00     0.088 N 
HETATM   15  C15 UNL     1      24.185   6.765  51.253  1.00  0.00     0.272 C 
HETATM   16  C16 UNL     1      25.276   7.333  50.403  1.00  0.00     0.030 C 
HETATM   17  C17 UNL     1      25.024   6.931  48.961  1.00  0.00     0.003 C 
HETATM   18  C18 UNL     1      25.137   5.404  48.950  1.00  0.00     0.030 C 
HETATM   19  C19 UNL     1      23.995   4.888  49.762  1.00  0.00     0.272 C 
ENDBRANCH  13  14
ENDBRANCH  12  13
ENDBRANCH  11  12
ENDBRANCH  10  11
ENDBRANCH   9  10
BRANCH   8  20
HETATM   20  O1  UNL     1      21.447  -0.174  53.554  1.00  0.00    -0.357 OA
HETATM   21  C10 UNL     1      21.373  -1.271  54.477  1.00  0.00     0.209 C 
ENDBRANCH   8  20
BRANCH   1  22
HETATM   22  N2  UNL     1      26.968  -0.826  53.539  1.00  0.00    -0.372 N 
HETATM   23  H9  UNL     1      26.406  -1.269  54.289  1.00  0.00     0.161 HD
BRANCH  22  24
HETATM   24  C3  UNL     1      28.323  -1.191  53.280  1.00  0.00     0.151 C 
BRANCH  24  25
HETATM   25  C2  UNL     1      29.312  -0.472  54.176  1.00  0.00     0.288 C 
BRANCH  25  26
HETATM   26  N1  UNL     1      29.781   0.756  53.595  1.00  0.00     0.080 N 
HETATM   27  C1  UNL     1      29.377   1.900  54.422  1.00  0.00     0.306 C 
HETATM   28  H4  UNL     1      30.812   0.801  53.496  1.00  0.00     0.315 HD
ENDBRANCH  25  26
ENDBRANCH  24  25
ENDBRANCH  22  24
ENDBRANCH   1  22
TORSDOF 10
ENDMDL
MODEL 5
REMARK VINA RESULT:      -6.5      3.769      5.624
REMARK  10 active torsions:
REMARK  status: ('A' for Active; 'I' for Inactive)
REMARK    1  A    between atoms: N1_2  and  C2_3 
REMARK    2  A    between atoms: C2_3  and  C3_4 
REMARK    3  A    between atoms: C3_4  and  N2_5 
REMARK    4  A    between atoms: N2_5  and  C4_6 
REMARK    5  A    between atoms: C9_13  and  O1_14 
REMARK    6  A    between atoms: C11_16  and  O2_17 
REMARK    7  A    between atoms: O2_17  and  C12_18 
REMARK    8  A    between atoms: C12_18  and  C13_19 
REMARK    9  A    between atoms: C13_19  and  C14_20 
REMARK   10  A    between atoms: C14_20  and  N5_21 
ROOT
HETATM    1  C4  UNL     1      24.784  -0.432  54.059  1.00  0.00     0.137 A 
HETATM    2  N3  UNL     1      24.281  -1.171  55.078  1.00  0.00    -0.224 NA
HETATM    3  C5  UNL     1      22.960  -1.331  55.291  1.00  0.00     0.235 A 
HETATM    4  N4  UNL     1      22.052  -0.738  54.467  1.00  0.00    -0.242 NA
HETATM    5  C6  UNL     1      22.476   0.019  53.422  1.00  0.00     0.085 A 
HETATM    6  C7  UNL     1      23.835   0.150  53.249  1.00  0.00     0.040 A 
HETATM    7  C8  UNL     1      24.045   1.001  52.075  1.00  0.00     0.052 A 
HETATM    8  C9  UNL     1      22.853   1.358  51.575  1.00  0.00     0.081 A 
HETATM    9  C11 UNL     1      21.732   0.784  52.363  1.00  0.00     0.230 A 
ENDROOT
BRANCH   9  10
HETATM   10  O2  UNL     1      20.914  -0.027  51.602  1.00  0.00    -0.373 OA
BRANCH  10  11
HETATM   11  C12 UNL     1      19.584   0.361  51.729  1.00  0.00     0.171 C 
BRANCH  11  12
HETATM   12  C13 UNL     1      18.824  -0.521  52.699  1.00  0.00     0.056 C 
BRANCH  12  13
HETATM   13  C14 UNL     1      17.409  -0.700  52.201  1.00  0.00     0.274 C 
BRANCH  13  14
HETATM   14  N5  UNL     1      16.677  -1.687  52.989  1.00  0.00     0.088 N 
HETATM   15  C15 UNL     1      17.613  -2.674  53.416  1.00  0.00     0.272 C 
HETATM   16  C16 UNL     1      17.038  -3.988  53.837  1.00  0.00     0.030 C 
HETATM   17  C17 UNL     1      16.128  -4.493  52.732  1.00  0.00     0.003 C 
HETATM   18  C18 UNL     1      14.996  -3.465  52.649  1.00  0.00     0.030 C 
HETATM   19  C19 UNL     1      15.613  -2.192  52.171  1.00  0.00     0.272 C 
ENDBRANCH  13  14
ENDBRANCH  12  13
ENDBRANCH  11  12
ENDBRANCH  10  11
ENDBRANCH   9  10
BRANCH   8  20
HETATM   20  O1  UNL     1      22.512   2.160  50.467  1.00  0.00    -0.357 OA
HETATM   21  C10 UNL     1      22.227   3.533  50.770  1.00  0.00     0.209 C 
ENDBRANCH   8  20
BRANCH   1  22
HETATM   22  N2  UNL     1      26.182  -0.280  53.856  1.00  0.00    -0.372 N 
HETATM   23  H9  UNL     1      26.636  -0.883  53.146  1.00  0.00     0.161 HD
BRANCH  22  24
HETATM   24  C3  UNL     1      26.908   0.680  54.623  1.00  0.00     0.151 C 
BRANCH  24  25
HETATM   25  C2  UNL     1      28.367   0.314  54.804  1.00  0.00     0.288 C 
BRANCH  25  26
HETATM   26  N1  UNL     1      29.234   1.454  54.685  1.00  0.00     0.080 N 
HETATM   27  C1  UNL     1      28.717   2.387  53.675  1.00  0.00     0.306 C 
HETATM   28  H4  UNL     1      29.342   1.988  55.567  1.00  0.00     0.315 HD
ENDBRANCH  25  26
ENDBRANCH  24  25
ENDBRANCH  22  24
ENDBRANCH   1  22
TORSDOF 10
ENDMDL
MODEL 6
REMARK VINA RESULT:      -6.4      3.259      5.645
REMARK  10 active torsions:
REMARK  status: ('A' for Active; 'I' for Inactive)
REMARK    1  A    between atoms: N1_2  and  C2_3 
REMARK    2  A    between atoms: C2_3  and  C3_4 
REMARK    3  A    between atoms: C3_4  and  N2_5 
REMARK    4  A    between atoms: N2_5  and  C4_6 
REMARK    5  A    between atoms: C9_13  and  O1_14 
REMARK    6  A    between atoms: C11_16  and  O2_17 
REMARK    7  A    between atoms: O2_17  and  C12_18 
REMARK    8  A    between atoms: C12_18  and  C13_19 
REMARK    9  A    between atoms: C13_19  and  C14_20 
REMARK   10  A    between atoms: C14_20  and  N5_21 
ROOT
HETATM    1  C4  UNL     1      26.217   6.525  49.220  1.00  0.00     0.137 A 
HETATM    2  N3  UNL     1      27.244   5.876  48.619  1.00  0.00    -0.224 NA
HETATM    3  C5  UNL     1      27.489   4.562  48.796  1.00  0.00     0.235 A 
HETATM    4  N4  UNL     1      26.691   3.815  49.608  1.00  0.00    -0.242 NA
HETATM    5  C6  UNL     1      25.640   4.392  50.246  1.00  0.00     0.085 A 
HETATM    6  C7  UNL     1      25.434   5.735  50.032  1.00  0.00     0.040 A 
HETATM    7  C8  UNL     1      24.261   6.126  50.817  1.00  0.00     0.052 A 
HETATM    8  C9  UNL     1      23.793   5.051  51.469  1.00  0.00     0.081 A 
HETATM    9  C11 UNL     1      24.605   3.841  51.187  1.00  0.00     0.230 A 
ENDROOT
BRANCH   9  10
HETATM   10  O2  UNL     1      23.860   2.827  50.618  1.00  0.00    -0.373 OA
BRANCH  10  11
HETATM   11  C12 UNL     1      24.081   1.624  51.281  1.00  0.00     0.171 C 
BRANCH  11  12
HETATM   12  C13 UNL     1      24.285   1.823  52.769  1.00  0.00     0.056 C 
BRANCH  12  13
HETATM   13  C14 UNL     1      25.139   0.699  53.305  1.00  0.00     0.274 C 
BRANCH  13  14
HETATM   14  N5  UNL     1      26.541   0.854  52.925  1.00  0.00     0.088 N 
HETATM   15  C15 UNL     1      27.238  -0.305  53.377  1.00  0.00     0.272 C 
HETATM   16  C16 UNL     1      28.721  -0.172  53.506  1.00  0.00     0.030 C 
HETATM   17  C17 UNL     1      29.024   1.053  54.350  1.00  0.00     0.003 C 
HETATM   18  C18 UNL     1      28.493   2.237  53.538  1.00  0.00     0.030 C 
HETATM   19  C19 UNL     1      27.008   2.086  53.489  1.00  0.00     0.272 C 
ENDBRANCH  13  14
ENDBRANCH  12  13
ENDBRANCH  11  12
ENDBRANCH  10  11
ENDBRANCH   9  10
BRANCH   8  20
HETATM   20  O1  UNL     1      22.698   4.899  52.344  1.00  0.00    -0.357 OA
HETATM   21  C10 UNL     1      21.409   4.875  51.713  1.00  0.00     0.209 C 
ENDBRANCH   8  20
BRANCH   1  22
HETATM   22  N2  UNL     1      25.979   7.911  49.018  1.00  0.00    -0.372 N 
HETATM   23  H9  UNL     1      25.339   8.186  48.251  1.00  0.00     0.161 HD
BRANCH  22  24
HETATM   24  C3  UNL     1      26.620   8.869  49.860  1.00  0.00     0.151 C 
BRANCH  24  25
HETATM   25  C2  UNL     1      27.878   9.451  49.246  1.00  0.00     0.288 C 
BRANCH  25  26
HETATM   26  N1  UNL     1      28.993   8.548  49.330  1.00  0.00     0.080 N 
HETATM   27  C1  UNL     1      30.258   9.294  49.319  1.00  0.00     0.306 C 
HETATM   28  H4  UNL     1      28.992   7.963  50.186  1.00  0.00     0.315 HD
ENDBRANCH  25  26
ENDBRANCH  24  25
ENDBRANCH  22  24
ENDBRANCH   1  22
TORSDOF 10
ENDMDL
MODEL 7
REMARK VINA RESULT:      -6.3      3.204      8.360
REMARK  10 active torsions:
REMARK  status: ('A' for Active; 'I' for Inactive)
REMARK    1  A    between atoms: N1_2  and  C2_3 
REMARK    2  A    between atoms: C2_3  and  C3_4 
REMARK    3  A    between atoms: C3_4  and  N2_5 
REMARK    4  A    between atoms: N2_5  and  C4_6 
REMARK    5  A    between atoms: C9_13  and  O1_14 
REMARK    6  A    between atoms: C11_16  and  O2_17 
REMARK    7  A    between atoms: O2_17  and  C12_18 
REMARK    8  A    between atoms: C12_18  and  C13_19 
REMARK    9  A    between atoms: C13_19  and  C14_20 
REMARK   10  A    between atoms: C14_20  and  N5_21 
ROOT
HETATM    1  C4  UNL     1      19.863  -0.006  52.587  1.00  0.00     0.137 A 
HETATM    2  N3  UNL     1      20.114  -0.368  53.869  1.00  0.00    -0.224 NA
HETATM    3  C5  UNL     1      21.309  -0.184  54.466  1.00  0.00     0.235 A 
HETATM    4  N4  UNL     1      22.339   0.389  53.784  1.00  0.00    -0.242 NA
HETATM    5  C6  UNL     1      22.167   0.779  52.494  1.00  0.00     0.085 A 
HETATM    6  C7  UNL     1      20.929   0.569  51.932  1.00  0.00     0.040 A 
HETATM    7  C8  UNL     1      20.986   1.063  50.555  1.00  0.00     0.052 A 
HETATM    8  C9  UNL     1      22.214   1.547  50.314  1.00  0.00     0.081 A 
HETATM    9  C11 UNL     1      23.095   1.423  51.503  1.00  0.00     0.230 A 
ENDROOT
BRANCH   9  10
HETATM   10  O2  UNL     1      23.568   2.645  51.938  1.00  0.00    -0.373 OA
BRANCH  10  11
HETATM   11  C12 UNL     1      24.811   2.502  52.547  1.00  0.00     0.171 C 
BRANCH  11  12
HETATM   12  C13 UNL     1      25.873   2.034  51.574  1.00  0.00     0.056 C 
BRANCH  12  13
HETATM   13  C14 UNL     1      27.224   2.107  52.244  1.00  0.00     0.274 C 
BRANCH  13  14
HETATM   14  N5  UNL     1      27.432   0.994  53.167  1.00  0.00     0.088 N 
HETATM   15  C15 UNL     1      28.782   1.062  53.622  1.00  0.00     0.272 C 
HETATM   16  C16 UNL     1      29.345  -0.195  54.200  1.00  0.00     0.030 C 
HETATM   17  C17 UNL     1      29.125  -1.324  53.208  1.00  0.00     0.003 C 
HETATM   18  C18 UNL     1      27.604  -1.469  53.103  1.00  0.00     0.030 C 
HETATM   19  C19 UNL     1      27.100  -0.214  52.469  1.00  0.00     0.272 C 
ENDBRANCH  13  14
ENDBRANCH  12  13
ENDBRANCH  11  12
ENDBRANCH  10  11
ENDBRANCH   9  10
BRANCH   8  20
HETATM   20  O1  UNL     1      22.773   2.128  49.159  1.00  0.00    -0.357 OA
HETATM   21  C10 UNL     1      22.140   1.766  47.923  1.00  0.00     0.209 C 
ENDBRANCH   8  20
BRANCH   1  22
HETATM   22  N2  UNL     1      18.594  -0.211  51.981  1.00  0.00    -0.372 N 
HETATM   23  H9  UNL     1      18.431   0.207  51.047  1.00  0.00     0.161 HD
BRANCH  22  24
HETATM   24  C3  UNL     1      17.598  -0.970  52.665  1.00  0.00     0.151 C 
BRANCH  24  25
HETATM   25  C2  UNL     1      16.208  -0.778  52.091  1.00  0.00     0.288 C 
BRANCH  25  26
HETATM   26  N1  UNL     1      15.205  -0.675  53.115  1.00  0.00     0.080 N 
HETATM   27  C1  UNL     1      14.516   0.619  53.028  1.00  0.00     0.306 C 
HETATM   28  H4  UNL     1      14.477  -1.412  53.060  1.00  0.00     0.315 HD
ENDBRANCH  25  26
ENDBRANCH  24  25
ENDBRANCH  22  24
ENDBRANCH   1  22
TORSDOF 10
ENDMDL
MODEL 8
REMARK VINA RESULT:      -6.2      2.320      3.812
REMARK  10 active torsions:
REMARK  status: ('A' for Active; 'I' for Inactive)
REMARK    1  A    between atoms: N1_2  and  C2_3 
REMARK    2  A    between atoms: C2_3  and  C3_4 
REMARK    3  A    between atoms: C3_4  and  N2_5 
REMARK    4  A    between atoms: N2_5  and  C4_6 
REMARK    5  A    between atoms: C9_13  and  O1_14 
REMARK    6  A    between atoms: C11_16  and  O2_17 
REMARK    7  A    between atoms: O2_17  and  C12_18 
REMARK    8  A    between atoms: C12_18  and  C13_19 
REMARK    9  A    between atoms: C13_19  and  C14_20 
REMARK   10  A    between atoms: C14_20  and  N5_21 
ROOT
HETATM    1  C4  UNL     1      27.015   6.159  48.563  1.00  0.00     0.137 A 
HETATM    2  N3  UNL     1      26.296   7.131  47.949  1.00  0.00    -0.224 NA
HETATM    3  C5  UNL     1      24.949   7.137  47.911  1.00  0.00     0.235 A 
HETATM    4  N4  UNL     1      24.238   6.139  48.503  1.00  0.00    -0.242 NA
HETATM    5  C6  UNL     1      24.885   5.128  49.139  1.00  0.00     0.085 A 
HETATM    6  C7  UNL     1      26.260   5.169  49.150  1.00  0.00     0.040 A 
HETATM    7  C8  UNL     1      26.725   3.990  49.883  1.00  0.00     0.052 A 
HETATM    8  C9  UNL     1      25.662   3.280  50.290  1.00  0.00     0.081 A 
HETATM    9  C11 UNL     1      24.386   3.912  49.869  1.00  0.00     0.230 A 
ENDROOT
BRANCH   9  10
HETATM   10  O2  UNL     1      23.578   4.234  50.942  1.00  0.00    -0.373 OA
BRANCH  10  11
HETATM   11  C12 UNL     1      22.343   3.603  50.832  1.00  0.00     0.171 C 
BRANCH  11  12
HETATM   12  C13 UNL     1      22.197   2.460  51.816  1.00  0.00     0.056 C 
BRANCH  12  13
HETATM   13  C14 UNL     1      22.138   1.158  51.055  1.00  0.00     0.274 C 
BRANCH  13  14
HETATM   14  N5  UNL     1      21.820   0.032  51.929  1.00  0.00     0.088 N 
HETATM   15  C15 UNL     1      20.533   0.277  52.492  1.00  0.00     0.272 C 
HETATM   16  C16 UNL     1      20.203  -0.486  53.734  1.00  0.00     0.030 C 
HETATM   17  C17 UNL     1      21.322  -0.282  54.739  1.00  0.00     0.003 C 
HETATM   18  C18 UNL     1      22.558  -0.912  54.089  1.00  0.00     0.030 C 
HETATM   19  C19 UNL     1      22.878  -0.081  52.891  1.00  0.00     0.272 C 
ENDBRANCH  13  14
ENDBRANCH  12  13
ENDBRANCH  11  12
ENDBRANCH  10  11
ENDBRANCH   9  10
BRANCH   8  20
HETATM   20  O1  UNL     1      25.572   2.079  51.022  1.00  0.00    -0.357 OA
HETATM   21  C10 UNL     1      26.546   1.922  52.064  1.00  0.00     0.209 C 
ENDBRANCH   8  20
BRANCH   1  22
HETATM   22  N2  UNL     1      28.436   6.176  48.590  1.00  0.00    -0.372 N 
HETATM   23  H9  UNL     1      28.914   5.573  49.284  1.00  0.00     0.161 HD
BRANCH  22  24
HETATM   24  C3  UNL     1      29.151   7.008  47.677  1.00  0.00     0.151 C 
BRANCH  24  25
HETATM   25  C2  UNL     1      29.939   8.104  48.367  1.00  0.00     0.288 C 
BRANCH  25  26
HETATM   26  N1  UNL     1      30.676   7.615  49.500  1.00  0.00     0.080 N 
HETATM   27  C1  UNL     1      32.067   8.082  49.445  1.00  0.00     0.306 C 
HETATM   28  H4  UNL     1      30.288   7.921  50.411  1.00  0.00     0.315 HD
ENDBRANCH  25  26
ENDBRANCH  24  25
ENDBRANCH  22  24
ENDBRANCH   1  22
TORSDOF 10
ENDMDL
MODEL 9
REMARK VINA RESULT:      -6.1      3.219      4.881
REMARK  10 active torsions:
REMARK  status: ('A' for Active; 'I' for Inactive)
REMARK    1  A    between atoms: N1_2  and  C2_3 
REMARK    2  A    between atoms: C2_3  and  C3_4 
REMARK    3  A    between atoms: C3_4  and  N2_5 
REMARK    4  A    between atoms: N2_5  and  C4_6 
REMARK    5  A    between atoms: C9_13  and  O1_14 
REMARK    6  A    between atoms: C11_16  and  O2_17 
REMARK    7  A    between atoms: O2_17  and  C12_18 
REMARK    8  A    between atoms: C12_18  and  C13_19 
REMARK    9  A    between atoms: C13_19  and  C14_20 
REMARK   10  A    between atoms: C14_20  and  N5_21 
ROOT
HETATM    1  C4  UNL     1      26.011   1.550  53.816  1.00  0.00     0.137 A 
HETATM    2  N3  UNL     1      26.031   0.254  54.213  1.00  0.00    -0.224 NA
HETATM    3  C5  UNL     1      25.061  -0.628  53.898  1.00  0.00     0.235 A 
HETATM    4  N4  UNL     1      23.993  -0.240  53.148  1.00  0.00    -0.242 NA
HETATM    5  C6  UNL     1      23.899   1.043  52.711  1.00  0.00     0.085 A 
HETATM    6  C7  UNL     1      24.915   1.903  53.060  1.00  0.00     0.040 A 
HETATM    7  C8  UNL     1      24.596   3.211  52.484  1.00  0.00     0.052 A 
HETATM    8  C9  UNL     1      23.434   3.125  51.819  1.00  0.00     0.081 A 
HETATM    9  C11 UNL     1      22.863   1.755  51.887  1.00  0.00     0.230 A 
ENDROOT
BRANCH   9  10
HETATM   10  O2  UNL     1      22.702   1.189  50.638  1.00  0.00    -0.373 OA
BRANCH  10  11
HETATM   11  C12 UNL     1      21.361   0.904  50.398  1.00  0.00     0.171 C 
BRANCH  11  12
HETATM   12  C13 UNL     1      20.493   1.184  51.608  1.00  0.00     0.056 C 
BRANCH  12  13
HETATM   13  C14 UNL     1      19.743  -0.072  51.980  1.00  0.00     0.274 C 
BRANCH  13  14
HETATM   14  N5  UNL     1      18.308   0.171  52.110  1.00  0.00     0.088 N 
HETATM   15  C15 UNL     1      17.725  -0.999  52.679  1.00  0.00     0.272 C 
HETATM   16  C16 UNL     1      16.252  -1.158  52.489  1.00  0.00     0.030 C 
HETATM   17  C17 UNL     1      15.937  -1.014  51.011  1.00  0.00     0.003 C 
HETATM   18  C18 UNL     1      16.324   0.425  50.661  1.00  0.00     0.030 C 
HETATM   19  C19 UNL     1      17.808   0.513  50.811  1.00  0.00     0.272 C 
ENDBRANCH  13  14
ENDBRANCH  12  13
ENDBRANCH  11  12
ENDBRANCH  10  11
ENDBRANCH   9  10
BRANCH   8  20
HETATM   20  O1  UNL     1      22.701   4.089  51.099  1.00  0.00    -0.357 OA
HETATM   21  C10 UNL     1      23.215   5.427  51.171  1.00  0.00     0.209 C 
ENDBRANCH   8  20
BRANCH   1  22
HETATM   22  N2  UNL     1      27.046   2.460  54.161  1.00  0.00    -0.372 N 
HETATM   23  H9  UNL     1      26.854   3.151  54.909  1.00  0.00     0.161 HD
BRANCH  22  24
HETATM   24  C3  UNL     1      28.298   2.400  53.477  1.00  0.00     0.151 C 
BRANCH  24  25
HETATM   25  C2  UNL     1      29.356   1.633  54.245  1.00  0.00     0.288 C 
BRANCH  25  26
HETATM   26  N1  UNL     1      29.966   0.602  53.452  1.00  0.00     0.080 N 
HETATM   27  C1  UNL     1      29.505  -0.721  53.891  1.00  0.00     0.306 C 
HETATM   28  H4  UNL     1      29.756   0.677  52.439  1.00  0.00     0.315 HD
ENDBRANCH  25  26
ENDBRANCH  24  25
ENDBRANCH  22  24
ENDBRANCH   1  22
TORSDOF 10
ENDMDL
