MODEL 1
REMARK VINA RESULT:      -7.6      0.000      0.000
REMARK  4 active torsions:
REMARK  status: ('A' for Active; 'I' for Inactive)
REMARK    1  A    between atoms: N1_1  and  C1_2 
REMARK    2  A    between atoms: C10_15  and  C11_16 
REMARK    3  A    between atoms: C11_16  and  C12_17 
REMARK    4  A    between atoms: C13_18  and  C14_19 
ROOT
HETATM    1  C1  UNL     1      23.321   5.768  51.634  1.00  0.00     0.112 C 
HETATM    2  N2  UNL     1      22.297   5.167  52.103  1.00  0.00    -0.256 NA
HETATM    3  C2  UNL     1      21.455   4.299  51.368  1.00  0.00     0.272 C 
HETATM    4  N3  UNL     1      21.605   2.913  51.880  1.00  0.00    -0.372 N 
HETATM    5  C3  UNL     1      22.953   2.609  52.151  1.00  0.00     0.024 A 
HETATM    6  C4  UNL     1      23.212   2.729  50.813  1.00  0.00     0.012 A 
HETATM    7  C5  UNL     1      24.519   2.585  51.149  1.00  0.00     0.081 A 
HETATM    8  C6  UNL     1      25.878   2.433  51.534  1.00  0.00     0.130 A 
HETATM    9  C7  UNL     1      25.271   2.339  52.692  1.00  0.00     0.102 A 
HETATM   10 CL1  UNL     1      26.347   2.054  54.001  1.00  0.00    -0.110 Cl
HETATM   11  C8  UNL     1      23.979   2.399  53.115  1.00  0.00     0.031 A 
HETATM   12  O1  UNL     1      26.919   2.478  50.555  1.00  0.00    -0.368 OA
HETATM   13  C9  UNL     1      26.643   3.147  49.326  1.00  0.00     0.221 C 
HETATM   14  C10 UNL     1      26.304   4.594  49.438  1.00  0.00     0.015 C 
HETATM   15  N4  UNL     1      25.185   5.160  50.190  1.00  0.00    -0.387 N 
HETATM   16  C15 UNL     1      23.881   5.766  50.212  1.00  0.00     0.197 C 
HETATM   17  H5  UNL     1      20.773   2.242  52.000  1.00  0.00     0.161 HD
HETATM   18  H16 UNL     1      25.683   5.058  51.104  1.00  0.00     0.159 HD
ENDROOT
BRANCH  14  19
HETATM   19  C11 UNL     1      27.244   5.347  48.684  1.00  0.00     0.069 C 
BRANCH  19  20
HETATM   20  C12 UNL     1      28.197   6.222  48.204  1.00  0.00    -0.017 C 
HETATM   21  C13 UNL     1      29.282   5.433  48.217  1.00  0.00     0.001 C 
BRANCH  21  22
HETATM   22  C14 UNL     1      30.782   5.493  47.883  1.00  0.00     0.249 C 
HETATM   23  F1  UNL     1      31.046   4.211  47.338  1.00  0.00    -0.251 F 
ENDBRANCH  21  22
ENDBRANCH  19  20
ENDBRANCH  14  19
BRANCH   1  24
HETATM   24  N1  UNL     1      24.207   6.637  52.279  1.00  0.00    -0.386 N 
HETATM   25  H1  UNL     1      24.196   7.444  52.969  1.00  0.00     0.157 HD
HETATM   26  H2  UNL     1      24.862   7.261  52.743  1.00  0.00     0.157 HD
ENDBRANCH   1  24
TORSDOF 4
ENDMDL
MODEL 2
REMARK VINA RESULT:      -7.3      1.311      1.465
REMARK  4 active torsions:
REMARK  status: ('A' for Active; 'I' for Inactive)
REMARK    1  A    between atoms: N1_1  and  C1_2 
REMARK    2  A    between atoms: C10_15  and  C11_16 
REMARK    3  A    between atoms: C11_16  and  C12_17 
REMARK    4  A    between atoms: C13_18  and  C14_19 
ROOT
HETATM    1  C1  UNL     1      23.388   5.736  51.633  1.00  0.00     0.112 C 
HETATM    2  N2  UNL     1      22.331   5.172  52.076  1.00  0.00    -0.256 NA
HETATM    3  C2  UNL     1      21.475   4.339  51.318  1.00  0.00     0.272 C 
HETATM    4  N3  UNL     1      21.560   2.947  51.827  1.00  0.00    -0.372 N 
HETATM    5  C3  UNL     1      22.890   2.591  52.127  1.00  0.00     0.024 A 
HETATM    6  C4  UNL     1      23.183   2.706  50.796  1.00  0.00     0.012 A 
HETATM    7  C5  UNL     1      24.476   2.512  51.161  1.00  0.00     0.081 A 
HETATM    8  C6  UNL     1      25.819   2.307  51.576  1.00  0.00     0.130 A 
HETATM    9  C7  UNL     1      25.183   2.231  52.719  1.00  0.00     0.102 A 
HETATM   10 CL1  UNL     1      26.217   1.901  54.051  1.00  0.00    -0.110 Cl
HETATM   11  C8  UNL     1      23.884   2.338  53.113  1.00  0.00     0.031 A 
HETATM   12  O1  UNL     1      26.883   2.316  50.621  1.00  0.00    -0.368 OA
HETATM   13  C9  UNL     1      26.661   2.999  49.389  1.00  0.00     0.221 C 
HETATM   14  C10 UNL     1      26.374   4.458  49.499  1.00  0.00     0.015 C 
HETATM   15  N4  UNL     1      25.260   5.063  50.229  1.00  0.00    -0.387 N 
HETATM   16  C15 UNL     1      23.980   5.718  50.224  1.00  0.00     0.197 C 
HETATM   17  H5  UNL     1      20.701   2.307  51.925  1.00  0.00     0.161 HD
HETATM   18  H16 UNL     1      25.733   4.939  51.153  1.00  0.00     0.159 HD
ENDROOT
BRANCH  14  19
HETATM   19  C11 UNL     1      27.358   5.177  48.770  1.00  0.00     0.069 C 
BRANCH  19  20
HETATM   20  C12 UNL     1      28.504   5.728  48.232  1.00  0.00    -0.017 C 
HETATM   21  C13 UNL     1      28.283   7.030  48.466  1.00  0.00     0.001 C 
BRANCH  21  22
HETATM   22  C14 UNL     1      28.954   8.394  48.238  1.00  0.00     0.249 C 
HETATM   23  F1  UNL     1      29.057   8.930  49.546  1.00  0.00    -0.251 F 
ENDBRANCH  21  22
ENDBRANCH  19  20
ENDBRANCH  14  19
BRANCH   1  24
HETATM   24  N1  UNL     1      24.291   6.568  52.302  1.00  0.00    -0.386 N 
HETATM   25  H1  UNL     1      25.311   6.588  52.598  1.00  0.00     0.157 HD
HETATM   26  H2  UNL     1      24.939   7.182  52.789  1.00  0.00     0.157 HD
ENDBRANCH   1  24
TORSDOF 4
ENDMDL
MODEL 3
REMARK VINA RESULT:      -7.3      4.083      5.234
REMARK  4 active torsions:
REMARK  status: ('A' for Active; 'I' for Inactive)
REMARK    1  A    between atoms: N1_1  and  C1_2 
REMARK    2  A    between atoms: C10_15  and  C11_16 
REMARK    3  A    between atoms: C11_16  and  C12_17 
REMARK    4  A    between atoms: C13_18  and  C14_19 
ROOT
HETATM    1  C1  UNL     1      23.779   3.918  52.146  1.00  0.00     0.112 C 
HETATM    2  N2  UNL     1      22.818   4.082  51.321  1.00  0.00    -0.256 NA
HETATM    3  C2  UNL     1      22.718   3.459  50.054  1.00  0.00     0.272 C 
HETATM    4  N3  UNL     1      21.590   2.494  50.063  1.00  0.00    -0.372 N 
HETATM    5  C3  UNL     1      21.547   1.766  51.268  1.00  0.00     0.024 A 
HETATM    6  C4  UNL     1      22.746   1.203  50.928  1.00  0.00     0.012 A 
HETATM    7  C5  UNL     1      22.728   0.647  52.167  1.00  0.00     0.081 A 
HETATM    8  C6  UNL     1      22.680   0.082  53.469  1.00  0.00     0.130 A 
HETATM    9  C7  UNL     1      21.551   0.747  53.436  1.00  0.00     0.102 A 
HETATM   10 CL1  UNL     1      20.621   0.578  54.871  1.00  0.00    -0.110 Cl
HETATM   11  C8  UNL     1      20.920   1.538  52.525  1.00  0.00     0.031 A 
HETATM   12  O1  UNL     1      23.748  -0.741  53.943  1.00  0.00    -0.368 OA
HETATM   13  C9  UNL     1      25.027  -0.585  53.329  1.00  0.00     0.221 C 
HETATM   14  C10 UNL     1      25.643   0.767  53.448  1.00  0.00     0.015 C 
HETATM   15  N4  UNL     1      25.070   2.020  52.960  1.00  0.00    -0.387 N 
HETATM   16  C15 UNL     1      25.055   3.089  51.998  1.00  0.00     0.197 C 
HETATM   17  H5  UNL     1      20.918   2.375  49.232  1.00  0.00     0.161 HD
HETATM   18  H16 UNL     1      24.409   2.091  53.767  1.00  0.00     0.159 HD
ENDROOT
BRANCH  14  19
HETATM   19  C11 UNL     1      26.893   0.646  54.112  1.00  0.00     0.069 C 
BRANCH  19  20
HETATM   20  C12 UNL     1      28.043   0.241  54.758  1.00  0.00    -0.017 C 
HETATM   21  C13 UNL     1      28.641  -0.456  53.780  1.00  0.00     0.001 C 
BRANCH  21  22
HETATM   22  C14 UNL     1      29.920  -1.273  53.534  1.00  0.00     0.249 C 
HETATM   23  F1  UNL     1      29.450  -2.610  53.485  1.00  0.00    -0.251 F 
ENDBRANCH  21  22
ENDBRANCH  19  20
ENDBRANCH  14  19
BRANCH   1  24
HETATM   24  N1  UNL     1      23.962   4.483  53.412  1.00  0.00    -0.386 N 
HETATM   25  H1  UNL     1      23.910   5.428  53.895  1.00  0.00     0.157 HD
HETATM   26  H2  UNL     1      24.097   4.883  54.338  1.00  0.00     0.157 HD
ENDBRANCH   1  24
TORSDOF 4
ENDMDL
MODEL 4
REMARK VINA RESULT:      -6.7      3.210      4.307
REMARK  4 active torsions:
REMARK  status: ('A' for Active; 'I' for Inactive)
REMARK    1  A    between atoms: N1_1  and  C1_2 
REMARK    2  A    between atoms: C10_15  and  C11_16 
REMARK    3  A    between atoms: C11_16  and  C12_17 
REMARK    4  A    between atoms: C13_18  and  C14_19 
ROOT
HETATM    1  C1  UNL     1      24.018   5.526  50.642  1.00  0.00     0.112 C 
HETATM    2  N2  UNL     1      23.091   5.710  49.783  1.00  0.00    -0.256 NA
HETATM    3  C2  UNL     1      23.068   5.157  48.480  1.00  0.00     0.272 C 
HETATM    4  N3  UNL     1      21.967   4.165  48.383  1.00  0.00    -0.372 N 
HETATM    5  C3  UNL     1      21.889   3.370  49.544  1.00  0.00     0.024 A 
HETATM    6  C4  UNL     1      23.118   2.857  49.231  1.00  0.00     0.012 A 
HETATM    7  C5  UNL     1      23.058   2.233  50.436  1.00  0.00     0.081 A 
HETATM    8  C6  UNL     1      22.966   1.596  51.701  1.00  0.00     0.130 A 
HETATM    9  C7  UNL     1      21.821   2.233  51.651  1.00  0.00     0.102 A 
HETATM   10 CL1  UNL     1      20.831   1.961  53.028  1.00  0.00    -0.110 Cl
HETATM   11  C8  UNL     1      21.212   3.057  50.755  1.00  0.00     0.031 A 
HETATM   12  O1  UNL     1      24.034   0.775  52.180  1.00  0.00    -0.368 OA
HETATM   13  C9  UNL     1      25.334   0.996  51.637  1.00  0.00     0.221 C 
HETATM   14  C10 UNL     1      25.906   2.355  51.859  1.00  0.00     0.015 C 
HETATM   15  N4  UNL     1      25.322   3.618  51.412  1.00  0.00    -0.387 N 
HETATM   16  C15 UNL     1      25.321   4.739  50.511  1.00  0.00     0.197 C 
HETATM   17  H5  UNL     1      21.338   4.075  47.516  1.00  0.00     0.161 HD
HETATM   18  H16 UNL     1      24.623   3.628  52.190  1.00  0.00     0.159 HD
ENDROOT
BRANCH  14  19
HETATM   19  C11 UNL     1      27.127   2.229  52.573  1.00  0.00     0.069 C 
BRANCH  19  20
HETATM   20  C12 UNL     1      28.157   2.212  53.493  1.00  0.00    -0.017 C 
HETATM   21  C13 UNL     1      28.406   0.895  53.557  1.00  0.00     0.001 C 
BRANCH  21  22
HETATM   22  C14 UNL     1      29.338  -0.090  54.282  1.00  0.00     0.249 C 
HETATM   23  F1  UNL     1      30.519  -0.059  53.498  1.00  0.00    -0.251 F 
ENDBRANCH  21  22
ENDBRANCH  19  20
ENDBRANCH  14  19
BRANCH   1  24
HETATM   24  N1  UNL     1      24.126   6.024  51.944  1.00  0.00    -0.386 N 
HETATM   25  H1  UNL     1      23.772   5.820  52.924  1.00  0.00     0.157 HD
HETATM   26  H2  UNL     1      24.214   6.395  52.887  1.00  0.00     0.157 HD
ENDBRANCH   1  24
TORSDOF 4
ENDMDL
MODEL 5
REMARK VINA RESULT:      -6.7      4.926      8.779
REMARK  4 active torsions:
REMARK  status: ('A' for Active; 'I' for Inactive)
REMARK    1  A    between atoms: N1_1  and  C1_2 
REMARK    2  A    between atoms: C10_15  and  C11_16 
REMARK    3  A    between atoms: C11_16  and  C12_17 
REMARK    4  A    between atoms: C13_18  and  C14_19 
ROOT
HETATM    1  C1  UNL     1      32.161   5.870  48.955  1.00  0.00     0.112 C 
HETATM    2  N2  UNL     1      33.245   6.276  48.416  1.00  0.00    -0.256 NA
HETATM    3  C2  UNL     1      33.524   6.249  47.029  1.00  0.00     0.272 C 
HETATM    4  N3  UNL     1      33.593   7.638  46.510  1.00  0.00    -0.372 N 
HETATM    5  C3  UNL     1      32.578   8.444  47.061  1.00  0.00     0.024 A 
HETATM    6  C4  UNL     1      31.658   7.663  46.414  1.00  0.00     0.012 A 
HETATM    7  C5  UNL     1      30.720   8.372  47.093  1.00  0.00     0.081 A 
HETATM    8  C6  UNL     1      29.764   9.131  47.819  1.00  0.00     0.130 A 
HETATM    9  C7  UNL     1      30.884   9.679  48.220  1.00  0.00     0.102 A 
HETATM   10 CL1  UNL     1      30.648  10.982  49.315  1.00  0.00    -0.110 Cl
HETATM   11  C8  UNL     1      32.206   9.476  47.967  1.00  0.00     0.031 A 
HETATM   12  O1  UNL     1      28.367   8.857  47.684  1.00  0.00    -0.368 OA
HETATM   13  C9  UNL     1      27.987   7.558  47.233  1.00  0.00     0.221 C 
HETATM   14  C10 UNL     1      28.410   6.422  48.100  1.00  0.00     0.015 C 
HETATM   15  N4  UNL     1      29.786   6.079  48.458  1.00  0.00    -0.387 N 
HETATM   16  C15 UNL     1      30.935   5.228  48.306  1.00  0.00     0.197 C 
HETATM   17  H5  UNL     1      34.326   7.956  45.790  1.00  0.00     0.161 HD
HETATM   18  H16 UNL     1      29.842   6.837  49.176  1.00  0.00     0.159 HD
ENDROOT
BRANCH  14  19
HETATM   19  C11 UNL     1      27.256   5.711  48.524  1.00  0.00     0.069 C 
BRANCH  19  20
HETATM   20  C12 UNL     1      26.163   5.181  49.180  1.00  0.00    -0.017 C 
HETATM   21  C13 UNL     1      26.690   4.039  49.647  1.00  0.00     0.001 C 
BRANCH  21  22
HETATM   22  C14 UNL     1      26.277   2.804  50.466  1.00  0.00     0.249 C 
HETATM   23  F1  UNL     1      27.194   2.808  51.547  1.00  0.00    -0.251 F 
ENDBRANCH  21  22
ENDBRANCH  19  20
ENDBRANCH  14  19
BRANCH   1  24
HETATM   24  N1  UNL     1      31.796   5.859  50.305  1.00  0.00    -0.386 N 
HETATM   25  H1  UNL     1      31.178   6.394  50.984  1.00  0.00     0.157 HD
HETATM   26  H2  UNL     1      31.538   5.840  51.288  1.00  0.00     0.157 HD
ENDBRANCH   1  24
TORSDOF 4
ENDMDL
MODEL 6
REMARK VINA RESULT:      -6.6      4.732      7.140
REMARK  4 active torsions:
REMARK  status: ('A' for Active; 'I' for Inactive)
REMARK    1  A    between atoms: N1_1  and  C1_2 
REMARK    2  A    between atoms: C10_15  and  C11_16 
REMARK    3  A    between atoms: C11_16  and  C12_17 
REMARK    4  A    between atoms: C13_18  and  C14_19 
ROOT
HETATM    1  C1  UNL     1      26.922   2.550  51.821  1.00  0.00     0.112 C 
HETATM    2  N2  UNL     1      28.058   2.448  52.395  1.00  0.00    -0.256 NA
HETATM    3  C2  UNL     1      28.294   2.658  53.775  1.00  0.00     0.272 C 
HETATM    4  N3  UNL     1      28.663   1.371  54.416  1.00  0.00    -0.372 N 
HETATM    5  C3  UNL     1      27.867   0.312  53.938  1.00  0.00     0.024 A 
HETATM    6  C4  UNL     1      26.782   0.918  54.512  1.00  0.00     0.012 A 
HETATM    7  C5  UNL     1      26.042  -0.041  53.898  1.00  0.00     0.081 A 
HETATM    8  C6  UNL     1      25.296  -1.057  53.243  1.00  0.00     0.130 A 
HETATM    9  C7  UNL     1      26.520  -1.371  52.893  1.00  0.00     0.102 A 
HETATM   10 CL1  UNL     1      26.606  -2.784  51.919  1.00  0.00    -0.110 Cl
HETATM   11  C8  UNL     1      27.757  -0.852  53.128  1.00  0.00     0.031 A 
HETATM   12  O1  UNL     1      23.872  -1.095  53.352  1.00  0.00    -0.368 OA
HETATM   13  C9  UNL     1      23.200   0.118  53.684  1.00  0.00     0.221 C 
HETATM   14  C10 UNL     1      23.374   1.241  52.719  1.00  0.00     0.015 C 
HETATM   15  N4  UNL     1      24.645   1.854  52.333  1.00  0.00    -0.387 N 
HETATM   16  C15 UNL     1      25.570   2.952  52.409  1.00  0.00     0.197 C 
HETATM   17  H5  UNL     1      29.434   1.291  55.162  1.00  0.00     0.161 HD
HETATM   18  H16 UNL     1      24.885   1.068  51.685  1.00  0.00     0.159 HD
ENDROOT
BRANCH  14  19
HETATM   19  C11 UNL     1      22.099   1.633  52.233  1.00  0.00     0.069 C 
BRANCH  19  20
HETATM   20  C12 UNL     1      21.001   2.043  51.503  1.00  0.00    -0.017 C 
HETATM   21  C13 UNL     1      20.249   0.932  51.549  1.00  0.00     0.001 C 
BRANCH  21  22
HETATM   22  C14 UNL     1      18.894   0.410  51.042  1.00  0.00     0.249 C 
HETATM   23  F1  UNL     1      18.628  -0.688  51.897  1.00  0.00    -0.251 F 
ENDBRANCH  21  22
ENDBRANCH  19  20
ENDBRANCH  14  19
BRANCH   1  24
HETATM   24  N1  UNL     1      26.593   2.360  50.475  1.00  0.00    -0.386 N 
HETATM   25  H1  UNL     1      26.285   1.587  49.816  1.00  0.00     0.157 HD
HETATM   26  H2  UNL     1      26.354   2.235  49.495  1.00  0.00     0.157 HD
ENDBRANCH   1  24
TORSDOF 4
ENDMDL
MODEL 7
REMARK VINA RESULT:      -6.3      4.988      7.794
REMARK  4 active torsions:
REMARK  status: ('A' for Active; 'I' for Inactive)
REMARK    1  A    between atoms: N1_1  and  C1_2 
REMARK    2  A    between atoms: C10_15  and  C11_16 
REMARK    3  A    between atoms: C11_16  and  C12_17 
REMARK    4  A    between atoms: C13_18  and  C14_19 
ROOT
HETATM    1  C1  UNL     1      22.479   2.846  49.589  1.00  0.00     0.112 C 
HETATM    2  N2  UNL     1      23.413   3.712  49.676  1.00  0.00    -0.256 NA
HETATM    3  C2  UNL     1      23.416   4.822  50.554  1.00  0.00     0.272 C 
HETATM    4  N3  UNL     1      24.474   4.639  51.579  1.00  0.00    -0.372 N 
HETATM    5  C3  UNL     1      24.518   3.310  52.042  1.00  0.00     0.024 A 
HETATM    6  C4  UNL     1      23.269   3.491  52.570  1.00  0.00     0.012 A 
HETATM    7  C5  UNL     1      23.300   2.164  52.855  1.00  0.00     0.081 A 
HETATM    8  C6  UNL     1      23.364   0.774  53.138  1.00  0.00     0.130 A 
HETATM    9  C7  UNL     1      24.534   0.976  52.584  1.00  0.00     0.102 A 
HETATM   10 CL1  UNL     1      25.510  -0.437  52.521  1.00  0.00    -0.110 Cl
HETATM   11  C8  UNL     1      25.179   2.050  52.050  1.00  0.00     0.031 A 
HETATM   12  O1  UNL     1      22.262   0.109  53.760  1.00  0.00    -0.368 OA
HETATM   13  C9  UNL     1      20.973   0.708  53.639  1.00  0.00     0.221 C 
HETATM   14  C10 UNL     1      20.457   0.859  52.248  1.00  0.00     0.015 C 
HETATM   15  N4  UNL     1      21.095   1.617  51.172  1.00  0.00    -0.387 N 
HETATM   16  C15 UNL     1      21.144   2.782  50.331  1.00  0.00     0.197 C 
HETATM   17  H5  UNL     1      25.101   5.445  51.920  1.00  0.00     0.161 HD
HETATM   18  H16 UNL     1      21.793   0.860  50.985  1.00  0.00     0.159 HD
ENDROOT
BRANCH  14  19
HETATM   19  C11 UNL     1      19.231   0.153  52.132  1.00  0.00     0.069 C 
BRANCH  19  20
HETATM   20  C12 UNL     1      18.014  -0.475  52.307  1.00  0.00    -0.017 C 
HETATM   21  C13 UNL     1      18.382  -1.513  53.074  1.00  0.00     0.001 C 
BRANCH  21  22
HETATM   22  C14 UNL     1      17.764  -2.742  53.762  1.00  0.00     0.249 C 
HETATM   23  F1  UNL     1      16.592  -2.986  53.003  1.00  0.00    -0.251 F 
ENDBRANCH  21  22
ENDBRANCH  19  20
ENDBRANCH  14  19
BRANCH   1  24
HETATM   24  N1  UNL     1      22.389   1.723  48.761  1.00  0.00    -0.386 N 
HETATM   25  H1  UNL     1      21.669   1.023  48.417  1.00  0.00     0.157 HD
HETATM   26  H2  UNL     1      22.336   0.909  48.154  1.00  0.00     0.157 HD
ENDBRANCH   1  24
TORSDOF 4
ENDMDL
MODEL 8
REMARK VINA RESULT:      -6.2      9.047     10.427
REMARK  4 active torsions:
REMARK  status: ('A' for Active; 'I' for Inactive)
REMARK    1  A    between atoms: N1_1  and  C1_2 
REMARK    2  A    between atoms: C10_15  and  C11_16 
REMARK    3  A    between atoms: C11_16  and  C12_17 
REMARK    4  A    between atoms: C13_18  and  C14_19 
ROOT
HETATM    1  C1  UNL     1      34.828   5.485  48.317  1.00  0.00     0.112 C 
HETATM    2  N2  UNL     1      35.137   4.333  47.863  1.00  0.00    -0.256 NA
HETATM    3  C2  UNL     1      34.263   3.222  47.797  1.00  0.00     0.272 C 
HETATM    4  N3  UNL     1      33.969   2.906  46.376  1.00  0.00    -0.372 N 
HETATM    5  C3  UNL     1      33.762   4.078  45.622  1.00  0.00     0.024 A 
HETATM    6  C4  UNL     1      32.643   4.319  46.372  1.00  0.00     0.012 A 
HETATM    7  C5  UNL     1      32.579   5.509  45.721  1.00  0.00     0.081 A 
HETATM    8  C6  UNL     1      32.541   6.745  45.023  1.00  0.00     0.130 A 
HETATM    9  C7  UNL     1      33.594   6.180  44.486  1.00  0.00     0.102 A 
HETATM   10 CL1  UNL     1      34.326   7.135  43.260  1.00  0.00    -0.110 Cl
HETATM   11  C8  UNL     1      34.251   5.000  44.655  1.00  0.00     0.031 A 
HETATM   12  O1  UNL     1      31.521   7.707  45.306  1.00  0.00    -0.368 OA
HETATM   13  C9  UNL     1      30.880   7.637  46.579  1.00  0.00     0.221 C 
HETATM   14  C10 UNL     1      31.769   7.817  47.762  1.00  0.00     0.015 C 
HETATM   15  N4  UNL     1      32.919   6.983  48.109  1.00  0.00    -0.387 N 
HETATM   16  C15 UNL     1      33.514   5.966  48.933  1.00  0.00     0.197 C 
HETATM   17  H5  UNL     1      33.909   1.899  46.003  1.00  0.00     0.161 HD
HETATM   18  H16 UNL     1      33.531   7.444  47.398  1.00  0.00     0.159 HD
ENDROOT
BRANCH  14  19
HETATM   19  C11 UNL     1      31.313   8.932  48.515  1.00  0.00     0.069 C 
BRANCH  19  20
HETATM   20  C12 UNL     1      30.698   9.817  49.377  1.00  0.00    -0.017 C 
HETATM   21  C13 UNL     1      30.599  10.898  48.589  1.00  0.00     0.001 C 
BRANCH  21  22
HETATM   22  C14 UNL     1      30.083  12.345  48.640  1.00  0.00     0.249 C 
HETATM   23  F1  UNL     1      30.662  12.856  49.829  1.00  0.00    -0.251 F 
ENDBRANCH  21  22
ENDBRANCH  19  20
ENDBRANCH  14  19
BRANCH   1  24
HETATM   24  N1  UNL     1      35.618   6.635  48.420  1.00  0.00    -0.386 N 
HETATM   25  H1  UNL     1      35.567   7.676  48.216  1.00  0.00     0.157 HD
HETATM   26  H2  UNL     1      36.201   7.464  48.500  1.00  0.00     0.157 HD
ENDBRANCH   1  24
TORSDOF 4
ENDMDL
MODEL 9
REMARK VINA RESULT:      -6.2      3.959      5.668
REMARK  4 active torsions:
REMARK  status: ('A' for Active; 'I' for Inactive)
REMARK    1  A    between atoms: N1_1  and  C1_2 
REMARK    2  A    between atoms: C10_15  and  C11_16 
REMARK    3  A    between atoms: C11_16  and  C12_17 
REMARK    4  A    between atoms: C13_18  and  C14_19 
ROOT
HETATM    1  C1  UNL     1      23.959   5.354  51.007  1.00  0.00     0.112 C 
HETATM    2  N2  UNL     1      23.643   6.074  50.001  1.00  0.00    -0.256 NA
HETATM    3  C2  UNL     1      23.832   5.707  48.647  1.00  0.00     0.272 C 
HETATM    4  N3  UNL     1      22.511   5.501  48.001  1.00  0.00    -0.372 N 
HETATM    5  C3  UNL     1      21.623   4.815  48.853  1.00  0.00     0.024 A 
HETATM    6  C4  UNL     1      22.448   3.726  48.774  1.00  0.00     0.012 A 
HETATM    7  C5  UNL     1      21.644   3.169  49.717  1.00  0.00     0.081 A 
HETATM    8  C6  UNL     1      20.785   2.615  50.703  1.00  0.00     0.130 A 
HETATM    9  C7  UNL     1      20.223   3.782  50.500  1.00  0.00     0.102 A 
HETATM   10 CL1  UNL     1      18.801   4.024  51.433  1.00  0.00    -0.110 Cl
HETATM   11  C8  UNL     1      20.488   4.859  49.709  1.00  0.00     0.031 A 
HETATM   12  O1  UNL     1      21.035   1.313  51.235  1.00  0.00    -0.368 OA
HETATM   13  C9  UNL     1      22.366   0.807  51.148  1.00  0.00     0.221 C 
HETATM   14  C10 UNL     1      23.410   1.602  51.856  1.00  0.00     0.015 C 
HETATM   15  N4  UNL     1      23.746   3.002  51.600  1.00  0.00    -0.387 N 
HETATM   16  C15 UNL     1      24.638   3.986  51.048  1.00  0.00     0.197 C 
HETATM   17  H5  UNL     1      22.294   5.828  46.999  1.00  0.00     0.161 HD
HETATM   18  H16 UNL     1      22.914   3.351  52.129  1.00  0.00     0.159 HD
ENDROOT
BRANCH  14  19
HETATM   19  C11 UNL     1      24.039   0.776  52.825  1.00  0.00     0.069 C 
BRANCH  19  20
HETATM   20  C12 UNL     1      24.639  -0.231  53.554  1.00  0.00    -0.017 C 
HETATM   21  C13 UNL     1      25.739  -0.446  52.816  1.00  0.00     0.001 C 
BRANCH  21  22
HETATM   22  C14 UNL     1      26.985  -1.346  52.801  1.00  0.00     0.249 C 
HETATM   23  F1  UNL     1      26.603  -2.417  51.954  1.00  0.00    -0.251 F 
ENDBRANCH  21  22
ENDBRANCH  19  20
ENDBRANCH  14  19
BRANCH   1  24
HETATM   24  N1  UNL     1      23.810   5.629  52.370  1.00  0.00    -0.386 N 
HETATM   25  H1  UNL     1      23.536   5.140  53.272  1.00  0.00     0.157 HD
HETATM   26  H2  UNL     1      23.706   5.841  53.360  1.00  0.00     0.157 HD
ENDBRANCH   1  24
TORSDOF 4
ENDMDL
