MODEL 1
REMARK VINA RESULT:      -9.5      0.000      0.000
REMARK  4 active torsions:
REMARK  status: ('A' for Active; 'I' for Inactive)
REMARK    1  A    between atoms: C2_2  and  N1_3 
REMARK    2  A    between atoms: N1_3  and  C3_4 
REMARK    3  A    between atoms: C15_20  and  O1_21 
REMARK    4  A    between atoms: O1_21  and  C16_22 
ROOT
HETATM    1  C3  UNL     1      23.455   0.831  52.649  1.00  0.00     0.079 C 
HETATM    2  C4  UNL     1      22.251   1.414  52.787  1.00  0.00     0.148 C 
HETATM    3  N2  UNL     1      21.846   2.659  52.316  1.00  0.00    -0.271 NA
HETATM    4  C5  UNL     1      20.743   3.039  51.852  1.00  0.00     0.118 C 
HETATM    5  C6  UNL     1      20.867   4.430  51.521  1.00  0.00     0.047 C 
HETATM    6  C7  UNL     1      21.874   5.270  51.641  1.00  0.00     0.044 C 
HETATM    7  C8  UNL     1      23.260   5.025  52.187  1.00  0.00     0.137 C 
HETATM    8  C9  UNL     1      24.051   4.962  50.907  1.00  0.00     0.111 C 
HETATM    9  N3  UNL     1      24.166   6.146  50.390  1.00  0.00    -0.228 NA
HETATM   10  C10 UNL     1      23.010   7.046  50.563  1.00  0.00     0.235 C 
HETATM   11  N4  UNL     1      21.915   6.650  51.213  1.00  0.00    -0.246 NA
HETATM   12  N5  UNL     1      24.742   4.226  49.946  1.00  0.00    -0.348 N 
HETATM   13  C11 UNL     1      26.053   3.892  49.729  1.00  0.00     0.006 C 
HETATM   14  C12 UNL     1      27.249   4.336  49.029  1.00  0.00     0.068 C 
HETATM   15  C13 UNL     1      26.276   2.771  50.391  1.00  0.00     0.027 C 
HETATM   16  C14 UNL     1      25.380   2.028  51.185  1.00  0.00     0.041 C 
HETATM   17  C15 UNL     1      24.635   1.273  51.932  1.00  0.00     0.097 C 
HETATM   18  H13 UNL     1      24.395   3.741  49.094  1.00  0.00     0.167 HD
ENDROOT
BRANCH  17  19
HETATM   19  O1  UNL     1      25.795   0.579  51.929  1.00  0.00    -0.338 OA
BRANCH  19  20
HETATM   20  C16 UNL     1      26.437  -0.100  52.968  1.00  0.00     0.180 A 
HETATM   21  C17 UNL     1      26.717  -1.530  52.642  1.00  0.00     0.065 A 
HETATM   22  C18 UNL     1      28.108  -1.954  52.885  1.00  0.00    -0.021 A 
HETATM   23  C19 UNL     1      29.126  -1.213  53.362  1.00  0.00     0.040 A 
HETATM   24  C20 UNL     1      28.854   0.189  53.688  1.00  0.00     0.136 A 
HETATM   25  F1  UNL     1      29.835   0.971  54.170  1.00  0.00    -0.205 F 
HETATM   26  C21 UNL     1      27.619   0.641  53.491  1.00  0.00     0.080 A 
HETATM   27 CL1  UNL     1      27.254   2.327  53.885  1.00  0.00    -0.083 Cl
ENDBRANCH  19  20
ENDBRANCH  17  19
BRANCH   1  28
HETATM   28  N1  UNL     1      23.620  -0.458  53.234  1.00  0.00    -0.387 N 
HETATM   29  H6  UNL     1      24.149  -1.015  52.521  1.00  0.00     0.159 HD
BRANCH  28  30
HETATM   30  C2  UNL     1      23.178  -0.923  54.511  1.00  0.00     0.115 C 
HETATM   31  C1  UNL     1      21.868  -1.673  54.441  1.00  0.00     0.026 C 
ENDBRANCH  28  30
ENDBRANCH   1  28
TORSDOF 4
ENDMDL
MODEL 2
REMARK VINA RESULT:      -8.9      3.274      6.003
REMARK  4 active torsions:
REMARK  status: ('A' for Active; 'I' for Inactive)
REMARK    1  A    between atoms: C2_2  and  N1_3 
REMARK    2  A    between atoms: N1_3  and  C3_4 
REMARK    3  A    between atoms: C15_20  and  O1_21 
REMARK    4  A    between atoms: O1_21  and  C16_22 
ROOT
HETATM    1  C3  UNL     1      24.965   1.882  52.197  1.00  0.00     0.079 C 
HETATM    2  C4  UNL     1      24.626   1.018  53.171  1.00  0.00     0.148 C 
HETATM    3  N2  UNL     1      23.417   0.350  53.336  1.00  0.00    -0.271 NA
HETATM    4  C5  UNL     1      23.173  -0.811  53.747  1.00  0.00     0.118 C 
HETATM    5  C6  UNL     1      21.749  -0.990  53.725  1.00  0.00     0.047 C 
HETATM    6  C7  UNL     1      20.772  -0.177  53.381  1.00  0.00     0.044 C 
HETATM    7  C8  UNL     1      20.847   1.248  52.888  1.00  0.00     0.137 C 
HETATM    8  C9  UNL     1      20.590   1.043  51.418  1.00  0.00     0.111 C 
HETATM    9  N3  UNL     1      19.343   0.748  51.216  1.00  0.00    -0.228 NA
HETATM   10  C10 UNL     1      18.692  -0.071  52.256  1.00  0.00     0.235 C 
HETATM   11  N4  UNL     1      19.359  -0.481  53.334  1.00  0.00    -0.246 NA
HETATM   12  N5  UNL     1      21.051   0.995  50.104  1.00  0.00    -0.348 N 
HETATM   13  C11 UNL     1      21.118   1.879  49.060  1.00  0.00     0.006 C 
HETATM   14  C12 UNL     1      20.378   2.334  47.891  1.00  0.00     0.068 C 
HETATM   15  C13 UNL     1      22.265   2.524  49.178  1.00  0.00     0.027 C 
HETATM   16  C14 UNL     1      23.257   2.375  50.168  1.00  0.00     0.041 C 
HETATM   17  C15 UNL     1      24.227   2.313  51.026  1.00  0.00     0.097 C 
HETATM   18  H13 UNL     1      21.465   0.207  49.565  1.00  0.00     0.167 HD
ENDROOT
BRANCH  17  19
HETATM   19  O1  UNL     1      24.701   3.234  50.158  1.00  0.00    -0.338 OA
BRANCH  19  20
HETATM   20  C16 UNL     1      25.717   4.180  50.320  1.00  0.00     0.180 A 
HETATM   21  C17 UNL     1      26.863   3.967  49.386  1.00  0.00     0.065 A 
HETATM   22  C18 UNL     1      27.276   5.167  48.637  1.00  0.00    -0.021 A 
HETATM   23  C19 UNL     1      26.750   6.404  48.704  1.00  0.00     0.040 A 
HETATM   24  C20 UNL     1      25.628   6.619  49.622  1.00  0.00     0.136 A 
HETATM   25  F1  UNL     1      25.068   7.836  49.729  1.00  0.00    -0.205 F 
HETATM   26  C21 UNL     1      25.201   5.577  50.330  1.00  0.00     0.080 A 
HETATM   27 CL1  UNL     1      23.855   5.805  51.456  1.00  0.00    -0.083 Cl
ENDBRANCH  19  20
ENDBRANCH  17  19
BRANCH   1  28
HETATM   28  N1  UNL     1      26.275   2.441  52.257  1.00  0.00    -0.387 N 
HETATM   29  H6  UNL     1      26.140   3.468  52.099  1.00  0.00     0.159 HD
BRANCH  28  30
HETATM   30  C2  UNL     1      27.520   1.777  52.483  1.00  0.00     0.115 C 
HETATM   31  C1  UNL     1      28.365   2.456  53.536  1.00  0.00     0.026 C 
ENDBRANCH  28  30
ENDBRANCH   1  28
TORSDOF 4
ENDMDL
MODEL 3
REMARK VINA RESULT:      -8.7      2.144      5.053
REMARK  4 active torsions:
REMARK  status: ('A' for Active; 'I' for Inactive)
REMARK    1  A    between atoms: C2_2  and  N1_3 
REMARK    2  A    between atoms: N1_3  and  C3_4 
REMARK    3  A    between atoms: C15_20  and  O1_21 
REMARK    4  A    between atoms: O1_21  and  C16_22 
ROOT
HETATM    1  C3  UNL     1      24.707   2.946  50.893  1.00  0.00     0.079 C 
HETATM    2  C4  UNL     1      23.820   3.457  50.020  1.00  0.00     0.148 C 
HETATM    3  N2  UNL     1      22.467   3.158  49.904  1.00  0.00    -0.271 NA
HETATM    4  C5  UNL     1      21.487   3.893  49.628  1.00  0.00     0.118 C 
HETATM    5  C6  UNL     1      20.311   3.070  49.635  1.00  0.00     0.047 C 
HETATM    6  C7  UNL     1      20.147   1.782  49.856  1.00  0.00     0.044 C 
HETATM    7  C8  UNL     1      21.182   0.732  50.179  1.00  0.00     0.137 C 
HETATM    8  C9  UNL     1      20.943   0.557  51.656  1.00  0.00     0.111 C 
HETATM    9  N3  UNL     1      19.832  -0.081  51.860  1.00  0.00    -0.228 NA
HETATM   10  C10 UNL     1      18.740   0.196  50.908  1.00  0.00     0.235 C 
HETATM   11  N4  UNL     1      18.897   1.057  49.903  1.00  0.00    -0.246 NA
HETATM   12  N5  UNL     1      21.334   0.764  52.978  1.00  0.00    -0.348 N 
HETATM   13  C11 UNL     1      22.036   0.048  53.911  1.00  0.00     0.006 C 
HETATM   14  C12 UNL     1      21.859  -0.903  54.999  1.00  0.00     0.068 C 
HETATM   15  C13 UNL     1      23.310   0.352  53.747  1.00  0.00     0.027 C 
HETATM   16  C14 UNL     1      23.889   1.229  52.806  1.00  0.00     0.041 C 
HETATM   17  C15 UNL     1      24.517   2.013  51.986  1.00  0.00     0.097 C 
HETATM   18  H13 UNL     1      21.149   1.564  53.615  1.00  0.00     0.167 HD
ENDROOT
BRANCH  17  19
HETATM   19  O1  UNL     1      25.535   1.561  52.751  1.00  0.00    -0.338 OA
BRANCH  19  20
HETATM   20  C16 UNL     1      26.889   1.403  52.440  1.00  0.00     0.180 A 
HETATM   21  C17 UNL     1      27.756   2.437  53.080  1.00  0.00     0.065 A 
HETATM   22  C18 UNL     1      28.919   1.898  53.808  1.00  0.00    -0.021 A 
HETATM   23  C19 UNL     1      29.279   0.608  53.950  1.00  0.00     0.040 A 
HETATM   24  C20 UNL     1      28.433  -0.409  53.321  1.00  0.00     0.136 A 
HETATM   25  F1  UNL     1      28.749  -1.711  53.430  1.00  0.00    -0.205 F 
HETATM   26  C21 UNL     1      27.363   0.007  52.648  1.00  0.00     0.080 A 
HETATM   27 CL1  UNL     1      26.327  -1.196  51.866  1.00  0.00    -0.083 Cl
ENDBRANCH  19  20
ENDBRANCH  17  19
BRANCH   1  28
HETATM   28  N1  UNL     1      26.049   3.417  50.801  1.00  0.00    -0.387 N 
HETATM   29  H6  UNL     1      26.346   3.588  51.791  1.00  0.00     0.159 HD
BRANCH  28  30
HETATM   30  C2  UNL     1      26.847   3.620  49.633  1.00  0.00     0.115 C 
HETATM   31  C1  UNL     1      26.731   5.020  49.078  1.00  0.00     0.026 C 
ENDBRANCH  28  30
ENDBRANCH   1  28
TORSDOF 4
ENDMDL
MODEL 4
REMARK VINA RESULT:      -8.6      3.545      7.362
REMARK  4 active torsions:
REMARK  status: ('A' for Active; 'I' for Inactive)
REMARK    1  A    between atoms: C2_2  and  N1_3 
REMARK    2  A    between atoms: N1_3  and  C3_4 
REMARK    3  A    between atoms: C15_20  and  O1_21 
REMARK    4  A    between atoms: O1_21  and  C16_22 
ROOT
HETATM    1  C3  UNL     1      25.901   3.143  50.777  1.00  0.00     0.079 C 
HETATM    2  C4  UNL     1      26.446   2.258  51.631  1.00  0.00     0.148 C 
HETATM    3  N2  UNL     1      25.824   1.186  52.260  1.00  0.00    -0.271 NA
HETATM    4  C5  UNL     1      26.252   0.039  52.538  1.00  0.00     0.118 C 
HETATM    5  C6  UNL     1      25.194  -0.674  53.196  1.00  0.00     0.047 C 
HETATM    6  C7  UNL     1      23.970  -0.313  53.523  1.00  0.00     0.044 C 
HETATM    7  C8  UNL     1      23.275   1.009  53.303  1.00  0.00     0.137 C 
HETATM    8  C9  UNL     1      22.380   0.658  52.144  1.00  0.00     0.111 C 
HETATM    9  N3  UNL     1      21.406  -0.102  52.542  1.00  0.00    -0.228 NA
HETATM   10  C10 UNL     1      21.726  -1.062  53.614  1.00  0.00     0.235 C 
HETATM   11  N4  UNL     1      22.952  -1.138  54.134  1.00  0.00    -0.246 NA
HETATM   12  N5  UNL     1      22.071   0.734  50.787  1.00  0.00    -0.348 N 
HETATM   13  C11 UNL     1      21.270   1.530  50.012  1.00  0.00     0.006 C 
HETATM   14  C12 UNL     1      19.926   1.615  49.459  1.00  0.00     0.068 C 
HETATM   15  C13 UNL     1      22.000   2.570  49.651  1.00  0.00     0.027 C 
HETATM   16  C14 UNL     1      23.341   2.855  49.977  1.00  0.00     0.041 C 
HETATM   17  C15 UNL     1      24.566   3.207  50.216  1.00  0.00     0.097 C 
HETATM   18  H13 UNL     1      22.386   0.142  49.992  1.00  0.00     0.167 HD
ENDROOT
BRANCH  17  19
HETATM   19  O1  UNL     1      24.161   4.202  49.395  1.00  0.00    -0.338 OA
BRANCH  19  20
HETATM   20  C16 UNL     1      23.511   5.402  49.693  1.00  0.00     0.180 A 
HETATM   21  C17 UNL     1      24.078   6.088  50.892  1.00  0.00     0.065 A 
HETATM   22  C18 UNL     1      24.406   7.511  50.687  1.00  0.00    -0.021 A 
HETATM   23  C19 UNL     1      24.249   8.242  49.568  1.00  0.00     0.040 A 
HETATM   24  C20 UNL     1      23.689   7.574  48.390  1.00  0.00     0.136 A 
HETATM   25  F1  UNL     1      23.509   8.259  47.248  1.00  0.00    -0.205 F 
HETATM   26  C21 UNL     1      23.371   6.287  48.503  1.00  0.00     0.080 A 
HETATM   27 CL1  UNL     1      22.682   5.453  47.103  1.00  0.00    -0.083 Cl
ENDBRANCH  19  20
ENDBRANCH  17  19
BRANCH   1  28
HETATM   28  N1  UNL     1      26.758   4.164  50.270  1.00  0.00    -0.387 N 
HETATM   29  H6  UNL     1      27.005   4.750  51.104  1.00  0.00     0.159 HD
BRANCH  28  30
HETATM   30  C2  UNL     1      27.206   4.371  48.929  1.00  0.00     0.115 C 
HETATM   31  C1  UNL     1      27.206   5.829  48.529  1.00  0.00     0.026 C 
ENDBRANCH  28  30
ENDBRANCH   1  28
TORSDOF 4
ENDMDL
MODEL 5
REMARK VINA RESULT:      -8.4      3.456      6.441
REMARK  4 active torsions:
REMARK  status: ('A' for Active; 'I' for Inactive)
REMARK    1  A    between atoms: C2_2  and  N1_3 
REMARK    2  A    between atoms: N1_3  and  C3_4 
REMARK    3  A    between atoms: C15_20  and  O1_21 
REMARK    4  A    between atoms: O1_21  and  C16_22 
ROOT
HETATM    1  C3  UNL     1      22.659  -0.221  52.912  1.00  0.00     0.079 C 
HETATM    2  C4  UNL     1      23.308  -0.754  53.962  1.00  0.00     0.148 C 
HETATM    3  N2  UNL     1      24.611  -0.500  54.378  1.00  0.00    -0.271 NA
HETATM    4  C5  UNL     1      25.100  -0.419  55.532  1.00  0.00     0.118 C 
HETATM    5  C6  UNL     1      26.502  -0.143  55.392  1.00  0.00     0.047 C 
HETATM    6  C7  UNL     1      27.259   0.006  54.325  1.00  0.00     0.044 C 
HETATM    7  C8  UNL     1      26.879  -0.074  52.866  1.00  0.00     0.137 C 
HETATM    8  C9  UNL     1      26.865   1.389  52.507  1.00  0.00     0.111 C 
HETATM    9  N3  UNL     1      28.077   1.849  52.450  1.00  0.00    -0.228 NA
HETATM   10  C10 UNL     1      29.035   1.280  53.415  1.00  0.00     0.235 C 
HETATM   11  N4  UNL     1      28.664   0.349  54.294  1.00  0.00    -0.246 NA
HETATM   12  N5  UNL     1      26.163   2.554  52.206  1.00  0.00    -0.348 N 
HETATM   13  C11 UNL     1      25.760   3.181  51.057  1.00  0.00     0.006 C 
HETATM   14  C12 UNL     1      26.177   4.189  50.092  1.00  0.00     0.068 C 
HETATM   15  C13 UNL     1      24.578   2.683  50.743  1.00  0.00     0.027 C 
HETATM   16  C14 UNL     1      23.836   1.694  51.420  1.00  0.00     0.041 C 
HETATM   17  C15 UNL     1      23.076   0.797  51.969  1.00  0.00     0.097 C 
HETATM   18  H13 UNL     1      25.771   3.284  52.835  1.00  0.00     0.167 HD
ENDROOT
BRANCH  17  19
HETATM   19  O1  UNL     1      22.308   1.195  50.929  1.00  0.00    -0.338 OA
BRANCH  19  20
HETATM   20  C16 UNL     1      21.173   2.010  50.913  1.00  0.00     0.180 A 
HETATM   21  C17 UNL     1      21.051   2.860  52.136  1.00  0.00     0.065 A 
HETATM   22  C18 UNL     1      20.821   4.291  51.868  1.00  0.00    -0.021 A 
HETATM   23  C19 UNL     1      20.706   4.900  50.673  1.00  0.00     0.040 A 
HETATM   24  C20 UNL     1      20.821   4.070  49.471  1.00  0.00     0.136 A 
HETATM   25  F1  UNL     1      20.711   4.628  48.254  1.00  0.00    -0.205 F 
HETATM   26  C21 UNL     1      21.031   2.767  49.638  1.00  0.00     0.080 A 
HETATM   27 CL1  UNL     1      21.164   1.734  48.207  1.00  0.00    -0.083 Cl
ENDBRANCH  19  20
ENDBRANCH  17  19
BRANCH   1  28
HETATM   28  N1  UNL     1      21.319  -0.656  52.692  1.00  0.00    -0.387 N 
HETATM   29  H6  UNL     1      21.333  -1.115  51.750  1.00  0.00     0.159 HD
BRANCH  28  30
HETATM   30  C2  UNL     1      20.182  -0.517  53.548  1.00  0.00     0.115 C 
HETATM   31  C1  UNL     1      18.874  -0.519  52.791  1.00  0.00     0.026 C 
ENDBRANCH  28  30
ENDBRANCH   1  28
TORSDOF 4
ENDMDL
MODEL 6
REMARK VINA RESULT:      -8.3      3.238      7.504
REMARK  4 active torsions:
REMARK  status: ('A' for Active; 'I' for Inactive)
REMARK    1  A    between atoms: C2_2  and  N1_3 
REMARK    2  A    between atoms: N1_3  and  C3_4 
REMARK    3  A    between atoms: C15_20  and  O1_21 
REMARK    4  A    between atoms: O1_21  and  C16_22 
ROOT
HETATM    1  C3  UNL     1      25.981   3.643  50.299  1.00  0.00     0.079 C 
HETATM    2  C4  UNL     1      26.671   2.797  51.084  1.00  0.00     0.148 C 
HETATM    3  N2  UNL     1      26.196   1.674  51.753  1.00  0.00    -0.271 NA
HETATM    4  C5  UNL     1      26.737   0.562  51.973  1.00  0.00     0.118 C 
HETATM    5  C6  UNL     1      25.805  -0.236  52.717  1.00  0.00     0.047 C 
HETATM    6  C7  UNL     1      24.593   0.025  53.162  1.00  0.00     0.044 C 
HETATM    7  C8  UNL     1      23.779   1.289  53.028  1.00  0.00     0.137 C 
HETATM    8  C9  UNL     1      22.809   0.877  51.953  1.00  0.00     0.111 C 
HETATM    9  N3  UNL     1      21.939   0.040  52.429  1.00  0.00    -0.228 NA
HETATM   10  C10 UNL     1      22.433  -0.900  53.452  1.00  0.00     0.235 C 
HETATM   11  N4  UNL     1      23.704  -0.883  53.854  1.00  0.00    -0.246 NA
HETATM   12  N5  UNL     1      22.367   0.938  50.632  1.00  0.00    -0.348 N 
HETATM   13  C11 UNL     1      21.438   1.674  49.947  1.00  0.00     0.006 C 
HETATM   14  C12 UNL     1      20.045   1.657  49.524  1.00  0.00     0.068 C 
HETATM   15  C13 UNL     1      22.047   2.771  49.535  1.00  0.00     0.027 C 
HETATM   16  C14 UNL     1      23.386   3.159  49.738  1.00  0.00     0.041 C 
HETATM   17  C15 UNL     1      24.598   3.605  49.867  1.00  0.00     0.097 C 
HETATM   18  H13 UNL     1      22.651   0.379  49.803  1.00  0.00     0.167 HD
ENDROOT
BRANCH  17  19
HETATM   19  O1  UNL     1      24.041   4.571  49.101  1.00  0.00    -0.338 OA
BRANCH  19  20
HETATM   20  C16 UNL     1      24.063   5.960  49.254  1.00  0.00     0.180 A 
HETATM   21  C17 UNL     1      23.960   6.688  47.954  1.00  0.00     0.065 A 
HETATM   22  C18 UNL     1      22.928   7.740  47.919  1.00  0.00    -0.021 A 
HETATM   23  C19 UNL     1      22.092   8.109  48.908  1.00  0.00     0.040 A 
HETATM   24  C20 UNL     1      22.192   7.401  50.186  1.00  0.00     0.136 A 
HETATM   25  F1  UNL     1      21.382   7.733  51.206  1.00  0.00    -0.205 F 
HETATM   26  C21 UNL     1      23.102   6.436  50.288  1.00  0.00     0.080 A 
HETATM   27 CL1  UNL     1      23.256   5.567  51.822  1.00  0.00    -0.083 Cl
ENDBRANCH  19  20
ENDBRANCH  17  19
BRANCH   1  28
HETATM   28  N1  UNL     1      26.704   4.731  49.729  1.00  0.00    -0.387 N 
HETATM   29  H6  UNL     1      26.476   5.556  50.335  1.00  0.00     0.159 HD
BRANCH  28  30
HETATM   30  C2  UNL     1      27.562   4.734  48.587  1.00  0.00     0.115 C 
HETATM   31  C1  UNL     1      28.032   6.120  48.208  1.00  0.00     0.026 C 
ENDBRANCH  28  30
ENDBRANCH   1  28
TORSDOF 4
ENDMDL
MODEL 7
REMARK VINA RESULT:      -8.1      6.866     10.272
REMARK  4 active torsions:
REMARK  status: ('A' for Active; 'I' for Inactive)
REMARK    1  A    between atoms: C2_2  and  N1_3 
REMARK    2  A    between atoms: N1_3  and  C3_4 
REMARK    3  A    between atoms: C15_20  and  O1_21 
REMARK    4  A    between atoms: O1_21  and  C16_22 
ROOT
HETATM    1  C3  UNL     1      32.373   8.476  47.682  1.00  0.00     0.079 C 
HETATM    2  C4  UNL     1      32.011   9.760  47.853  1.00  0.00     0.148 C 
HETATM    3  N2  UNL     1      30.740  10.261  48.116  1.00  0.00    -0.271 NA
HETATM    4  C5  UNL     1      30.371  11.217  48.841  1.00  0.00     0.118 C 
HETATM    5  C6  UNL     1      28.941  11.306  48.749  1.00  0.00     0.047 C 
HETATM    6  C7  UNL     1      28.065  10.600  48.065  1.00  0.00     0.044 C 
HETATM    7  C8  UNL     1      28.298   9.438  47.129  1.00  0.00     0.137 C 
HETATM    8  C9  UNL     1      27.866   8.291  48.004  1.00  0.00     0.111 C 
HETATM    9  N3  UNL     1      26.575   8.285  48.133  1.00  0.00    -0.228 NA
HETATM   10  C10 UNL     1      25.919   9.605  48.177  1.00  0.00     0.235 C 
HETATM   11  N4  UNL     1      26.625  10.733  48.093  1.00  0.00    -0.246 NA
HETATM   12  N5  UNL     1      28.180   7.188  48.796  1.00  0.00    -0.348 N 
HETATM   13  C11 UNL     1      28.270   5.836  48.595  1.00  0.00     0.006 C 
HETATM   14  C12 UNL     1      27.490   4.609  48.675  1.00  0.00     0.068 C 
HETATM   15  C13 UNL     1      29.505   5.590  48.196  1.00  0.00     0.027 C 
HETATM   16  C14 UNL     1      30.559   6.503  47.995  1.00  0.00     0.041 C 
HETATM   17  C15 UNL     1      31.592   7.259  47.784  1.00  0.00     0.097 C 
HETATM   18  H13 UNL     1      28.416   7.132  49.807  1.00  0.00     0.167 HD
ENDROOT
BRANCH  17  19
HETATM   19  O1  UNL     1      32.106   6.034  47.534  1.00  0.00    -0.338 OA
BRANCH  19  20
HETATM   20  C16 UNL     1      32.262   5.357  46.322  1.00  0.00     0.180 A 
HETATM   21  C17 UNL     1      32.539   6.274  45.176  1.00  0.00     0.065 A 
HETATM   22  C18 UNL     1      33.703   5.896  44.354  1.00  0.00    -0.021 A 
HETATM   23  C19 UNL     1      34.520   4.839  44.517  1.00  0.00     0.040 A 
HETATM   24  C20 UNL     1      34.251   3.934  45.638  1.00  0.00     0.136 A 
HETATM   25  F1  UNL     1      35.035   2.863  45.843  1.00  0.00    -0.205 F 
HETATM   26  C21 UNL     1      33.214   4.216  46.423  1.00  0.00     0.080 A 
HETATM   27 CL1  UNL     1      32.854   3.137  47.779  1.00  0.00    -0.083 Cl
ENDBRANCH  19  20
ENDBRANCH  17  19
BRANCH   1  28
HETATM   28  N1  UNL     1      33.750   8.224  47.415  1.00  0.00    -0.387 N 
HETATM   29  H6  UNL     1      33.820   8.170  46.370  1.00  0.00     0.159 HD
BRANCH  28  30
HETATM   30  C2  UNL     1      34.828   8.074  48.342  1.00  0.00     0.115 C 
HETATM   31  C1  UNL     1      35.347   6.657  48.414  1.00  0.00     0.026 C 
ENDBRANCH  28  30
ENDBRANCH   1  28
TORSDOF 4
ENDMDL
MODEL 8
REMARK VINA RESULT:      -8.0      3.461      7.552
REMARK  4 active torsions:
REMARK  status: ('A' for Active; 'I' for Inactive)
REMARK    1  A    between atoms: C2_2  and  N1_3 
REMARK    2  A    between atoms: N1_3  and  C3_4 
REMARK    3  A    between atoms: C15_20  and  O1_21 
REMARK    4  A    between atoms: O1_21  and  C16_22 
ROOT
HETATM    1  C3  UNL     1      25.836   3.108  50.986  1.00  0.00     0.079 C 
HETATM    2  C4  UNL     1      26.816   2.459  51.639  1.00  0.00     0.148 C 
HETATM    3  N2  UNL     1      26.695   1.365  52.489  1.00  0.00    -0.271 NA
HETATM    4  C5  UNL     1      27.443   0.370  52.653  1.00  0.00     0.118 C 
HETATM    5  C6  UNL     1      26.849  -0.459  53.663  1.00  0.00     0.047 C 
HETATM    6  C7  UNL     1      25.749  -0.318  54.372  1.00  0.00     0.044 C 
HETATM    7  C8  UNL     1      24.734   0.800  54.346  1.00  0.00     0.137 C 
HETATM    8  C9  UNL     1      23.619   0.140  53.579  1.00  0.00     0.111 C 
HETATM    9  N3  UNL     1      23.029  -0.748  54.318  1.00  0.00    -0.228 NA
HETATM   10  C10 UNL     1      23.891  -1.490  55.257  1.00  0.00     0.235 C 
HETATM   11  N4  UNL     1      25.202  -1.254  55.329  1.00  0.00    -0.246 NA
HETATM   12  N5  UNL     1      22.879  -0.010  52.408  1.00  0.00    -0.348 N 
HETATM   13  C11 UNL     1      21.710   0.511  51.919  1.00  0.00     0.006 C 
HETATM   14  C12 UNL     1      20.278   0.255  51.855  1.00  0.00     0.068 C 
HETATM   15  C13 UNL     1      22.023   1.626  51.286  1.00  0.00     0.027 C 
HETATM   16  C14 UNL     1      23.293   2.215  51.122  1.00  0.00     0.041 C 
HETATM   17  C15 UNL     1      24.414   2.834  50.913  1.00  0.00     0.097 C 
HETATM   18  H13 UNL     1      23.048  -0.615  51.579  1.00  0.00     0.167 HD
ENDROOT
BRANCH  17  19
HETATM   19  O1  UNL     1      23.548   3.621  50.237  1.00  0.00    -0.338 OA
BRANCH  19  20
HETATM   20  C16 UNL     1      23.524   3.973  48.885  1.00  0.00     0.180 A 
HETATM   21  C17 UNL     1      22.923   2.915  48.019  1.00  0.00     0.065 A 
HETATM   22  C18 UNL     1      21.873   3.394  47.103  1.00  0.00    -0.021 A 
HETATM   23  C19 UNL     1      21.411   4.651  46.961  1.00  0.00     0.040 A 
HETATM   24  C20 UNL     1      22.000   5.693  47.805  1.00  0.00     0.136 A 
HETATM   25  F1  UNL     1      21.577   6.964  47.701  1.00  0.00    -0.205 F 
HETATM   26  C21 UNL     1      22.954   5.331  48.658  1.00  0.00     0.080 A 
HETATM   27 CL1  UNL     1      23.695   6.568  49.685  1.00  0.00    -0.083 Cl
ENDBRANCH  19  20
ENDBRANCH  17  19
BRANCH   1  28
HETATM   28  N1  UNL     1      26.223   4.214  50.174  1.00  0.00    -0.387 N 
HETATM   29  H6  UNL     1      25.660   5.024  50.530  1.00  0.00     0.159 HD
BRANCH  28  30
HETATM   30  C2  UNL     1      27.169   4.249  49.104  1.00  0.00     0.115 C 
HETATM   31  C1  UNL     1      27.362   5.636  48.535  1.00  0.00     0.026 C 
ENDBRANCH  28  30
ENDBRANCH   1  28
TORSDOF 4
ENDMDL
MODEL 9
REMARK VINA RESULT:      -8.0      3.787      7.153
REMARK  4 active torsions:
REMARK  status: ('A' for Active; 'I' for Inactive)
REMARK    1  A    between atoms: C2_2  and  N1_3 
REMARK    2  A    between atoms: N1_3  and  C3_4 
REMARK    3  A    between atoms: C15_20  and  O1_21 
REMARK    4  A    between atoms: O1_21  and  C16_22 
ROOT
HETATM    1  C3  UNL     1      20.520  -0.265  53.669  1.00  0.00     0.079 C 
HETATM    2  C4  UNL     1      21.253  -1.131  54.390  1.00  0.00     0.148 C 
HETATM    3  N2  UNL     1      22.620  -1.087  54.645  1.00  0.00    -0.271 NA
HETATM    4  C5  UNL     1      23.271  -1.395  55.673  1.00  0.00     0.118 C 
HETATM    5  C6  UNL     1      24.660  -1.162  55.395  1.00  0.00     0.047 C 
HETATM    6  C7  UNL     1      25.272  -0.729  54.313  1.00  0.00     0.044 C 
HETATM    7  C8  UNL     1      24.686  -0.330  52.980  1.00  0.00     0.137 C 
HETATM    8  C9  UNL     1      24.768   1.170  53.082  1.00  0.00     0.111 C 
HETATM    9  N3  UNL     1      25.999   1.562  52.968  1.00  0.00    -0.228 NA
HETATM   10  C10 UNL     1      27.022   0.672  53.548  1.00  0.00     0.235 C 
HETATM   11  N4  UNL     1      26.686  -0.467  54.156  1.00  0.00    -0.246 NA
HETATM   12  N5  UNL     1      24.151   2.406  53.263  1.00  0.00    -0.348 N 
HETATM   13  C11 UNL     1      23.656   3.380  52.437  1.00  0.00     0.006 C 
HETATM   14  C12 UNL     1      24.032   4.615  51.764  1.00  0.00     0.068 C 
HETATM   15  C13 UNL     1      22.398   3.066  52.187  1.00  0.00     0.027 C 
HETATM   16  C14 UNL     1      21.663   1.956  52.648  1.00  0.00     0.041 C 
HETATM   17  C15 UNL     1      20.901   0.974  53.020  1.00  0.00     0.097 C 
HETATM   18  H13 UNL     1      23.926   2.923  54.137  1.00  0.00     0.167 HD
ENDROOT
BRANCH  17  19
HETATM   19  O1  UNL     1      20.039   1.714  52.287  1.00  0.00    -0.338 OA
BRANCH  19  20
HETATM   20  C16 UNL     1      19.155   1.324  51.278  1.00  0.00     0.180 A 
HETATM   21  C17 UNL     1      17.775   1.860  51.475  1.00  0.00     0.065 A 
HETATM   22  C18 UNL     1      17.203   2.534  50.296  1.00  0.00    -0.021 A 
HETATM   23  C19 UNL     1      17.773   2.712  49.089  1.00  0.00     0.040 A 
HETATM   24  C20 UNL     1      19.125   2.184  48.889  1.00  0.00     0.136 A 
HETATM   25  F1  UNL     1      19.738   2.332  47.702  1.00  0.00    -0.205 F 
HETATM   26  C21 UNL     1      19.704   1.564  49.914  1.00  0.00     0.080 A 
HETATM   27 CL1  UNL     1      21.333   0.905  49.703  1.00  0.00    -0.083 Cl
ENDBRANCH  19  20
ENDBRANCH  17  19
BRANCH   1  28
HETATM   28  N1  UNL     1      19.126  -0.539  53.552  1.00  0.00    -0.387 N 
HETATM   29  H6  UNL     1      18.663   0.402  53.536  1.00  0.00     0.159 HD
BRANCH  28  30
HETATM   30  C2  UNL     1      18.468  -1.805  53.469  1.00  0.00     0.115 C 
HETATM   31  C1  UNL     1      17.075  -1.707  52.890  1.00  0.00     0.026 C 
ENDBRANCH  28  30
ENDBRANCH   1  28
TORSDOF 4
ENDMDL
