MODEL 1
REMARK VINA RESULT:      -7.1      0.000      0.000
REMARK  6 active torsions:
REMARK  status: ('A' for Active; 'I' for Inactive)
REMARK    1  A    between atoms: C1_2  and  C2_3 
REMARK    2  A    between atoms: C2_3  and  O2_4 
REMARK    3  A    between atoms: O2_4  and  C3_5 
REMARK    4  A    between atoms: C7_9  and  C8_10 
REMARK    5  A    between atoms: C9_11  and  C10_12 
REMARK    6  A    between atoms: C11_13  and  C12_14 
ROOT
HETATM    1  C3  UNL     1      26.564   0.155  54.389  1.00  0.00     0.071 A 
HETATM    2  C4  UNL     1      25.556  -0.807  54.367  1.00  0.00     0.038 A 
HETATM    3  C5  UNL     1      24.322  -0.545  53.816  1.00  0.00     0.019 A 
HETATM    4  C6  UNL     1      24.053   0.690  53.268  1.00  0.00     0.022 A 
HETATM    5  C7  UNL     1      22.832   0.955  52.721  1.00  0.00     0.070 A 
HETATM    6  N1  UNL     1      22.602   2.170  52.196  1.00  0.00    -0.241 NA
HETATM    7  C13 UNL     1      23.534   3.123  52.192  1.00  0.00     0.234 A 
HETATM    8  N2  UNL     1      24.753   2.866  52.735  1.00  0.00    -0.241 NA
HETATM    9  C14 UNL     1      25.031   1.665  53.274  1.00  0.00     0.073 A 
HETATM   10  C15 UNL     1      26.266   1.393  53.828  1.00  0.00     0.069 A 
ENDROOT
BRANCH   5  11
HETATM   11  C8  UNL     1      21.767  -0.029  52.686  1.00  0.00     0.032 C 
HETATM   12  C9  UNL     1      20.726   0.059  53.533  1.00  0.00     0.002 C 
BRANCH  12  13
HETATM   13  C10 UNL     1      19.595  -0.862  53.600  1.00  0.00    -0.002 C 
HETATM   14  C11 UNL     1      18.502  -0.690  52.879  1.00  0.00     0.004 C 
BRANCH  14  15
HETATM   15  C12 UNL     1      17.386  -1.664  52.994  1.00  0.00     0.249 C 
HETATM   16  F1  UNL     1      17.880  -2.736  53.743  1.00  0.00    -0.251 F 
ENDBRANCH  14  15
ENDBRANCH  12  13
ENDBRANCH   5  11
BRANCH   1  17
HETATM   17  O2  UNL     1      27.764  -0.194  54.959  1.00  0.00    -0.344 OA
BRANCH  17  18
HETATM   18  C2  UNL     1      29.013  -0.061  54.331  1.00  0.00     0.244 C 
BRANCH  18  19
HETATM   19  C1  UNL     1      29.175  -1.265  53.451  1.00  0.00     0.257 C 
HETATM   20  O1  UNL     1      28.967  -2.458  53.473  1.00  0.00    -0.305 OA
ENDBRANCH  18  19
ENDBRANCH  17  18
ENDBRANCH   1  17
TORSDOF 6
ENDMDL
MODEL 2
REMARK VINA RESULT:      -6.9      3.036      4.119
REMARK  6 active torsions:
REMARK  status: ('A' for Active; 'I' for Inactive)
REMARK    1  A    between atoms: C1_2  and  C2_3 
REMARK    2  A    between atoms: C2_3  and  O2_4 
REMARK    3  A    between atoms: O2_4  and  C3_5 
REMARK    4  A    between atoms: C7_9  and  C8_10 
REMARK    5  A    between atoms: C9_11  and  C10_12 
REMARK    6  A    between atoms: C11_13  and  C12_14 
ROOT
HETATM    1  C3  UNL     1      25.899  -0.200  54.557  1.00  0.00     0.071 A 
HETATM    2  C4  UNL     1      25.624   0.610  53.457  1.00  0.00     0.038 A 
HETATM    3  C5  UNL     1      24.357   0.696  52.926  1.00  0.00     0.019 A 
HETATM    4  C6  UNL     1      23.321  -0.027  53.477  1.00  0.00     0.022 A 
HETATM    5  C7  UNL     1      22.063   0.055  52.953  1.00  0.00     0.070 A 
HETATM    6  N1  UNL     1      21.076  -0.662  53.514  1.00  0.00    -0.241 NA
HETATM    7  C13 UNL     1      21.288  -1.451  54.568  1.00  0.00     0.234 A 
HETATM    8  N2  UNL     1      22.539  -1.537  55.094  1.00  0.00    -0.241 NA
HETATM    9  C14 UNL     1      23.561  -0.838  54.567  1.00  0.00     0.073 A 
HETATM   10  C15 UNL     1      24.834  -0.918  55.094  1.00  0.00     0.069 A 
ENDROOT
BRANCH   5  11
HETATM   11  C8  UNL     1      21.751   0.890  51.809  1.00  0.00     0.032 C 
HETATM   12  C9  UNL     1      21.469   0.338  50.615  1.00  0.00     0.002 C 
BRANCH  12  13
HETATM   13  C10 UNL     1      21.140   1.063  49.392  1.00  0.00    -0.002 C 
HETATM   14  C11 UNL     1      21.998   1.876  48.802  1.00  0.00     0.004 C 
BRANCH  14  15
HETATM   15  C12 UNL     1      21.600   2.584  47.558  1.00  0.00     0.249 C 
HETATM   16  F1  UNL     1      20.202   2.562  47.526  1.00  0.00    -0.251 F 
ENDBRANCH  14  15
ENDBRANCH  12  13
ENDBRANCH   5  11
BRANCH   1  17
HETATM   17  O2  UNL     1      27.191  -0.224  55.021  1.00  0.00    -0.344 OA
BRANCH  17  18
HETATM   18  C2  UNL     1      28.333  -0.207  54.203  1.00  0.00     0.244 C 
BRANCH  18  19
HETATM   19  C1  UNL     1      29.058   1.068  54.514  1.00  0.00     0.257 C 
HETATM   20  O1  UNL     1      28.842   2.258  54.586  1.00  0.00    -0.305 OA
ENDBRANCH  18  19
ENDBRANCH  17  18
ENDBRANCH   1  17
TORSDOF 6
ENDMDL
MODEL 3
REMARK VINA RESULT:      -6.8      3.298      4.868
REMARK  6 active torsions:
REMARK  status: ('A' for Active; 'I' for Inactive)
REMARK    1  A    between atoms: C1_2  and  C2_3 
REMARK    2  A    between atoms: C2_3  and  O2_4 
REMARK    3  A    between atoms: O2_4  and  C3_5 
REMARK    4  A    between atoms: C7_9  and  C8_10 
REMARK    5  A    between atoms: C9_11  and  C10_12 
REMARK    6  A    between atoms: C11_13  and  C12_14 
ROOT
HETATM    1  C3  UNL     1      26.400   0.130  54.367  1.00  0.00     0.071 A 
HETATM    2  C4  UNL     1      26.402   1.424  53.851  1.00  0.00     0.038 A 
HETATM    3  C5  UNL     1      25.306   1.940  53.196  1.00  0.00     0.019 A 
HETATM    4  C6  UNL     1      24.170   1.177  53.034  1.00  0.00     0.022 A 
HETATM    5  C7  UNL     1      23.081   1.684  52.386  1.00  0.00     0.070 A 
HETATM    6  N1  UNL     1      21.990   0.914  52.245  1.00  0.00    -0.241 NA
HETATM    7  C13 UNL     1      21.939  -0.330  52.722  1.00  0.00     0.234 A 
HETATM    8  N2  UNL     1      23.020  -0.841  53.369  1.00  0.00    -0.241 NA
HETATM    9  C14 UNL     1      24.137  -0.109  53.535  1.00  0.00     0.073 A 
HETATM   10  C15 UNL     1      25.240  -0.618  54.190  1.00  0.00     0.069 A 
ENDROOT
BRANCH   5  11
HETATM   11  C8  UNL     1      23.058   3.027  51.840  1.00  0.00     0.032 C 
HETATM   12  C9  UNL     1      22.086   3.890  52.183  1.00  0.00     0.002 C 
BRANCH  12  13
HETATM   13  C10 UNL     1      21.949   5.263  51.707  1.00  0.00    -0.002 C 
HETATM   14  C11 UNL     1      22.954   5.922  51.159  1.00  0.00     0.004 C 
BRANCH  14  15
HETATM   15  C12 UNL     1      22.749   7.318  50.695  1.00  0.00     0.249 C 
HETATM   16  F1  UNL     1      23.793   8.070  51.245  1.00  0.00    -0.251 F 
ENDBRANCH  14  15
ENDBRANCH  12  13
ENDBRANCH   5  11
BRANCH   1  17
HETATM   17  O2  UNL     1      27.537  -0.301  55.005  1.00  0.00    -0.344 OA
BRANCH  17  18
HETATM   18  C2  UNL     1      28.845   0.031  54.616  1.00  0.00     0.244 C 
BRANCH  18  19
HETATM   19  C1  UNL     1      29.304  -1.062  53.698  1.00  0.00     0.257 C 
HETATM   20  O1  UNL     1      29.084  -2.233  53.475  1.00  0.00    -0.305 OA
ENDBRANCH  18  19
ENDBRANCH  17  18
ENDBRANCH   1  17
TORSDOF 6
ENDMDL
MODEL 4
REMARK VINA RESULT:      -6.5      2.186      2.770
REMARK  6 active torsions:
REMARK  status: ('A' for Active; 'I' for Inactive)
REMARK    1  A    between atoms: C1_2  and  C2_3 
REMARK    2  A    between atoms: C2_3  and  O2_4 
REMARK    3  A    between atoms: O2_4  and  C3_5 
REMARK    4  A    between atoms: C7_9  and  C8_10 
REMARK    5  A    between atoms: C9_11  and  C10_12 
REMARK    6  A    between atoms: C11_13  and  C12_14 
ROOT
HETATM    1  C3  UNL     1      26.366   0.850  52.993  1.00  0.00     0.071 A 
HETATM    2  C4  UNL     1      25.224   1.127  52.243  1.00  0.00     0.038 A 
HETATM    3  C5  UNL     1      23.992   0.623  52.594  1.00  0.00     0.019 A 
HETATM    4  C6  UNL     1      23.860  -0.178  53.707  1.00  0.00     0.022 A 
HETATM    5  C7  UNL     1      22.641  -0.681  54.059  1.00  0.00     0.070 A 
HETATM    6  N1  UNL     1      22.546  -1.458  55.150  1.00  0.00    -0.241 NA
HETATM    7  C13 UNL     1      23.608  -1.752  55.900  1.00  0.00     0.234 A 
HETATM    8  N2  UNL     1      24.826  -1.255  55.555  1.00  0.00    -0.241 NA
HETATM    9  C14 UNL     1      24.972  -0.471  54.471  1.00  0.00     0.073 A 
HETATM   10  C15 UNL     1      26.203   0.039  54.113  1.00  0.00     0.069 A 
ENDROOT
BRANCH   5  11
HETATM   11  C8  UNL     1      21.439  -0.407  53.295  1.00  0.00     0.032 C 
HETATM   12  C9  UNL     1      20.233  -0.787  53.755  1.00  0.00     0.002 C 
BRANCH  12  13
HETATM   13  C10 UNL     1      18.954  -0.572  53.087  1.00  0.00    -0.002 C 
HETATM   14  C11 UNL     1      17.959  -1.437  53.174  1.00  0.00     0.004 C 
BRANCH  14  15
HETATM   15  C12 UNL     1      16.681  -1.159  52.469  1.00  0.00     0.249 C 
HETATM   16  F1  UNL     1      17.011  -0.973  51.123  1.00  0.00    -0.251 F 
ENDBRANCH  14  15
ENDBRANCH  12  13
ENDBRANCH   5  11
BRANCH   1  17
HETATM   17  O2  UNL     1      27.553   1.396  52.570  1.00  0.00    -0.344 OA
BRANCH  17  18
HETATM   18  C2  UNL     1      28.461   2.071  53.401  1.00  0.00     0.244 C 
BRANCH  18  19
HETATM   19  C1  UNL     1      29.401   1.031  53.934  1.00  0.00     0.257 C 
HETATM   20  O1  UNL     1      29.974   0.029  53.565  1.00  0.00    -0.305 OA
ENDBRANCH  18  19
ENDBRANCH  17  18
ENDBRANCH   1  17
TORSDOF 6
ENDMDL
MODEL 5
REMARK VINA RESULT:      -6.4      4.478      7.642
REMARK  6 active torsions:
REMARK  status: ('A' for Active; 'I' for Inactive)
REMARK    1  A    between atoms: C1_2  and  C2_3 
REMARK    2  A    between atoms: C2_3  and  O2_4 
REMARK    3  A    between atoms: O2_4  and  C3_5 
REMARK    4  A    between atoms: C7_9  and  C8_10 
REMARK    5  A    between atoms: C9_11  and  C10_12 
REMARK    6  A    between atoms: C11_13  and  C12_14 
ROOT
HETATM    1  C3  UNL     1      20.044  -0.520  53.488  1.00  0.00     0.071 A 
HETATM    2  C4  UNL     1      21.131  -1.099  54.142  1.00  0.00     0.038 A 
HETATM    3  C5  UNL     1      22.426  -0.757  53.827  1.00  0.00     0.019 A 
HETATM    4  C6  UNL     1      22.681   0.175  52.845  1.00  0.00     0.022 A 
HETATM    5  C7  UNL     1      23.963   0.517  52.529  1.00  0.00     0.070 A 
HETATM    6  N1  UNL     1      24.176   1.430  51.567  1.00  0.00    -0.241 NA
HETATM    7  C13 UNL     1      23.171   2.012  50.913  1.00  0.00     0.234 A 
HETATM    8  N2  UNL     1      21.891   1.676  51.223  1.00  0.00    -0.241 NA
HETATM    9  C14 UNL     1      21.626   0.767  52.179  1.00  0.00     0.073 A 
HETATM   10  C15 UNL     1      20.330   0.419  52.502  1.00  0.00     0.069 A 
ENDROOT
BRANCH   5  11
HETATM   11  C8  UNL     1      25.110  -0.071  53.194  1.00  0.00     0.032 C 
HETATM   12  C9  UNL     1      26.197  -0.435  52.491  1.00  0.00     0.002 C 
BRANCH  12  13
HETATM   13  C10 UNL     1      27.411  -1.034  53.038  1.00  0.00    -0.002 C 
HETATM   14  C11 UNL     1      28.505  -0.330  53.262  1.00  0.00     0.004 C 
BRANCH  14  15
HETATM   15  C12 UNL     1      29.708  -1.001  53.820  1.00  0.00     0.249 C 
HETATM   16  F1  UNL     1      29.610  -2.347  53.451  1.00  0.00    -0.251 F 
ENDBRANCH  14  15
ENDBRANCH  12  13
ENDBRANCH   5  11
BRANCH   1  17
HETATM   17  O2  UNL     1      18.787  -0.920  53.868  1.00  0.00    -0.344 OA
BRANCH  17  18
HETATM   18  C2  UNL     1      18.139  -2.073  53.393  1.00  0.00     0.244 C 
BRANCH  18  19
HETATM   19  C1  UNL     1      16.910  -1.601  52.674  1.00  0.00     0.257 C 
HETATM   20  O1  UNL     1      15.773  -1.959  52.458  1.00  0.00    -0.305 OA
ENDBRANCH  18  19
ENDBRANCH  17  18
ENDBRANCH   1  17
TORSDOF 6
ENDMDL
MODEL 6
REMARK VINA RESULT:      -6.4      4.622      6.656
REMARK  6 active torsions:
REMARK  status: ('A' for Active; 'I' for Inactive)
REMARK    1  A    between atoms: C1_2  and  C2_3 
REMARK    2  A    between atoms: C2_3  and  O2_4 
REMARK    3  A    between atoms: O2_4  and  C3_5 
REMARK    4  A    between atoms: C7_9  and  C8_10 
REMARK    5  A    between atoms: C9_11  and  C10_12 
REMARK    6  A    between atoms: C11_13  and  C12_14 
ROOT
HETATM    1  C3  UNL     1      26.596   0.346  53.251  1.00  0.00     0.071 A 
HETATM    2  C4  UNL     1      27.320   1.166  52.387  1.00  0.00     0.038 A 
HETATM    3  C5  UNL     1      26.691   1.971  51.464  1.00  0.00     0.019 A 
HETATM    4  C6  UNL     1      25.316   1.983  51.374  1.00  0.00     0.022 A 
HETATM    5  C7  UNL     1      24.688   2.780  50.461  1.00  0.00     0.070 A 
HETATM    6  N1  UNL     1      23.346   2.768  50.399  1.00  0.00    -0.241 NA
HETATM    7  C13 UNL     1      22.610   2.002  51.204  1.00  0.00     0.234 A 
HETATM    8  N2  UNL     1      23.230   1.206  52.116  1.00  0.00    -0.241 NA
HETATM    9  C14 UNL     1      24.571   1.182  52.217  1.00  0.00     0.073 A 
HETATM   10  C15 UNL     1      25.210   0.378  53.139  1.00  0.00     0.069 A 
ENDROOT
BRANCH   5  11
HETATM   11  C8  UNL     1      25.418   3.641  49.551  1.00  0.00     0.032 C 
HETATM   12  C9  UNL     1      25.454   4.971  49.747  1.00  0.00     0.002 C 
BRANCH  12  13
HETATM   13  C10 UNL     1      26.149   5.943  48.909  1.00  0.00    -0.002 C 
HETATM   14  C11 UNL     1      27.422   5.812  48.584  1.00  0.00     0.004 C 
BRANCH  14  15
HETATM   15  C12 UNL     1      28.071   6.837  47.727  1.00  0.00     0.249 C 
HETATM   16  F1  UNL     1      29.152   7.334  48.462  1.00  0.00    -0.251 F 
ENDBRANCH  14  15
ENDBRANCH  12  13
ENDBRANCH   5  11
BRANCH   1  17
HETATM   17  O2  UNL     1      27.307  -0.424  54.140  1.00  0.00    -0.344 OA
BRANCH  17  18
HETATM   18  C2  UNL     1      28.682  -0.290  54.389  1.00  0.00     0.244 C 
BRANCH  18  19
HETATM   19  C1  UNL     1      29.351  -1.441  53.697  1.00  0.00     0.257 C 
HETATM   20  O1  UNL     1      29.120  -2.587  53.379  1.00  0.00    -0.305 OA
ENDBRANCH  18  19
ENDBRANCH  17  18
ENDBRANCH   1  17
TORSDOF 6
ENDMDL
MODEL 7
REMARK VINA RESULT:      -6.3      1.643      2.443
REMARK  6 active torsions:
REMARK  status: ('A' for Active; 'I' for Inactive)
REMARK    1  A    between atoms: C1_2  and  C2_3 
REMARK    2  A    between atoms: C2_3  and  O2_4 
REMARK    3  A    between atoms: O2_4  and  C3_5 
REMARK    4  A    between atoms: C7_9  and  C8_10 
REMARK    5  A    between atoms: C9_11  and  C10_12 
REMARK    6  A    between atoms: C11_13  and  C12_14 
ROOT
HETATM    1  C3  UNL     1      24.576   0.644  52.904  1.00  0.00     0.071 A 
HETATM    2  C4  UNL     1      23.803  -0.448  53.294  1.00  0.00     0.038 A 
HETATM    3  C5  UNL     1      22.429  -0.379  53.336  1.00  0.00     0.019 A 
HETATM    4  C6  UNL     1      21.780   0.787  52.991  1.00  0.00     0.022 A 
HETATM    5  C7  UNL     1      20.418   0.860  53.031  1.00  0.00     0.070 A 
HETATM    6  N1  UNL     1      19.817   2.012  52.689  1.00  0.00    -0.241 NA
HETATM    7  C13 UNL     1      20.512   3.084  52.308  1.00  0.00     0.234 A 
HETATM    8  N2  UNL     1      21.870   3.017  52.266  1.00  0.00    -0.241 NA
HETATM    9  C14 UNL     1      22.518   1.886  52.600  1.00  0.00     0.073 A 
HETATM   10  C15 UNL     1      23.895   1.808  52.560  1.00  0.00     0.069 A 
ENDROOT
BRANCH   5  11
HETATM   11  C8  UNL     1      19.592  -0.261  53.434  1.00  0.00     0.032 C 
HETATM   12  C9  UNL     1      18.510  -0.608  52.714  1.00  0.00     0.002 C 
BRANCH  12  13
HETATM   13  C10 UNL     1      17.600  -1.710  53.010  1.00  0.00    -0.002 C 
HETATM   14  C11 UNL     1      17.997  -2.804  53.636  1.00  0.00     0.004 C 
BRANCH  14  15
HETATM   15  C12 UNL     1      17.021  -3.890  53.906  1.00  0.00     0.249 C 
HETATM   16  F1  UNL     1      16.653  -4.404  52.659  1.00  0.00    -0.251 F 
ENDBRANCH  14  15
ENDBRANCH  12  13
ENDBRANCH   5  11
BRANCH   1  17
HETATM   17  O2  UNL     1      25.940   0.484  52.890  1.00  0.00    -0.344 OA
BRANCH  17  18
HETATM   18  C2  UNL     1      26.655  -0.340  53.774  1.00  0.00     0.244 C 
BRANCH  18  19
HETATM   19  C1  UNL     1      27.337  -1.376  52.930  1.00  0.00     0.257 C 
HETATM   20  O1  UNL     1      27.415  -2.581  52.833  1.00  0.00    -0.305 OA
ENDBRANCH  18  19
ENDBRANCH  17  18
ENDBRANCH   1  17
TORSDOF 6
ENDMDL
MODEL 8
REMARK VINA RESULT:      -6.2      2.728      3.611
REMARK  6 active torsions:
REMARK  status: ('A' for Active; 'I' for Inactive)
REMARK    1  A    between atoms: C1_2  and  C2_3 
REMARK    2  A    between atoms: C2_3  and  O2_4 
REMARK    3  A    between atoms: O2_4  and  C3_5 
REMARK    4  A    between atoms: C7_9  and  C8_10 
REMARK    5  A    between atoms: C9_11  and  C10_12 
REMARK    6  A    between atoms: C11_13  and  C12_14 
ROOT
HETATM    1  C3  UNL     1      24.953   1.283  52.366  1.00  0.00     0.071 A 
HETATM    2  C4  UNL     1      23.904   1.671  51.534  1.00  0.00     0.038 A 
HETATM    3  C5  UNL     1      22.625   1.196  51.718  1.00  0.00     0.019 A 
HETATM    4  C6  UNL     1      22.351   0.315  52.741  1.00  0.00     0.022 A 
HETATM    5  C7  UNL     1      21.085  -0.159  52.928  1.00  0.00     0.070 A 
HETATM    6  N1  UNL     1      20.852  -1.017  53.935  1.00  0.00    -0.241 NA
HETATM    7  C13 UNL     1      21.821  -1.418  54.758  1.00  0.00     0.234 A 
HETATM    8  N2  UNL     1      23.085  -0.950  54.577  1.00  0.00    -0.241 NA
HETATM    9  C14 UNL     1      23.369  -0.089  53.583  1.00  0.00     0.073 A 
HETATM   10  C15 UNL     1      24.648   0.393  53.391  1.00  0.00     0.069 A 
ENDROOT
BRANCH   5  11
HETATM   11  C8  UNL     1      19.978   0.229  52.076  1.00  0.00     0.032 C 
HETATM   12  C9  UNL     1      18.739  -0.242  52.306  1.00  0.00     0.002 C 
BRANCH  12  13
HETATM   13  C10 UNL     1      17.544   0.070  51.527  1.00  0.00    -0.002 C 
HETATM   14  C11 UNL     1      17.480  -0.131  50.223  1.00  0.00     0.004 C 
BRANCH  14  15
HETATM   15  C12 UNL     1      16.234   0.208  49.489  1.00  0.00     0.249 C 
HETATM   16  F1  UNL     1      16.105  -0.749  48.477  1.00  0.00    -0.251 F 
ENDBRANCH  14  15
ENDBRANCH  12  13
ENDBRANCH   5  11
BRANCH   1  17
HETATM   17  O2  UNL     1      26.195   1.807  52.108  1.00  0.00    -0.344 OA
BRANCH  17  18
HETATM   18  C2  UNL     1      27.398   1.297  52.623  1.00  0.00     0.244 C 
BRANCH  18  19
HETATM   19  C1  UNL     1      27.966   2.366  53.510  1.00  0.00     0.257 C 
HETATM   20  O1  UNL     1      28.864   2.521  54.309  1.00  0.00    -0.305 OA
ENDBRANCH  18  19
ENDBRANCH  17  18
ENDBRANCH   1  17
TORSDOF 6
ENDMDL
MODEL 9
REMARK VINA RESULT:      -6.2      3.097      3.872
REMARK  6 active torsions:
REMARK  status: ('A' for Active; 'I' for Inactive)
REMARK    1  A    between atoms: C1_2  and  C2_3 
REMARK    2  A    between atoms: C2_3  and  O2_4 
REMARK    3  A    between atoms: O2_4  and  C3_5 
REMARK    4  A    between atoms: C7_9  and  C8_10 
REMARK    5  A    between atoms: C9_11  and  C10_12 
REMARK    6  A    between atoms: C11_13  and  C12_14 
ROOT
HETATM    1  C3  UNL     1      25.656  -0.300  54.212  1.00  0.00     0.071 A 
HETATM    2  C4  UNL     1      25.303   0.713  53.322  1.00  0.00     0.038 A 
HETATM    3  C5  UNL     1      23.989   0.949  52.984  1.00  0.00     0.019 A 
HETATM    4  C6  UNL     1      22.983   0.178  53.525  1.00  0.00     0.022 A 
HETATM    5  C7  UNL     1      21.680   0.407  53.193  1.00  0.00     0.070 A 
HETATM    6  N1  UNL     1      20.723  -0.362  53.738  1.00  0.00    -0.241 NA
HETATM    7  C13 UNL     1      21.010  -1.343  54.594  1.00  0.00     0.234 A 
HETATM    8  N2  UNL     1      22.306  -1.576  54.929  1.00  0.00    -0.241 NA
HETATM    9  C14 UNL     1      23.300  -0.833  54.410  1.00  0.00     0.073 A 
HETATM   10  C15 UNL     1      24.620  -1.062  54.744  1.00  0.00     0.069 A 
ENDROOT
BRANCH   5  11
HETATM   11  C8  UNL     1      21.286   1.454  52.269  1.00  0.00     0.032 C 
HETATM   12  C9  UNL     1      20.445   2.430  52.657  1.00  0.00     0.002 C 
BRANCH  12  13
HETATM   13  C10 UNL     1      19.974   3.535  51.829  1.00  0.00    -0.002 C 
HETATM   14  C11 UNL     1      18.971   3.403  50.980  1.00  0.00     0.004 C 
BRANCH  14  15
HETATM   15  C12 UNL     1      18.540   4.568  50.166  1.00  0.00     0.249 C 
HETATM   16  F1  UNL     1      17.172   4.730  50.410  1.00  0.00    -0.251 F 
ENDBRANCH  14  15
ENDBRANCH  12  13
ENDBRANCH   5  11
BRANCH   1  17
HETATM   17  O2  UNL     1      26.991  -0.463  54.492  1.00  0.00    -0.344 OA
BRANCH  17  18
HETATM   18  C2  UNL     1      28.031  -0.234  53.577  1.00  0.00     0.244 C 
BRANCH  18  19
HETATM   19  C1  UNL     1      28.835   0.907  54.126  1.00  0.00     0.257 C 
HETATM   20  O1  UNL     1      29.042   1.466  55.181  1.00  0.00    -0.305 OA
ENDBRANCH  18  19
ENDBRANCH  17  18
ENDBRANCH   1  17
TORSDOF 6
ENDMDL
