MODEL 1
REMARK VINA RESULT:      -8.5      0.000      0.000
REMARK  3 active torsions:
REMARK  status: ('A' for Active; 'I' for Inactive)
REMARK    1  A    between atoms: C3_3  and  N1_4 
REMARK    2  A    between atoms: N1_4  and  C4_5 
REMARK    3  A    between atoms: C8_11  and  C9_13 
ROOT
HETATM    1  C4  UNL     1      24.220   5.532  51.659  1.00  0.00     0.135 C 
HETATM    2  N2  UNL     1      24.997   5.326  50.602  1.00  0.00    -0.224 NA
HETATM    3  C5  UNL     1      25.286   4.127  49.837  1.00  0.00     0.229 C 
HETATM    4  N3  UNL     1      24.956   2.881  50.136  1.00  0.00    -0.272 NA
HETATM    5  C6  UNL     1      24.125   2.188  51.072  1.00  0.00     0.159 C 
HETATM    6  C7  UNL     1      22.732   2.756  51.199  1.00  0.00     0.004 C 
HETATM    7  C8  UNL     1      21.894   2.180  50.293  1.00  0.00     0.120 C 
HETATM    8  F1  UNL     1      22.619   1.268  49.566  1.00  0.00    -0.209 F 
HETATM    9  C11 UNL     1      22.342   3.808  52.194  1.00  0.00     0.023 C 
HETATM   10  C12 UNL     1      23.633   4.314  52.359  1.00  0.00    -0.010 C 
HETATM   11  C13 UNL     1      24.411   3.339  53.285  1.00  0.00     0.060 C 
HETATM   12  C14 UNL     1      24.657   2.070  52.477  1.00  0.00     0.028 C 
HETATM   13  C15 UNL     1      23.886   0.991  53.155  1.00  0.00     0.098 C 
HETATM   14  N4  UNL     1      24.432   0.142  53.956  1.00  0.00    -0.270 NA
HETATM   15  C16 UNL     1      25.787   0.135  54.355  1.00  0.00     0.341 C 
HETATM   16  C17 UNL     1      26.543   1.364  53.894  1.00  0.00     0.065 C 
HETATM   17  C18 UNL     1      26.100   1.636  52.472  1.00  0.00     0.007 C 
HETATM   18  C19 UNL     1      26.169   0.296  51.755  1.00  0.00     0.036 C 
HETATM   19  C20 UNL     1      27.088  -0.665  52.519  1.00  0.00     0.273 C 
HETATM   20  N5  UNL     1      26.505  -1.001  53.806  1.00  0.00     0.108 N 
HETATM   21  H25 UNL     1      25.820  -1.799  53.721  1.00  0.00     0.318 HD
ENDROOT
BRANCH   7  22
HETATM   22  C9  UNL     1      20.520   2.154  49.789  1.00  0.00     0.141 C 
HETATM   23  C10 UNL     1      20.635   2.129  48.259  1.00  0.00     0.034 C 
HETATM   24 CL1  UNL     1      19.567   0.763  50.351  1.00  0.00    -0.118 Cl
ENDBRANCH   7  22
BRANCH   1  25
HETATM   25  N1  UNL     1      24.137   6.957  51.860  1.00  0.00    -0.351 N 
HETATM   26  H6  UNL     1      24.522   7.143  52.813  1.00  0.00     0.166 HD
BRANCH  25  27
HETATM   27  C3  UNL     1      23.616   7.770  50.847  1.00  0.00     0.085 C 
HETATM   28  C2  UNL     1      22.456   7.811  50.242  1.00  0.00    -0.014 C 
HETATM   29  C1  UNL     1      22.332   8.862  49.201  1.00  0.00     0.037 C 
ENDBRANCH  25  27
ENDBRANCH   1  25
TORSDOF 3
ENDMDL
MODEL 2
REMARK VINA RESULT:      -8.1      2.733      5.933
REMARK  3 active torsions:
REMARK  status: ('A' for Active; 'I' for Inactive)
REMARK    1  A    between atoms: C3_3  and  N1_4 
REMARK    2  A    between atoms: N1_4  and  C4_5 
REMARK    3  A    between atoms: C8_11  and  C9_13 
ROOT
HETATM    1  C4  UNL     1      24.968   2.647  53.176  1.00  0.00     0.135 C 
HETATM    2  N2  UNL     1      24.425   3.823  53.470  1.00  0.00    -0.224 NA
HETATM    3  C5  UNL     1      23.107   4.370  53.203  1.00  0.00     0.229 C 
HETATM    4  N3  UNL     1      22.164   3.859  52.426  1.00  0.00    -0.272 NA
HETATM    5  C6  UNL     1      21.895   2.639  51.730  1.00  0.00     0.159 C 
HETATM    6  C7  UNL     1      22.107   1.395  52.559  1.00  0.00     0.004 C 
HETATM    7  C8  UNL     1      20.967   1.063  53.228  1.00  0.00     0.120 C 
HETATM    8  F1  UNL     1      20.006   1.991  52.910  1.00  0.00    -0.209 F 
HETATM    9  C11 UNL     1      23.401   0.641  52.625  1.00  0.00     0.023 C 
HETATM   10  C12 UNL     1      24.200   1.721  52.243  1.00  0.00    -0.010 C 
HETATM   11  C13 UNL     1      24.063   1.894  50.706  1.00  0.00     0.060 C 
HETATM   12  C14 UNL     1      22.655   2.420  50.448  1.00  0.00     0.028 C 
HETATM   13  C15 UNL     1      21.947   1.351  49.688  1.00  0.00     0.098 C 
HETATM   14  N4  UNL     1      21.796   1.390  48.409  1.00  0.00    -0.270 NA
HETATM   15  C16 UNL     1      22.310   2.382  47.545  1.00  0.00     0.341 C 
HETATM   16  C17 UNL     1      23.252   3.342  48.243  1.00  0.00     0.065 C 
HETATM   17  C18 UNL     1      22.628   3.656  49.587  1.00  0.00     0.007 C 
HETATM   18  C19 UNL     1      21.170   3.979  49.300  1.00  0.00     0.036 C 
HETATM   19  C20 UNL     1      20.993   4.354  47.824  1.00  0.00     0.273 C 
HETATM   20  N5  UNL     1      21.256   3.203  46.978  1.00  0.00     0.108 N 
HETATM   21  H25 UNL     1      20.399   2.596  46.877  1.00  0.00     0.318 HD
ENDROOT
BRANCH   7  22
HETATM   22  C9  UNL     1      20.366   0.104  54.155  1.00  0.00     0.141 C 
HETATM   23  C10 UNL     1      19.353  -0.699  53.328  1.00  0.00     0.034 C 
HETATM   24 CL1  UNL     1      21.535  -0.994  54.922  1.00  0.00    -0.118 Cl
ENDBRANCH   7  22
BRANCH   1  25
HETATM   25  N1  UNL     1      26.223   2.567  53.881  1.00  0.00    -0.351 N 
HETATM   26  H6  UNL     1      26.260   3.399  54.512  1.00  0.00     0.166 HD
BRANCH  25  27
HETATM   27  C3  UNL     1      27.089   1.496  53.633  1.00  0.00     0.085 C 
HETATM   28  C2  UNL     1      27.482   0.478  54.356  1.00  0.00    -0.014 C 
HETATM   29  C1  UNL     1      28.432  -0.439  53.678  1.00  0.00     0.037 C 
ENDBRANCH  25  27
ENDBRANCH   1  25
TORSDOF 3
ENDMDL
MODEL 3
REMARK VINA RESULT:      -8.0      2.553      6.517
REMARK  3 active torsions:
REMARK  status: ('A' for Active; 'I' for Inactive)
REMARK    1  A    between atoms: C3_3  and  N1_4 
REMARK    2  A    between atoms: N1_4  and  C4_5 
REMARK    3  A    between atoms: C8_11  and  C9_13 
ROOT
HETATM    1  C4  UNL     1      21.541   1.919  51.986  1.00  0.00     0.135 C 
HETATM    2  N2  UNL     1      21.384   1.577  50.712  1.00  0.00    -0.224 NA
HETATM    3  C5  UNL     1      22.149   1.909  49.523  1.00  0.00     0.229 C 
HETATM    4  N3  UNL     1      23.118   2.804  49.413  1.00  0.00    -0.272 NA
HETATM    5  C6  UNL     1      23.926   3.619  50.267  1.00  0.00     0.159 C 
HETATM    6  C7  UNL     1      24.526   2.880  51.439  1.00  0.00     0.004 C 
HETATM    7  C8  UNL     1      25.731   2.341  51.102  1.00  0.00     0.120 C 
HETATM    8  F1  UNL     1      25.985   2.662  49.791  1.00  0.00    -0.209 F 
HETATM    9  C11 UNL     1      23.871   2.766  52.783  1.00  0.00     0.023 C 
HETATM   10  C12 UNL     1      22.575   2.987  52.314  1.00  0.00    -0.010 C 
HETATM   11  C13 UNL     1      22.414   4.512  52.061  1.00  0.00     0.060 C 
HETATM   12  C14 UNL     1      23.265   4.845  50.841  1.00  0.00     0.028 C 
HETATM   13  C15 UNL     1      24.347   5.748  51.325  1.00  0.00     0.098 C 
HETATM   14  N4  UNL     1      24.302   7.027  51.181  1.00  0.00    -0.270 NA
HETATM   15  C16 UNL     1      23.233   7.760  50.619  1.00  0.00     0.341 C 
HETATM   16  C17 UNL     1      22.010   6.907  50.353  1.00  0.00     0.065 C 
HETATM   17  C18 UNL     1      22.512   5.600  49.776  1.00  0.00     0.007 C 
HETATM   18  C19 UNL     1      23.513   5.983  48.696  1.00  0.00     0.036 C 
HETATM   19  C20 UNL     1      23.283   7.433  48.254  1.00  0.00     0.273 C 
HETATM   20  N5  UNL     1      23.594   8.345  49.340  1.00  0.00     0.108 N 
HETATM   21  H25 UNL     1      24.624   8.568  49.372  1.00  0.00     0.318 HD
ENDROOT
BRANCH   7  22
HETATM   22  C9  UNL     1      26.861   1.551  51.591  1.00  0.00     0.141 C 
HETATM   23  C10 UNL     1      27.440   2.336  52.775  1.00  0.00     0.034 C 
HETATM   24 CL1  UNL     1      26.430  -0.096  52.103  1.00  0.00    -0.118 Cl
ENDBRANCH   7  22
BRANCH   1  25
HETATM   25  N1  UNL     1      20.625   1.119  52.760  1.00  0.00    -0.351 N 
HETATM   26  H6  UNL     1      19.665   1.382  52.444  1.00  0.00     0.166 HD
BRANCH  25  27
HETATM   27  C3  UNL     1      21.124   0.212  53.702  1.00  0.00     0.085 C 
HETATM   28  C2  UNL     1      22.270  -0.407  53.827  1.00  0.00    -0.014 C 
HETATM   29  C1  UNL     1      22.370  -1.300  55.009  1.00  0.00     0.037 C 
ENDBRANCH  25  27
ENDBRANCH   1  25
TORSDOF 3
ENDMDL
MODEL 4
REMARK VINA RESULT:      -8.0      2.792      5.400
REMARK  3 active torsions:
REMARK  status: ('A' for Active; 'I' for Inactive)
REMARK    1  A    between atoms: C3_3  and  N1_4 
REMARK    2  A    between atoms: N1_4  and  C4_5 
REMARK    3  A    between atoms: C8_11  and  C9_13 
ROOT
HETATM    1  C4  UNL     1      24.671   5.428  49.585  1.00  0.00     0.135 C 
HETATM    2  N2  UNL     1      24.247   6.085  50.659  1.00  0.00    -0.224 NA
HETATM    3  C5  UNL     1      23.631   5.624  51.890  1.00  0.00     0.229 C 
HETATM    4  N3  UNL     1      23.180   4.409  52.159  1.00  0.00    -0.272 NA
HETATM    5  C6  UNL     1      23.228   3.098  51.590  1.00  0.00     0.159 C 
HETATM    6  C7  UNL     1      24.608   2.662  51.158  1.00  0.00     0.004 C 
HETATM    7  C8  UNL     1      25.263   2.052  52.186  1.00  0.00     0.120 C 
HETATM    8  F1  UNL     1      24.427   2.045  53.275  1.00  0.00    -0.209 F 
HETATM    9  C11 UNL     1      25.164   2.879  49.783  1.00  0.00     0.023 C 
HETATM   10  C12 UNL     1      24.325   3.950  49.471  1.00  0.00    -0.010 C 
HETATM   11  C13 UNL     1      22.928   3.372  49.112  1.00  0.00     0.060 C 
HETATM   12  C14 UNL     1      22.324   2.848  50.411  1.00  0.00     0.028 C 
HETATM   13  C15 UNL     1      22.204   1.372  50.246  1.00  0.00     0.098 C 
HETATM   14  N4  UNL     1      21.097   0.794  49.932  1.00  0.00    -0.270 NA
HETATM   15  C16 UNL     1      19.877   1.445  49.642  1.00  0.00     0.341 C 
HETATM   16  C17 UNL     1      20.021   2.950  49.545  1.00  0.00     0.065 C 
HETATM   17  C18 UNL     1      20.936   3.370  50.676  1.00  0.00     0.007 C 
HETATM   18  C19 UNL     1      20.412   2.661  51.916  1.00  0.00     0.036 C 
HETATM   19  C20 UNL     1      18.957   2.230  51.702  1.00  0.00     0.273 C 
HETATM   20  N5  UNL     1      18.882   1.209  50.672  1.00  0.00     0.108 N 
HETATM   21  H25 UNL     1      19.058   0.247  51.069  1.00  0.00     0.318 HD
ENDROOT
BRANCH   7  22
HETATM   22  C9  UNL     1      26.511   1.401  52.583  1.00  0.00     0.141 C 
HETATM   23  C10 UNL     1      26.479   1.332  54.116  1.00  0.00     0.034 C 
HETATM   24 CL1  UNL     1      26.729  -0.228  51.904  1.00  0.00    -0.118 Cl
ENDBRANCH   7  22
BRANCH   1  25
HETATM   25  N1  UNL     1      25.400   6.367  48.769  1.00  0.00    -0.351 N 
HETATM   26  H6  UNL     1      24.701   7.063  48.426  1.00  0.00     0.166 HD
BRANCH  25  27
HETATM   27  C3  UNL     1      26.780   6.209  48.597  1.00  0.00     0.085 C 
HETATM   28  C2  UNL     1      27.563   5.160  48.570  1.00  0.00    -0.014 C 
HETATM   29  C1  UNL     1      29.001   5.462  48.356  1.00  0.00     0.037 C 
ENDBRANCH  25  27
ENDBRANCH   1  25
TORSDOF 3
ENDMDL
MODEL 5
REMARK VINA RESULT:      -7.8      2.908      6.050
REMARK  3 active torsions:
REMARK  status: ('A' for Active; 'I' for Inactive)
REMARK    1  A    between atoms: C3_3  and  N1_4 
REMARK    2  A    between atoms: N1_4  and  C4_5 
REMARK    3  A    between atoms: C8_11  and  C9_13 
ROOT
HETATM    1  C4  UNL     1      19.543   1.719  50.546  1.00  0.00     0.135 C 
HETATM    2  N2  UNL     1      20.130   1.284  49.437  1.00  0.00    -0.224 NA
HETATM    3  C5  UNL     1      21.530   1.135  49.083  1.00  0.00     0.229 C 
HETATM    4  N3  UNL     1      22.583   1.576  49.754  1.00  0.00    -0.272 NA
HETATM    5  C6  UNL     1      22.876   2.141  51.035  1.00  0.00     0.159 C 
HETATM    6  C7  UNL     1      22.248   1.405  52.193  1.00  0.00     0.004 C 
HETATM    7  C8  UNL     1      23.071   0.412  52.634  1.00  0.00     0.120 C 
HETATM    8  F1  UNL     1      24.204   0.426  51.859  1.00  0.00    -0.209 F 
HETATM    9  C11 UNL     1      20.903   1.735  52.767  1.00  0.00     0.023 C 
HETATM   10  C12 UNL     1      20.420   2.357  51.614  1.00  0.00    -0.010 C 
HETATM   11  C13 UNL     1      21.043   3.779  51.543  1.00  0.00     0.060 C 
HETATM   12  C14 UNL     1      22.522   3.593  51.221  1.00  0.00     0.028 C 
HETATM   13  C15 UNL     1      23.270   4.085  52.412  1.00  0.00     0.098 C 
HETATM   14  N4  UNL     1      23.808   5.253  52.463  1.00  0.00    -0.270 NA
HETATM   15  C16 UNL     1      23.728   6.246  51.461  1.00  0.00     0.341 C 
HETATM   16  C17 UNL     1      22.763   5.884  50.350  1.00  0.00     0.065 C 
HETATM   17  C18 UNL     1      22.984   4.417  50.047  1.00  0.00     0.007 C 
HETATM   18  C19 UNL     1      24.491   4.241  49.934  1.00  0.00     0.036 C 
HETATM   19  C20 UNL     1      25.162   5.593  49.666  1.00  0.00     0.273 C 
HETATM   20  N5  UNL     1      25.009   6.466  50.816  1.00  0.00     0.108 N 
HETATM   21  H25 UNL     1      25.761   6.290  51.535  1.00  0.00     0.318 HD
ENDROOT
BRANCH   7  22
HETATM   22  C9  UNL     1      23.218  -0.666  53.613  1.00  0.00     0.141 C 
HETATM   23  C10 UNL     1      24.637  -0.527  54.180  1.00  0.00     0.034 C 
HETATM   24 CL1  UNL     1      22.027  -0.618  54.931  1.00  0.00    -0.118 Cl
ENDBRANCH   7  22
BRANCH   1  25
HETATM   25  N1  UNL     1      18.134   1.437  50.423  1.00  0.00    -0.351 N 
HETATM   26  H6  UNL     1      17.781   2.039  49.646  1.00  0.00     0.166 HD
BRANCH  25  27
HETATM   27  C3  UNL     1      17.539   0.498  51.272  1.00  0.00     0.085 C 
HETATM   28  C2  UNL     1      18.009  -0.517  51.951  1.00  0.00    -0.014 C 
HETATM   29  C1  UNL     1      16.996  -1.262  52.741  1.00  0.00     0.037 C 
ENDBRANCH  25  27
ENDBRANCH   1  25
TORSDOF 3
ENDMDL
MODEL 6
REMARK VINA RESULT:      -7.6      2.804      5.514
REMARK  3 active torsions:
REMARK  status: ('A' for Active; 'I' for Inactive)
REMARK    1  A    between atoms: C3_3  and  N1_4 
REMARK    2  A    between atoms: N1_4  and  C4_5 
REMARK    3  A    between atoms: C8_11  and  C9_13 
ROOT
HETATM    1  C4  UNL     1      25.147   3.270  51.037  1.00  0.00     0.135 C 
HETATM    2  N2  UNL     1      24.993   3.060  49.734  1.00  0.00    -0.224 NA
HETATM    3  C5  UNL     1      23.833   3.179  48.870  1.00  0.00     0.229 C 
HETATM    4  N3  UNL     1      22.573   3.368  49.233  1.00  0.00    -0.272 NA
HETATM    5  C6  UNL     1      21.837   3.701  50.413  1.00  0.00     0.159 C 
HETATM    6  C7  UNL     1      22.400   4.872  51.182  1.00  0.00     0.004 C 
HETATM    7  C8  UNL     1      21.872   6.043  50.730  1.00  0.00     0.120 C 
HETATM    8  F1  UNL     1      20.996   5.748  49.715  1.00  0.00    -0.209 F 
HETATM    9  C11 UNL     1      23.403   4.743  52.290  1.00  0.00     0.023 C 
HETATM   10  C12 UNL     1      23.897   3.505  51.874  1.00  0.00    -0.010 C 
HETATM   11  C13 UNL     1      22.876   2.416  52.303  1.00  0.00     0.060 C 
HETATM   12  C14 UNL     1      21.648   2.594  51.417  1.00  0.00     0.028 C 
HETATM   13  C15 UNL     1      20.538   3.001  52.324  1.00  0.00     0.098 C 
HETATM   14  N4  UNL     1      19.650   2.172  52.752  1.00  0.00    -0.270 NA
HETATM   15  C16 UNL     1      19.620   0.784  52.493  1.00  0.00     0.341 C 
HETATM   16  C17 UNL     1      20.869   0.288  51.793  1.00  0.00     0.065 C 
HETATM   17  C18 UNL     1      21.212   1.321  50.740  1.00  0.00     0.007 C 
HETATM   18  C19 UNL     1      19.909   1.616  50.011  1.00  0.00     0.036 C 
HETATM   19  C20 UNL     1      18.910   0.475  50.234  1.00  0.00     0.273 C 
HETATM   20  N5  UNL     1      18.512   0.420  51.629  1.00  0.00     0.108 N 
HETATM   21  H25 UNL     1      17.720   1.088  51.830  1.00  0.00     0.318 HD
ENDROOT
BRANCH   7  22
HETATM   22  C9  UNL     1      21.873   7.496  50.903  1.00  0.00     0.141 C 
HETATM   23  C10 UNL     1      23.242   7.977  50.402  1.00  0.00     0.034 C 
HETATM   24 CL1  UNL     1      20.574   8.334  50.026  1.00  0.00    -0.118 Cl
ENDBRANCH   7  22
BRANCH   1  25
HETATM   25  N1  UNL     1      26.561   3.218  51.315  1.00  0.00    -0.351 N 
HETATM   26  H6  UNL     1      26.972   4.088  50.908  1.00  0.00     0.166 HD
BRANCH  25  27
HETATM   27  C3  UNL     1      27.090   2.129  52.016  1.00  0.00     0.085 C 
HETATM   28  C2  UNL     1      26.740   0.871  52.108  1.00  0.00    -0.014 C 
HETATM   29  C1  UNL     1      27.607   0.046  52.987  1.00  0.00     0.037 C 
ENDBRANCH  25  27
ENDBRANCH   1  25
TORSDOF 3
ENDMDL
MODEL 7
REMARK VINA RESULT:      -7.4      2.102      6.160
REMARK  3 active torsions:
REMARK  status: ('A' for Active; 'I' for Inactive)
REMARK    1  A    between atoms: C3_3  and  N1_4 
REMARK    2  A    between atoms: N1_4  and  C4_5 
REMARK    3  A    between atoms: C8_11  and  C9_13 
ROOT
HETATM    1  C4  UNL     1      24.883   1.679  51.877  1.00  0.00     0.135 C 
HETATM    2  N2  UNL     1      24.898   2.378  53.007  1.00  0.00    -0.224 NA
HETATM    3  C5  UNL     1      24.236   3.614  53.384  1.00  0.00     0.229 C 
HETATM    4  N3  UNL     1      23.575   4.447  52.595  1.00  0.00    -0.272 NA
HETATM    5  C6  UNL     1      23.070   4.482  51.257  1.00  0.00     0.159 C 
HETATM    6  C7  UNL     1      22.308   3.244  50.852  1.00  0.00     0.004 C 
HETATM    7  C8  UNL     1      20.989   3.366  51.169  1.00  0.00     0.120 C 
HETATM    8  F1  UNL     1      20.808   4.593  51.758  1.00  0.00    -0.209 F 
HETATM    9  C11 UNL     1      22.935   2.052  50.191  1.00  0.00     0.023 C 
HETATM   10  C12 UNL     1      24.225   2.309  50.658  1.00  0.00    -0.010 C 
HETATM   11  C13 UNL     1      24.827   3.449  49.791  1.00  0.00     0.060 C 
HETATM   12  C14 UNL     1      24.082   4.725  50.168  1.00  0.00     0.028 C 
HETATM   13  C15 UNL     1      23.333   5.142  48.949  1.00  0.00     0.098 C 
HETATM   14  N4  UNL     1      23.754   6.064  48.155  1.00  0.00    -0.270 NA
HETATM   15  C16 UNL     1      24.977   6.760  48.269  1.00  0.00     0.341 C 
HETATM   16  C17 UNL     1      25.883   6.188  49.341  1.00  0.00     0.065 C 
HETATM   17  C18 UNL     1      24.998   5.867  50.527  1.00  0.00     0.007 C 
HETATM   18  C19 UNL     1      24.129   7.097  50.739  1.00  0.00     0.036 C 
HETATM   19  C20 UNL     1      24.770   8.317  50.068  1.00  0.00     0.273 C 
HETATM   20  N5  UNL     1      24.775   8.152  48.625  1.00  0.00     0.108 N 
HETATM   21  H25 UNL     1      23.859   8.459  48.200  1.00  0.00     0.318 HD
ENDROOT
BRANCH   7  22
HETATM   22  C9  UNL     1      19.688   2.698  51.129  1.00  0.00     0.141 C 
HETATM   23  C10 UNL     1      19.756   1.583  52.181  1.00  0.00     0.034 C 
HETATM   24 CL1  UNL     1      18.311   3.771  51.466  1.00  0.00    -0.118 Cl
ENDBRANCH   7  22
BRANCH   1  25
HETATM   25  N1  UNL     1      25.539   0.422  52.143  1.00  0.00    -0.351 N 
HETATM   26  H6  UNL     1      24.874  -0.325  51.841  1.00  0.00     0.166 HD
BRANCH  25  27
HETATM   27  C3  UNL     1      26.824   0.414  52.697  1.00  0.00     0.085 C 
HETATM   28  C2  UNL     1      27.680  -0.541  52.956  1.00  0.00    -0.014 C 
HETATM   29  C1  UNL     1      28.958  -0.086  53.559  1.00  0.00     0.037 C 
ENDBRANCH  25  27
ENDBRANCH   1  25
TORSDOF 3
ENDMDL
MODEL 8
REMARK VINA RESULT:      -7.4      2.963      4.738
REMARK  3 active torsions:
REMARK  status: ('A' for Active; 'I' for Inactive)
REMARK    1  A    between atoms: C3_3  and  N1_4 
REMARK    2  A    between atoms: N1_4  and  C4_5 
REMARK    3  A    between atoms: C8_11  and  C9_13 
ROOT
HETATM    1  C4  UNL     1      21.409   3.672  49.422  1.00  0.00     0.135 C 
HETATM    2  N2  UNL     1      20.832   3.769  50.614  1.00  0.00    -0.224 NA
HETATM    3  C5  UNL     1      21.354   4.169  51.908  1.00  0.00     0.229 C 
HETATM    4  N3  UNL     1      22.620   4.374  52.238  1.00  0.00    -0.272 NA
HETATM    5  C6  UNL     1      23.889   4.495  51.590  1.00  0.00     0.159 C 
HETATM    6  C7  UNL     1      23.887   5.417  50.394  1.00  0.00     0.004 C 
HETATM    7  C8  UNL     1      24.153   6.698  50.774  1.00  0.00     0.120 C 
HETATM    8  F1  UNL     1      24.333   6.706  52.135  1.00  0.00    -0.209 F 
HETATM    9  C11 UNL     1      23.627   4.965  48.988  1.00  0.00     0.023 C 
HETATM   10  C12 UNL     1      22.923   3.815  49.350  1.00  0.00    -0.010 C 
HETATM   11  C13 UNL     1      23.956   2.743  49.792  1.00  0.00     0.060 C 
HETATM   12  C14 UNL     1      24.527   3.211  51.127  1.00  0.00     0.028 C 
HETATM   13  C15 UNL     1      25.970   3.494  50.883  1.00  0.00     0.098 C 
HETATM   14  N4  UNL     1      26.905   2.665  51.196  1.00  0.00    -0.270 NA
HETATM   15  C16 UNL     1      26.719   1.376  51.743  1.00  0.00     0.341 C 
HETATM   16  C17 UNL     1      25.264   0.949  51.764  1.00  0.00     0.065 C 
HETATM   17  C18 UNL     1      24.467   2.159  52.203  1.00  0.00     0.007 C 
HETATM   18  C19 UNL     1      25.191   2.712  53.421  1.00  0.00     0.036 C 
HETATM   19  C20 UNL     1      26.093   1.634  54.033  1.00  0.00     0.273 C 
HETATM   20  N5  UNL     1      27.172   1.303  53.120  1.00  0.00     0.108 N 
HETATM   21  H25 UNL     1      27.982   1.971  53.223  1.00  0.00     0.318 HD
ENDROOT
BRANCH   7  22
HETATM   22  C9  UNL     1      24.320   8.071  50.298  1.00  0.00     0.141 C 
HETATM   23  C10 UNL     1      25.664   8.097  49.559  1.00  0.00     0.034 C 
HETATM   24 CL1  UNL     1      23.021   8.630  49.222  1.00  0.00    -0.118 Cl
ENDBRANCH   7  22
BRANCH   1  25
HETATM   25  N1  UNL     1      20.362   3.446  48.456  1.00  0.00    -0.351 N 
HETATM   26  H6  UNL     1      19.482   3.314  49.002  1.00  0.00     0.166 HD
BRANCH  25  27
HETATM   27  C3  UNL     1      20.668   3.449  47.090  1.00  0.00     0.085 C 
HETATM   28  C2  UNL     1      21.065   4.385  46.266  1.00  0.00    -0.014 C 
HETATM   29  C1  UNL     1      21.275   3.934  44.867  1.00  0.00     0.037 C 
ENDBRANCH  25  27
ENDBRANCH   1  25
TORSDOF 3
ENDMDL
MODEL 9
REMARK VINA RESULT:      -7.2      3.009      5.053
REMARK  3 active torsions:
REMARK  status: ('A' for Active; 'I' for Inactive)
REMARK    1  A    between atoms: C3_3  and  N1_4 
REMARK    2  A    between atoms: N1_4  and  C4_5 
REMARK    3  A    between atoms: C8_11  and  C9_13 
ROOT
HETATM    1  C4  UNL     1      21.110   3.410  49.989  1.00  0.00     0.135 C 
HETATM    2  N2  UNL     1      20.751   3.758  51.219  1.00  0.00    -0.224 NA
HETATM    3  C5  UNL     1      21.510   4.319  52.322  1.00  0.00     0.229 C 
HETATM    4  N3  UNL     1      22.824   4.458  52.409  1.00  0.00    -0.272 NA
HETATM    5  C6  UNL     1      23.970   4.351  51.559  1.00  0.00     0.159 C 
HETATM    6  C7  UNL     1      23.824   5.056  50.233  1.00  0.00     0.004 C 
HETATM    7  C8  UNL     1      24.231   6.352  50.330  1.00  0.00     0.120 C 
HETATM    8  F1  UNL     1      24.640   6.571  51.622  1.00  0.00    -0.209 F 
HETATM    9  C11 UNL     1      23.301   4.402  48.989  1.00  0.00     0.023 C 
HETATM   10  C12 UNL     1      22.596   3.399  49.657  1.00  0.00    -0.010 C 
HETATM   11  C13 UNL     1      23.619   2.325  50.118  1.00  0.00     0.060 C 
HETATM   12  C14 UNL     1      24.437   2.954  51.241  1.00  0.00     0.028 C 
HETATM   13  C15 UNL     1      25.833   3.058  50.728  1.00  0.00     0.098 C 
HETATM   14  N4  UNL     1      26.752   2.210  51.036  1.00  0.00    -0.270 NA
HETATM   15  C16 UNL     1      26.580   1.053  51.828  1.00  0.00     0.341 C 
HETATM   16  C17 UNL     1      25.126   0.772  52.152  1.00  0.00     0.065 C 
HETATM   17  C18 UNL     1      24.493   2.107  52.486  1.00  0.00     0.007 C 
HETATM   18  C19 UNL     1      25.448   2.786  53.456  1.00  0.00     0.036 C 
HETATM   19  C20 UNL     1      26.370   1.746  54.104  1.00  0.00     0.273 C 
HETATM   20  N5  UNL     1      27.255   1.169  53.107  1.00  0.00     0.108 N 
HETATM   21  H25 UNL     1      28.111   1.767  52.961  1.00  0.00     0.318 HD
ENDROOT
BRANCH   7  22
HETATM   22  C9  UNL     1      24.403   7.605  49.594  1.00  0.00     0.141 C 
HETATM   23  C10 UNL     1      23.103   8.394  49.800  1.00  0.00     0.034 C 
HETATM   24 CL1  UNL     1      25.795   8.575  50.125  1.00  0.00    -0.118 Cl
ENDBRANCH   7  22
BRANCH   1  25
HETATM   25  N1  UNL     1      19.903   3.124  49.255  1.00  0.00    -0.351 N 
HETATM   26  H6  UNL     1      19.916   3.745  48.414  1.00  0.00     0.166 HD
BRANCH  25  27
HETATM   27  C3  UNL     1      19.011   2.159  49.736  1.00  0.00     0.085 C 
HETATM   28  C2  UNL     1      19.150   0.900  50.067  1.00  0.00    -0.014 C 
HETATM   29  C1  UNL     1      17.908   0.240  50.541  1.00  0.00     0.037 C 
ENDBRANCH  25  27
ENDBRANCH   1  25
TORSDOF 3
ENDMDL
