MODEL 1
REMARK VINA RESULT:      -7.7      0.000      0.000
REMARK  10 active torsions:
REMARK  status: ('A' for Active; 'I' for Inactive)
REMARK    1  A    between atoms: O1_2  and  C2_3 
REMARK    2  A    between atoms: C6_9  and  N3_10 
REMARK    3  A    between atoms: N3_10  and  C7_11 
REMARK    4  A    between atoms: C15_21  and  O2_22 
REMARK    5  A    between atoms: O2_22  and  C16_23 
REMARK    6  A    between atoms: C16_23  and  C17_24 
REMARK    7  A    between atoms: C17_24  and  N4_25 
REMARK    8  A    between atoms: N4_25  and  C18_26 
REMARK    9  A    between atoms: C18_26  and  C19_27 
REMARK   10  A    between atoms: C19_27  and  N5_28 
ROOT
HETATM    1  C2  UNL     1      21.253   1.708  50.997  1.00  0.00     0.103 A 
HETATM    2  C3  UNL     1      20.796   0.700  51.714  1.00  0.00     0.067 A 
HETATM    3  C4  UNL     1      21.474   0.010  52.801  1.00  0.00     0.050 A 
HETATM    4  N1  UNL     1      20.998  -0.910  53.545  1.00  0.00    -0.246 NA
HETATM    5  C5  UNL     1      21.823  -1.494  54.542  1.00  0.00     0.229 C 
HETATM    6  N2  UNL     1      23.050  -1.160  54.716  1.00  0.00    -0.256 NA
HETATM    7  C6  UNL     1      23.731  -0.157  53.899  1.00  0.00     0.220 C 
HETATM    8  C13 UNL     1      22.759   0.643  53.170  1.00  0.00     0.107 A 
HETATM    9  C14 UNL     1      23.222   1.728  52.307  1.00  0.00     0.027 A 
HETATM   10  C15 UNL     1      22.563   2.254  51.304  1.00  0.00     0.099 A 
ENDROOT
BRANCH   7  11
HETATM   11  N3  UNL     1      24.832  -0.685  53.140  1.00  0.00    -0.366 N 
HETATM   12  H7  UNL     1      24.556  -1.363  52.355  1.00  0.00     0.161 HD
BRANCH  11  13
HETATM   13  C7  UNL     1      26.235  -0.505  53.208  1.00  0.00     0.031 A 
HETATM   14  C8  UNL     1      27.178  -1.498  53.091  1.00  0.00     0.032 A 
HETATM   15  C9  UNL     1      28.546  -1.354  53.160  1.00  0.00     0.046 A 
HETATM   16  C10 UNL     1      29.034  -0.080  53.368  1.00  0.00     0.138 A 
HETATM   17  F1  UNL     1      30.357   0.162  53.455  1.00  0.00    -0.204 F 
HETATM   18  C11 UNL     1      28.141   0.960  53.492  1.00  0.00     0.074 A 
HETATM   19 CL1  UNL     1      28.762   2.571  53.750  1.00  0.00    -0.081 Cl
HETATM   20  C12 UNL     1      26.804   0.733  53.412  1.00  0.00     0.056 A 
ENDBRANCH  11  13
ENDBRANCH   7  11
BRANCH  10  21
HETATM   21  O2  UNL     1      23.247   3.285  50.680  1.00  0.00    -0.347 OA
BRANCH  21  22
HETATM   22  C16 UNL     1      24.057   4.129  51.476  1.00  0.00     0.205 C 
BRANCH  22  23
HETATM   23  C17 UNL     1      23.389   5.423  51.862  1.00  0.00     0.296 C 
BRANCH  23  24
HETATM   24  N4  UNL     1      24.304   6.532  52.002  1.00  0.00     0.087 N 
HETATM   25  H17 UNL     1      25.288   6.237  52.210  1.00  0.00     0.316 HD
BRANCH  24  26
HETATM   26  C18 UNL     1      24.323   7.435  50.895  1.00  0.00     0.288 C 
BRANCH  26  27
HETATM   27  C19 UNL     1      25.669   7.341  50.220  1.00  0.00     0.145 C 
BRANCH  27  28
HETATM   28  N5  UNL     1      25.697   6.562  49.031  1.00  0.00    -0.419 N 
HETATM   29  C20 UNL     1      26.499   5.386  49.056  1.00  0.00     0.142 C 
HETATM   30  C21 UNL     1      24.456   6.322  48.379  1.00  0.00     0.142 C 
ENDBRANCH  27  28
ENDBRANCH  26  27
ENDBRANCH  24  26
ENDBRANCH  23  24
ENDBRANCH  22  23
ENDBRANCH  21  22
ENDBRANCH  10  21
BRANCH   1  31
HETATM   31  O1  UNL     1      20.581   2.325  49.962  1.00  0.00    -0.353 OA
HETATM   32  C1  UNL     1      20.713   1.756  48.662  1.00  0.00     0.210 C 
ENDBRANCH   1  31
TORSDOF 10
ENDMDL
MODEL 2
REMARK VINA RESULT:      -7.5      2.132      5.945
REMARK  10 active torsions:
REMARK  status: ('A' for Active; 'I' for Inactive)
REMARK    1  A    between atoms: O1_2  and  C2_3 
REMARK    2  A    between atoms: C6_9  and  N3_10 
REMARK    3  A    between atoms: N3_10  and  C7_11 
REMARK    4  A    between atoms: C15_21  and  O2_22 
REMARK    5  A    between atoms: O2_22  and  C16_23 
REMARK    6  A    between atoms: C16_23  and  C17_24 
REMARK    7  A    between atoms: C17_24  and  N4_25 
REMARK    8  A    between atoms: N4_25  and  C18_26 
REMARK    9  A    between atoms: C18_26  and  C19_27 
REMARK   10  A    between atoms: C19_27  and  N5_28 
ROOT
HETATM    1  C2  UNL     1      22.836   6.043  50.763  1.00  0.00     0.103 A 
HETATM    2  C3  UNL     1      23.892   6.371  50.044  1.00  0.00     0.067 A 
HETATM    3  C4  UNL     1      25.041   5.536  49.727  1.00  0.00     0.050 A 
HETATM    4  N1  UNL     1      26.020   5.829  48.965  1.00  0.00    -0.246 NA
HETATM    5  C5  UNL     1      27.075   4.894  48.798  1.00  0.00     0.229 C 
HETATM    6  N2  UNL     1      27.110   3.764  49.406  1.00  0.00    -0.256 NA
HETATM    7  C6  UNL     1      26.076   3.329  50.345  1.00  0.00     0.220 C 
HETATM    8  C13 UNL     1      24.879   4.140  50.189  1.00  0.00     0.107 A 
HETATM    9  C14 UNL     1      23.706   3.858  51.014  1.00  0.00     0.027 A 
HETATM   10  C15 UNL     1      22.740   4.697  51.298  1.00  0.00     0.099 A 
ENDROOT
BRANCH   7  11
HETATM   11  N3  UNL     1      26.560   3.143  51.686  1.00  0.00    -0.366 N 
HETATM   12  H7  UNL     1      26.396   3.974  52.345  1.00  0.00     0.161 HD
BRANCH  11  13
HETATM   13  C7  UNL     1      27.227   2.078  52.341  1.00  0.00     0.031 A 
HETATM   14  C8  UNL     1      28.306   2.205  53.183  1.00  0.00     0.032 A 
HETATM   15  C9  UNL     1      28.978   1.189  53.826  1.00  0.00     0.046 A 
HETATM   16  C10 UNL     1      28.527  -0.098  53.611  1.00  0.00     0.138 A 
HETATM   17  F1  UNL     1      29.122  -1.157  54.193  1.00  0.00    -0.204 F 
HETATM   18  C11 UNL     1      27.448  -0.292  52.779  1.00  0.00     0.074 A 
HETATM   19 CL1  UNL     1      26.878  -1.920  52.514  1.00  0.00    -0.081 Cl
HETATM   20  C12 UNL     1      26.841   0.765  52.182  1.00  0.00     0.056 A 
ENDBRANCH  11  13
ENDBRANCH   7  11
BRANCH  10  21
HETATM   21  O2  UNL     1      21.747   4.141  52.087  1.00  0.00    -0.347 OA
BRANCH  21  22
HETATM   22  C16 UNL     1      20.569   3.676  51.454  1.00  0.00     0.205 C 
BRANCH  22  23
HETATM   23  C17 UNL     1      20.173   2.281  51.860  1.00  0.00     0.296 C 
BRANCH  23  24
HETATM   24  N4  UNL     1      20.751   1.247  51.033  1.00  0.00     0.087 N 
HETATM   25  H17 UNL     1      21.374   1.618  50.277  1.00  0.00     0.316 HD
BRANCH  24  26
HETATM   26  C18 UNL     1      21.458   0.233  51.751  1.00  0.00     0.288 C 
BRANCH  26  27
HETATM   27  C19 UNL     1      21.579   0.659  53.193  1.00  0.00     0.145 C 
BRANCH  27  28
HETATM   28  N5  UNL     1      22.236  -0.269  54.046  1.00  0.00    -0.419 N 
HETATM   29  C20 UNL     1      21.475  -1.394  54.472  1.00  0.00     0.142 C 
HETATM   30  C21 UNL     1      23.562  -0.649  53.698  1.00  0.00     0.142 C 
ENDBRANCH  27  28
ENDBRANCH  26  27
ENDBRANCH  24  26
ENDBRANCH  23  24
ENDBRANCH  22  23
ENDBRANCH  21  22
ENDBRANCH  10  21
BRANCH   1  31
HETATM   31  O1  UNL     1      21.774   6.874  51.052  1.00  0.00    -0.353 OA
HETATM   32  C1  UNL     1      20.961   7.302  49.961  1.00  0.00     0.210 C 
ENDBRANCH   1  31
TORSDOF 10
ENDMDL
MODEL 3
REMARK VINA RESULT:      -7.4      1.781      2.301
REMARK  10 active torsions:
REMARK  status: ('A' for Active; 'I' for Inactive)
REMARK    1  A    between atoms: O1_2  and  C2_3 
REMARK    2  A    between atoms: C6_9  and  N3_10 
REMARK    3  A    between atoms: N3_10  and  C7_11 
REMARK    4  A    between atoms: C15_21  and  O2_22 
REMARK    5  A    between atoms: O2_22  and  C16_23 
REMARK    6  A    between atoms: C16_23  and  C17_24 
REMARK    7  A    between atoms: C17_24  and  N4_25 
REMARK    8  A    between atoms: N4_25  and  C18_26 
REMARK    9  A    between atoms: C18_26  and  C19_27 
REMARK   10  A    between atoms: C19_27  and  N5_28 
ROOT
HETATM    1  C2  UNL     1      22.172   1.939  50.519  1.00  0.00     0.103 A 
HETATM    2  C3  UNL     1      21.558   1.007  51.222  1.00  0.00     0.067 A 
HETATM    3  C4  UNL     1      22.072   0.288  52.378  1.00  0.00     0.050 A 
HETATM    4  N1  UNL     1      21.446  -0.554  53.103  1.00  0.00    -0.246 NA
HETATM    5  C5  UNL     1      22.124  -1.184  54.179  1.00  0.00     0.229 C 
HETATM    6  N2  UNL     1      23.361  -0.971  54.445  1.00  0.00    -0.256 NA
HETATM    7  C6  UNL     1      24.205  -0.070  53.661  1.00  0.00     0.220 C 
HETATM    8  C13 UNL     1      23.382   0.800  52.834  1.00  0.00     0.107 A 
HETATM    9  C14 UNL     1      24.023   1.803  51.985  1.00  0.00     0.027 A 
HETATM   10  C15 UNL     1      23.503   2.359  50.919  1.00  0.00     0.099 A 
ENDROOT
BRANCH   7  11
HETATM   11  N3  UNL     1      25.302  -0.732  53.008  1.00  0.00    -0.366 N 
HETATM   12  H7  UNL     1      25.021  -1.403  52.220  1.00  0.00     0.161 HD
BRANCH  11  13
HETATM   13  C7  UNL     1      26.706  -0.694  53.189  1.00  0.00     0.031 A 
HETATM   14  C8  UNL     1      27.570  -1.743  52.981  1.00  0.00     0.032 A 
HETATM   15  C9  UNL     1      28.936  -1.738  53.154  1.00  0.00     0.046 A 
HETATM   16  C10 UNL     1      29.511  -0.558  53.581  1.00  0.00     0.138 A 
HETATM   17  F1  UNL     1      30.840  -0.455  53.783  1.00  0.00    -0.204 F 
HETATM   18  C11 UNL     1      28.700   0.532  53.806  1.00  0.00     0.074 A 
HETATM   19 CL1  UNL     1      29.432   2.024  54.340  1.00  0.00    -0.081 Cl
HETATM   20  C12 UNL     1      27.359   0.443  53.610  1.00  0.00     0.056 A 
ENDBRANCH  11  13
ENDBRANCH   7  11
BRANCH  10  21
HETATM   21  O2  UNL     1      24.337   3.293  50.328  1.00  0.00    -0.347 OA
BRANCH  21  22
HETATM   22  C16 UNL     1      25.705   3.294  50.690  1.00  0.00     0.205 C 
BRANCH  22  23
HETATM   23  C17 UNL     1      26.644   3.344  49.514  1.00  0.00     0.296 C 
BRANCH  23  24
HETATM   24  N4  UNL     1      26.706   4.636  48.871  1.00  0.00     0.087 N 
HETATM   25  H17 UNL     1      26.211   5.390  49.403  1.00  0.00     0.316 HD
BRANCH  24  26
HETATM   26  C18 UNL     1      28.026   5.087  48.561  1.00  0.00     0.288 C 
BRANCH  26  27
HETATM   27  C19 UNL     1      27.980   6.573  48.308  1.00  0.00     0.145 C 
BRANCH  27  28
HETATM   28  N5  UNL     1      29.247   7.210  48.206  1.00  0.00    -0.419 N 
HETATM   29  C20 UNL     1      29.397   8.449  48.891  1.00  0.00     0.142 C 
HETATM   30  C21 UNL     1      30.401   6.394  48.363  1.00  0.00     0.142 C 
ENDBRANCH  27  28
ENDBRANCH  26  27
ENDBRANCH  24  26
ENDBRANCH  23  24
ENDBRANCH  22  23
ENDBRANCH  21  22
ENDBRANCH  10  21
BRANCH   1  31
HETATM   31  O1  UNL     1      21.651   2.586  49.417  1.00  0.00    -0.353 OA
HETATM   32  C1  UNL     1      21.344   1.791  48.274  1.00  0.00     0.210 C 
ENDBRANCH   1  31
TORSDOF 10
ENDMDL
MODEL 4
REMARK VINA RESULT:      -7.4      3.496      6.020
REMARK  10 active torsions:
REMARK  status: ('A' for Active; 'I' for Inactive)
REMARK    1  A    between atoms: O1_2  and  C2_3 
REMARK    2  A    between atoms: C6_9  and  N3_10 
REMARK    3  A    between atoms: N3_10  and  C7_11 
REMARK    4  A    between atoms: C15_21  and  O2_22 
REMARK    5  A    between atoms: O2_22  and  C16_23 
REMARK    6  A    between atoms: C16_23  and  C17_24 
REMARK    7  A    between atoms: C17_24  and  N4_25 
REMARK    8  A    between atoms: N4_25  and  C18_26 
REMARK    9  A    between atoms: C18_26  and  C19_27 
REMARK   10  A    between atoms: C19_27  and  N5_28 
ROOT
HETATM    1  C2  UNL     1      27.314   0.679  53.570  1.00  0.00     0.103 A 
HETATM    2  C3  UNL     1      26.775   0.054  54.599  1.00  0.00     0.067 A 
HETATM    3  C4  UNL     1      25.419  -0.462  54.709  1.00  0.00     0.050 A 
HETATM    4  N1  UNL     1      24.927  -1.136  55.674  1.00  0.00    -0.246 NA
HETATM    5  C5  UNL     1      23.565  -1.531  55.622  1.00  0.00     0.229 C 
HETATM    6  N2  UNL     1      22.783  -1.215  54.655  1.00  0.00    -0.256 NA
HETATM    7  C6  UNL     1      23.207  -0.403  53.514  1.00  0.00     0.220 C 
HETATM    8  C13 UNL     1      24.660  -0.352  53.445  1.00  0.00     0.107 A 
HETATM    9  C14 UNL     1      25.302   0.388  52.360  1.00  0.00     0.027 A 
HETATM   10  C15 UNL     1      26.520   0.872  52.369  1.00  0.00     0.099 A 
ENDROOT
BRANCH   7  11
HETATM   11  N3  UNL     1      22.511   0.850  53.409  1.00  0.00    -0.366 N 
HETATM   12  H7  UNL     1      22.650   1.516  54.239  1.00  0.00     0.161 HD
BRANCH  11  13
HETATM   13  C7  UNL     1      21.655   1.407  52.428  1.00  0.00     0.031 A 
HETATM   14  C8  UNL     1      20.526   2.152  52.677  1.00  0.00     0.032 A 
HETATM   15  C9  UNL     1      19.673   2.699  51.745  1.00  0.00     0.046 A 
HETATM   16  C10 UNL     1      19.974   2.486  50.415  1.00  0.00     0.138 A 
HETATM   17  F1  UNL     1      19.197   2.978  49.430  1.00  0.00    -0.204 F 
HETATM   18  C11 UNL     1      21.093   1.750  50.098  1.00  0.00     0.074 A 
HETATM   19 CL1  UNL     1      21.474   1.487  48.415  1.00  0.00    -0.081 Cl
HETATM   20  C12 UNL     1      21.884   1.243  51.079  1.00  0.00     0.056 A 
ENDBRANCH  11  13
ENDBRANCH   7  11
BRANCH  10  21
HETATM   21  O2  UNL     1      26.864   1.508  51.189  1.00  0.00    -0.347 OA
BRANCH  21  22
HETATM   22  C16 UNL     1      26.407   2.832  50.983  1.00  0.00     0.205 C 
BRANCH  22  23
HETATM   23  C17 UNL     1      26.492   3.288  49.550  1.00  0.00     0.296 C 
BRANCH  23  24
HETATM   24  N4  UNL     1      25.764   4.506  49.282  1.00  0.00     0.087 N 
HETATM   25  H17 UNL     1      25.144   4.445  48.440  1.00  0.00     0.316 HD
BRANCH  24  26
HETATM   26  C18 UNL     1      24.994   4.997  50.381  1.00  0.00     0.288 C 
BRANCH  26  27
HETATM   27  C19 UNL     1      23.531   4.803  50.068  1.00  0.00     0.145 C 
BRANCH  27  28
HETATM   28  N5  UNL     1      22.660   4.852  51.191  1.00  0.00    -0.419 N 
HETATM   29  C20 UNL     1      23.267   4.760  52.475  1.00  0.00     0.142 C 
HETATM   30  C21 UNL     1      21.634   5.837  51.178  1.00  0.00     0.142 C 
ENDBRANCH  27  28
ENDBRANCH  26  27
ENDBRANCH  24  26
ENDBRANCH  23  24
ENDBRANCH  22  23
ENDBRANCH  21  22
ENDBRANCH  10  21
BRANCH   1  31
HETATM   31  O1  UNL     1      28.603   1.167  53.513  1.00  0.00    -0.353 OA
HETATM   32  C1  UNL     1      29.666   0.230  53.671  1.00  0.00     0.210 C 
ENDBRANCH   1  31
TORSDOF 10
ENDMDL
MODEL 5
REMARK VINA RESULT:      -7.3      3.186      5.462
REMARK  10 active torsions:
REMARK  status: ('A' for Active; 'I' for Inactive)
REMARK    1  A    between atoms: O1_2  and  C2_3 
REMARK    2  A    between atoms: C6_9  and  N3_10 
REMARK    3  A    between atoms: N3_10  and  C7_11 
REMARK    4  A    between atoms: C15_21  and  O2_22 
REMARK    5  A    between atoms: O2_22  and  C16_23 
REMARK    6  A    between atoms: C16_23  and  C17_24 
REMARK    7  A    between atoms: C17_24  and  N4_25 
REMARK    8  A    between atoms: N4_25  and  C18_26 
REMARK    9  A    between atoms: C18_26  and  C19_27 
REMARK   10  A    between atoms: C19_27  and  N5_28 
ROOT
HETATM    1  C2  UNL     1      27.408   0.786  53.867  1.00  0.00     0.103 A 
HETATM    2  C3  UNL     1      26.767   0.127  54.813  1.00  0.00     0.067 A 
HETATM    3  C4  UNL     1      25.415  -0.407  54.758  1.00  0.00     0.050 A 
HETATM    4  N1  UNL     1      24.828  -1.112  55.644  1.00  0.00    -0.246 NA
HETATM    5  C5  UNL     1      23.486  -1.521  55.430  1.00  0.00     0.229 C 
HETATM    6  N2  UNL     1      22.812  -1.188  54.391  1.00  0.00    -0.256 NA
HETATM    7  C6  UNL     1      23.349  -0.341  53.326  1.00  0.00     0.220 C 
HETATM    8  C13 UNL     1      24.799  -0.271  53.421  1.00  0.00     0.107 A 
HETATM    9  C14 UNL     1      25.548   0.505  52.433  1.00  0.00     0.027 A 
HETATM   10  C15 UNL     1      26.750   1.002  52.591  1.00  0.00     0.099 A 
ENDROOT
BRANCH   7  11
HETATM   11  N3  UNL     1      22.650   0.907  53.176  1.00  0.00    -0.366 N 
HETATM   12  H7  UNL     1      22.144   1.250  54.057  1.00  0.00     0.161 HD
BRANCH  11  13
HETATM   13  C7  UNL     1      22.477   1.800  52.090  1.00  0.00     0.031 A 
HETATM   14  C8  UNL     1      22.422   1.447  50.763  1.00  0.00     0.032 A 
HETATM   15  C9  UNL     1      22.262   2.292  49.688  1.00  0.00     0.046 A 
HETATM   16  C10 UNL     1      22.141   3.639  49.959  1.00  0.00     0.138 A 
HETATM   17  F1  UNL     1      21.985   4.545  48.973  1.00  0.00    -0.204 F 
HETATM   18  C11 UNL     1      22.186   4.058  51.269  1.00  0.00     0.074 A 
HETATM   19 CL1  UNL     1      22.027   5.763  51.610  1.00  0.00    -0.081 Cl
HETATM   20  C12 UNL     1      22.347   3.159  52.274  1.00  0.00     0.056 A 
ENDBRANCH  11  13
ENDBRANCH   7  11
BRANCH  10  21
HETATM   21  O2  UNL     1      27.214   1.675  51.473  1.00  0.00    -0.347 OA
BRANCH  21  22
HETATM   22  C16 UNL     1      26.265   2.253  50.597  1.00  0.00     0.205 C 
BRANCH  22  23
HETATM   23  C17 UNL     1      26.640   3.632  50.121  1.00  0.00     0.296 C 
BRANCH  23  24
HETATM   24  N4  UNL     1      25.743   4.669  50.575  1.00  0.00     0.087 N 
HETATM   25  H17 UNL     1      26.076   5.162  51.438  1.00  0.00     0.316 HD
BRANCH  24  26
HETATM   26  C18 UNL     1      25.413   5.650  49.589  1.00  0.00     0.288 C 
BRANCH  26  27
HETATM   27  C19 UNL     1      25.655   7.019  50.172  1.00  0.00     0.145 C 
BRANCH  27  28
HETATM   28  N5  UNL     1      26.540   7.847  49.429  1.00  0.00    -0.419 N 
HETATM   29  C20 UNL     1      27.096   8.965  50.113  1.00  0.00     0.142 C 
HETATM   30  C21 UNL     1      27.519   7.198  48.626  1.00  0.00     0.142 C 
ENDBRANCH  27  28
ENDBRANCH  26  27
ENDBRANCH  24  26
ENDBRANCH  23  24
ENDBRANCH  22  23
ENDBRANCH  21  22
ENDBRANCH  10  21
BRANCH   1  31
HETATM   31  O1  UNL     1      28.688   1.289  53.967  1.00  0.00    -0.353 OA
HETATM   32  C1  UNL     1      29.767   0.393  53.712  1.00  0.00     0.210 C 
ENDBRANCH   1  31
TORSDOF 10
ENDMDL
MODEL 6
REMARK VINA RESULT:      -7.2      3.947      6.275
REMARK  10 active torsions:
REMARK  status: ('A' for Active; 'I' for Inactive)
REMARK    1  A    between atoms: O1_2  and  C2_3 
REMARK    2  A    between atoms: C6_9  and  N3_10 
REMARK    3  A    between atoms: N3_10  and  C7_11 
REMARK    4  A    between atoms: C15_21  and  O2_22 
REMARK    5  A    between atoms: O2_22  and  C16_23 
REMARK    6  A    between atoms: C16_23  and  C17_24 
REMARK    7  A    between atoms: C17_24  and  N4_25 
REMARK    8  A    between atoms: N4_25  and  C18_26 
REMARK    9  A    between atoms: C18_26  and  C19_27 
REMARK   10  A    between atoms: C19_27  and  N5_28 
ROOT
HETATM    1  C2  UNL     1      27.262   0.670  53.538  1.00  0.00     0.103 A 
HETATM    2  C3  UNL     1      26.717   0.026  54.552  1.00  0.00     0.067 A 
HETATM    3  C4  UNL     1      25.354  -0.472  54.653  1.00  0.00     0.050 A 
HETATM    4  N1  UNL     1      24.855  -1.163  55.601  1.00  0.00    -0.246 NA
HETATM    5  C5  UNL     1      23.486  -1.536  55.544  1.00  0.00     0.229 C 
HETATM    6  N2  UNL     1      22.705  -1.181  54.589  1.00  0.00    -0.256 NA
HETATM    7  C6  UNL     1      23.139  -0.345  53.469  1.00  0.00     0.220 C 
HETATM    8  C13 UNL     1      24.591  -0.315  53.396  1.00  0.00     0.107 A 
HETATM    9  C14 UNL     1      25.242   0.444  52.329  1.00  0.00     0.027 A 
HETATM   10  C15 UNL     1      26.467   0.908  52.346  1.00  0.00     0.099 A 
ENDROOT
BRANCH   7  11
HETATM   11  N3  UNL     1      22.462   0.921  53.402  1.00  0.00    -0.366 N 
HETATM   12  H7  UNL     1      22.948   1.723  53.922  1.00  0.00     0.161 HD
BRANCH  11  13
HETATM   13  C7  UNL     1      21.259   1.349  52.787  1.00  0.00     0.031 A 
HETATM   14  C8  UNL     1      20.913   2.653  52.523  1.00  0.00     0.032 A 
HETATM   15  C9  UNL     1      19.751   3.099  51.935  1.00  0.00     0.046 A 
HETATM   16  C10 UNL     1      18.828   2.143  51.562  1.00  0.00     0.138 A 
HETATM   17  F1  UNL     1      17.659   2.481  50.983  1.00  0.00    -0.204 F 
HETATM   18  C11 UNL     1      19.115   0.817  51.797  1.00  0.00     0.074 A 
HETATM   19 CL1  UNL     1      17.948  -0.390  51.320  1.00  0.00    -0.081 Cl
HETATM   20  C12 UNL     1      20.287   0.460  52.384  1.00  0.00     0.056 A 
ENDBRANCH  11  13
ENDBRANCH   7  11
BRANCH  10  21
HETATM   21  O2  UNL     1      26.817   1.571  51.182  1.00  0.00    -0.347 OA
BRANCH  21  22
HETATM   22  C16 UNL     1      26.291   2.867  50.965  1.00  0.00     0.205 C 
BRANCH  22  23
HETATM   23  C17 UNL     1      26.617   3.435  49.608  1.00  0.00     0.296 C 
BRANCH  23  24
HETATM   24  N4  UNL     1      27.163   4.771  49.652  1.00  0.00     0.087 N 
HETATM   25  H17 UNL     1      27.783   4.942  50.479  1.00  0.00     0.316 HD
BRANCH  24  26
HETATM   26  C18 UNL     1      27.859   5.171  48.469  1.00  0.00     0.288 C 
BRANCH  26  27
HETATM   27  C19 UNL     1      27.638   6.648  48.258  1.00  0.00     0.145 C 
BRANCH  27  28
HETATM   28  N5  UNL     1      26.515   7.196  48.936  1.00  0.00    -0.419 N 
HETATM   29  C20 UNL     1      26.766   8.297  49.802  1.00  0.00     0.142 C 
HETATM   30  C21 UNL     1      25.330   7.401  48.175  1.00  0.00     0.142 C 
ENDBRANCH  27  28
ENDBRANCH  26  27
ENDBRANCH  24  26
ENDBRANCH  23  24
ENDBRANCH  22  23
ENDBRANCH  21  22
ENDBRANCH  10  21
BRANCH   1  31
HETATM   31  O1  UNL     1      28.559   1.139  53.489  1.00  0.00    -0.353 OA
HETATM   32  C1  UNL     1      29.607   0.182  53.622  1.00  0.00     0.210 C 
ENDBRANCH   1  31
TORSDOF 10
ENDMDL
MODEL 7
REMARK VINA RESULT:      -7.2      4.346      8.683
REMARK  10 active torsions:
REMARK  status: ('A' for Active; 'I' for Inactive)
REMARK    1  A    between atoms: O1_2  and  C2_3 
REMARK    2  A    between atoms: C6_9  and  N3_10 
REMARK    3  A    between atoms: N3_10  and  C7_11 
REMARK    4  A    between atoms: C15_21  and  O2_22 
REMARK    5  A    between atoms: O2_22  and  C16_23 
REMARK    6  A    between atoms: C16_23  and  C17_24 
REMARK    7  A    between atoms: C17_24  and  N4_25 
REMARK    8  A    between atoms: N4_25  and  C18_26 
REMARK    9  A    between atoms: C18_26  and  C19_27 
REMARK   10  A    between atoms: C19_27  and  N5_28 
ROOT
HETATM    1  C2  UNL     1      25.788   6.894  49.930  1.00  0.00     0.103 A 
HETATM    2  C3  UNL     1      26.374   8.073  50.000  1.00  0.00     0.067 A 
HETATM    3  C4  UNL     1      27.630   8.475  49.384  1.00  0.00     0.050 A 
HETATM    4  N1  UNL     1      28.153   9.637  49.387  1.00  0.00    -0.246 NA
HETATM    5  C5  UNL     1      29.410   9.837  48.756  1.00  0.00     0.229 C 
HETATM    6  N2  UNL     1      30.071   8.887  48.203  1.00  0.00    -0.256 NA
HETATM    7  C6  UNL     1      29.608   7.499  48.175  1.00  0.00     0.220 C 
HETATM    8  C13 UNL     1      28.190   7.434  48.494  1.00  0.00     0.107 A 
HETATM    9  C14 UNL     1      27.512   6.139  48.497  1.00  0.00     0.027 A 
HETATM   10  C15 UNL     1      26.404   5.848  49.134  1.00  0.00     0.099 A 
ENDROOT
BRANCH   7  11
HETATM   11  N3  UNL     1      30.471   6.592  48.880  1.00  0.00    -0.366 N 
HETATM   12  H7  UNL     1      30.241   6.464  49.920  1.00  0.00     0.161 HD
BRANCH  11  13
HETATM   13  C7  UNL     1      31.591   5.815  48.492  1.00  0.00     0.031 A 
HETATM   14  C8  UNL     1      31.554   4.698  47.691  1.00  0.00     0.032 A 
HETATM   15  C9  UNL     1      32.622   3.921  47.304  1.00  0.00     0.046 A 
HETATM   16  C10 UNL     1      33.870   4.295  47.761  1.00  0.00     0.138 A 
HETATM   17  F1  UNL     1      34.975   3.595  47.439  1.00  0.00    -0.204 F 
HETATM   18  C11 UNL     1      33.976   5.406  48.566  1.00  0.00     0.074 A 
HETATM   19 CL1  UNL     1      35.556   5.879  49.137  1.00  0.00    -0.081 Cl
HETATM   20  C12 UNL     1      32.871   6.120  48.902  1.00  0.00     0.056 A 
ENDBRANCH  11  13
ENDBRANCH   7  11
BRANCH  10  21
HETATM   21  O2  UNL     1      25.986   4.543  48.933  1.00  0.00    -0.347 OA
BRANCH  21  22
HETATM   22  C16 UNL     1      26.332   3.572  49.904  1.00  0.00     0.205 C 
BRANCH  22  23
HETATM   23  C17 UNL     1      25.152   3.038  50.674  1.00  0.00     0.296 C 
BRANCH  23  24
HETATM   24  N4  UNL     1      24.838   3.798  51.861  1.00  0.00     0.087 N 
HETATM   25  H17 UNL     1      24.167   4.584  51.687  1.00  0.00     0.316 HD
BRANCH  24  26
HETATM   26  C18 UNL     1      24.357   3.021  52.959  1.00  0.00     0.288 C 
BRANCH  26  27
HETATM   27  C19 UNL     1      25.357   1.930  53.251  1.00  0.00     0.145 C 
BRANCH  27  28
HETATM   28  N5  UNL     1      24.799   0.640  53.467  1.00  0.00    -0.419 N 
HETATM   29  C20 UNL     1      23.451   0.449  53.054  1.00  0.00     0.142 C 
HETATM   30  C21 UNL     1      25.604  -0.483  53.128  1.00  0.00     0.142 C 
ENDBRANCH  27  28
ENDBRANCH  26  27
ENDBRANCH  24  26
ENDBRANCH  23  24
ENDBRANCH  22  23
ENDBRANCH  21  22
ENDBRANCH  10  21
BRANCH   1  31
HETATM   31  O1  UNL     1      24.601   6.551  50.543  1.00  0.00    -0.353 OA
HETATM   32  C1  UNL     1      23.723   7.613  50.911  1.00  0.00     0.210 C 
ENDBRANCH   1  31
TORSDOF 10
ENDMDL
MODEL 8
REMARK VINA RESULT:      -7.0      3.678      6.153
REMARK  10 active torsions:
REMARK  status: ('A' for Active; 'I' for Inactive)
REMARK    1  A    between atoms: O1_2  and  C2_3 
REMARK    2  A    between atoms: C6_9  and  N3_10 
REMARK    3  A    between atoms: N3_10  and  C7_11 
REMARK    4  A    between atoms: C15_21  and  O2_22 
REMARK    5  A    between atoms: O2_22  and  C16_23 
REMARK    6  A    between atoms: C16_23  and  C17_24 
REMARK    7  A    between atoms: C17_24  and  N4_25 
REMARK    8  A    between atoms: N4_25  and  C18_26 
REMARK    9  A    between atoms: C18_26  and  C19_27 
REMARK   10  A    between atoms: C19_27  and  N5_28 
ROOT
HETATM    1  C2  UNL     1      27.320   1.326  52.749  1.00  0.00     0.103 A 
HETATM    2  C3  UNL     1      26.581   0.476  53.435  1.00  0.00     0.067 A 
HETATM    3  C4  UNL     1      25.144   0.269  53.332  1.00  0.00     0.050 A 
HETATM    4  N1  UNL     1      24.447  -0.609  53.938  1.00  0.00    -0.246 NA
HETATM    5  C5  UNL     1      23.042  -0.641  53.737  1.00  0.00     0.229 C 
HETATM    6  N2  UNL     1      22.424   0.200  52.990  1.00  0.00    -0.256 NA
HETATM    7  C6  UNL     1      23.099   1.287  52.281  1.00  0.00     0.220 C 
HETATM    8  C13 UNL     1      24.532   1.042  52.230  1.00  0.00     0.107 A 
HETATM    9  C14 UNL     1      25.400   1.995  51.540  1.00  0.00     0.027 A 
HETATM   10  C15 UNL     1      26.686   2.154  51.739  1.00  0.00     0.099 A 
ENDROOT
BRANCH   7  11
HETATM   11  N3  UNL     1      22.682   2.596  52.705  1.00  0.00    -0.366 N 
HETATM   12  H7  UNL     1      22.678   2.748  53.766  1.00  0.00     0.161 HD
BRANCH  11  13
HETATM   13  C7  UNL     1      22.260   3.755  52.008  1.00  0.00     0.031 A 
HETATM   14  C8  UNL     1      21.026   3.937  51.428  1.00  0.00     0.032 A 
HETATM   15  C9  UNL     1      20.591   5.047  50.740  1.00  0.00     0.046 A 
HETATM   16  C10 UNL     1      21.478   6.097  50.613  1.00  0.00     0.138 A 
HETATM   17  F1  UNL     1      21.145   7.223  49.953  1.00  0.00    -0.204 F 
HETATM   18  C11 UNL     1      22.730   5.978  51.173  1.00  0.00     0.074 A 
HETATM   19 CL1  UNL     1      23.848   7.309  51.015  1.00  0.00    -0.081 Cl
HETATM   20  C12 UNL     1      23.082   4.847  51.837  1.00  0.00     0.056 A 
ENDBRANCH  11  13
ENDBRANCH   7  11
BRANCH  10  21
HETATM   21  O2  UNL     1      27.250   3.119  50.922  1.00  0.00    -0.347 OA
BRANCH  21  22
HETATM   22  C16 UNL     1      26.426   3.745  49.956  1.00  0.00     0.205 C 
BRANCH  22  23
HETATM   23  C17 UNL     1      27.188   4.566  48.949  1.00  0.00     0.296 C 
BRANCH  23  24
HETATM   24  N4  UNL     1      26.851   5.971  48.968  1.00  0.00     0.087 N 
HETATM   25  H17 UNL     1      26.523   6.308  49.904  1.00  0.00     0.316 HD
BRANCH  24  26
HETATM   26  C18 UNL     1      27.887   6.841  48.506  1.00  0.00     0.288 C 
BRANCH  26  27
HETATM   27  C19 UNL     1      29.064   6.001  48.078  1.00  0.00     0.145 C 
BRANCH  27  28
HETATM   28  N5  UNL     1      30.335   6.482  48.498  1.00  0.00    -0.419 N 
HETATM   29  C20 UNL     1      31.468   5.999  47.785  1.00  0.00     0.142 C 
HETATM   30  C21 UNL     1      30.451   7.875  48.761  1.00  0.00     0.142 C 
ENDBRANCH  27  28
ENDBRANCH  26  27
ENDBRANCH  24  26
ENDBRANCH  23  24
ENDBRANCH  22  23
ENDBRANCH  21  22
ENDBRANCH  10  21
BRANCH   1  31
HETATM   31  O1  UNL     1      28.681   1.500  52.889  1.00  0.00    -0.353 OA
HETATM   32  C1  UNL     1      29.335   0.754  53.913  1.00  0.00     0.210 C 
ENDBRANCH   1  31
TORSDOF 10
ENDMDL
MODEL 9
REMARK VINA RESULT:      -7.0      2.635      6.727
REMARK  10 active torsions:
REMARK  status: ('A' for Active; 'I' for Inactive)
REMARK    1  A    between atoms: O1_2  and  C2_3 
REMARK    2  A    between atoms: C6_9  and  N3_10 
REMARK    3  A    between atoms: N3_10  and  C7_11 
REMARK    4  A    between atoms: C15_21  and  O2_22 
REMARK    5  A    between atoms: O2_22  and  C16_23 
REMARK    6  A    between atoms: C16_23  and  C17_24 
REMARK    7  A    between atoms: C17_24  and  N4_25 
REMARK    8  A    between atoms: N4_25  and  C18_26 
REMARK    9  A    between atoms: C18_26  and  C19_27 
REMARK   10  A    between atoms: C19_27  and  N5_28 
ROOT
HETATM    1  C2  UNL     1      23.970   7.530  49.329  1.00  0.00     0.103 A 
HETATM    2  C3  UNL     1      25.228   7.655  48.951  1.00  0.00     0.067 A 
HETATM    3  C4  UNL     1      26.222   6.599  48.823  1.00  0.00     0.050 A 
HETATM    4  N1  UNL     1      27.412   6.712  48.381  1.00  0.00    -0.246 NA
HETATM    5  C5  UNL     1      28.257   5.570  48.359  1.00  0.00     0.229 C 
HETATM    6  N2  UNL     1      27.888   4.422  48.796  1.00  0.00    -0.256 NA
HETATM    7  C6  UNL     1      26.569   4.171  49.375  1.00  0.00     0.220 C 
HETATM    8  C13 UNL     1      25.655   5.250  49.034  1.00  0.00     0.107 A 
HETATM    9  C14 UNL     1      24.267   5.189  49.490  1.00  0.00     0.027 A 
HETATM   10  C15 UNL     1      23.455   6.207  49.633  1.00  0.00     0.099 A 
ENDROOT
BRANCH   7  11
HETATM   11  N3  UNL     1      26.614   3.775  50.757  1.00  0.00    -0.366 N 
HETATM   12  H7  UNL     1      27.224   4.393  51.385  1.00  0.00     0.161 HD
BRANCH  11  13
HETATM   13  C7  UNL     1      26.016   2.716  51.484  1.00  0.00     0.031 A 
HETATM   14  C8  UNL     1      24.854   2.800  52.214  1.00  0.00     0.032 A 
HETATM   15  C9  UNL     1      24.255   1.792  52.935  1.00  0.00     0.046 A 
HETATM   16  C10 UNL     1      24.876   0.560  52.931  1.00  0.00     0.138 A 
HETATM   17  F1  UNL     1      24.368  -0.487  53.611  1.00  0.00    -0.204 F 
HETATM   18  C11 UNL     1      26.044   0.409  52.218  1.00  0.00     0.074 A 
HETATM   19 CL1  UNL     1      26.825  -1.152  52.210  1.00  0.00    -0.081 Cl
HETATM   20  C12 UNL     1      26.571   1.456  51.531  1.00  0.00     0.056 A 
ENDBRANCH  11  13
ENDBRANCH   7  11
BRANCH  10  21
HETATM   21  O2  UNL     1      22.190   5.841  50.062  1.00  0.00    -0.347 OA
BRANCH  21  22
HETATM   22  C16 UNL     1      22.073   5.161  51.298  1.00  0.00     0.205 C 
BRANCH  22  23
HETATM   23  C17 UNL     1      21.351   3.843  51.199  1.00  0.00     0.296 C 
BRANCH  23  24
HETATM   24  N4  UNL     1      20.499   3.558  52.329  1.00  0.00     0.087 N 
HETATM   25  H17 UNL     1      19.838   4.337  52.560  1.00  0.00     0.316 HD
BRANCH  24  26
HETATM   26  C18 UNL     1      19.755   2.343  52.226  1.00  0.00     0.288 C 
BRANCH  26  27
HETATM   27  C19 UNL     1      20.306   1.354  53.223  1.00  0.00     0.145 C 
BRANCH  27  28
HETATM   28  N5  UNL     1      20.649   0.082  52.688  1.00  0.00    -0.419 N 
HETATM   29  C20 UNL     1      21.399   0.078  51.479  1.00  0.00     0.142 C 
HETATM   30  C21 UNL     1      21.136  -0.898  53.597  1.00  0.00     0.142 C 
ENDBRANCH  27  28
ENDBRANCH  26  27
ENDBRANCH  24  26
ENDBRANCH  23  24
ENDBRANCH  22  23
ENDBRANCH  21  22
ENDBRANCH  10  21
BRANCH   1  31
HETATM   31  O1  UNL     1      23.064   8.563  49.451  1.00  0.00    -0.353 OA
HETATM   32  C1  UNL     1      22.366   8.964  48.275  1.00  0.00     0.210 C 
ENDBRANCH   1  31
TORSDOF 10
ENDMDL
