MODEL 1
REMARK VINA RESULT:      -8.5      0.000      0.000
REMARK  4 active torsions:
REMARK  status: ('A' for Active; 'I' for Inactive)
REMARK    1  A    between atoms: C2_2  and  N1_3 
REMARK    2  A    between atoms: N1_3  and  C3_4 
REMARK    3  A    between atoms: C4_5  and  C5_6 
REMARK    4  A    between atoms: C14_17  and  O1_18 
ROOT
HETATM    1  C3  UNL     1      24.931   0.973  52.431  1.00  0.00     0.037 A 
HETATM    2  C4  UNL     1      25.363   0.076  53.337  1.00  0.00    -0.017 A 
HETATM    3  C11 UNL     1      24.538  -0.698  54.294  1.00  0.00     0.082 A 
HETATM    4  C12 UNL     1      23.109  -0.329  54.131  1.00  0.00    -0.027 A 
HETATM    5  C13 UNL     1      22.112  -0.825  54.832  1.00  0.00     0.035 A 
HETATM    6  C14 UNL     1      20.810  -0.242  54.418  1.00  0.00     0.242 A 
HETATM    7  N2  UNL     1      21.208   0.660  53.370  1.00  0.00    -0.360 N 
HETATM    8  C15 UNL     1      22.617   0.643  53.162  1.00  0.00     0.038 A 
HETATM    9  C16 UNL     1      23.492   1.237  52.376  1.00  0.00     0.059 A 
HETATM   10  H15 UNL     1      20.547   1.254  52.832  1.00  0.00     0.162 HD
ENDROOT
BRANCH   2  11
HETATM   11  C5  UNL     1      26.781  -0.234  53.470  1.00  0.00    -0.021 A 
HETATM   12  C6  UNL     1      27.496   0.807  54.081  1.00  0.00     0.054 A 
HETATM   13  C7  UNL     1      28.870   0.742  54.281  1.00  0.00     0.120 A 
HETATM   14  F1  UNL     1      29.534   1.778  54.875  1.00  0.00    -0.206 F 
HETATM   15  C8  UNL     1      29.546  -0.391  53.862  1.00  0.00     0.084 A 
HETATM   16  C9  UNL     1      28.853  -1.419  53.263  1.00  0.00     0.120 A 
HETATM   17  F2  UNL     1      29.531  -2.504  52.864  1.00  0.00    -0.206 F 
HETATM   18  C10 UNL     1      27.491  -1.357  53.063  1.00  0.00     0.054 A 
ENDBRANCH   2  11
BRANCH   1  19
HETATM   19  N1  UNL     1      25.644   1.752  51.484  1.00  0.00    -0.390 N 
HETATM   20  H6  UNL     1      26.511   1.670  50.930  1.00  0.00     0.159 HD
BRANCH  19  21
HETATM   21  C2  UNL     1      24.989   3.021  51.203  1.00  0.00     0.115 C 
HETATM   22  C1  UNL     1      25.253   3.440  49.773  1.00  0.00     0.026 C 
ENDBRANCH  19  21
ENDBRANCH   1  19
BRANCH   6  23
HETATM   23  O1  UNL     1      19.935  -1.244  53.998  1.00  0.00    -0.373 OA
HETATM   24  H14 UNL     1      19.018  -0.969  54.250  1.00  0.00     0.212 HD
ENDBRANCH   6  23
TORSDOF 4
ENDMDL
MODEL 2
REMARK VINA RESULT:      -8.3      0.598      1.855
REMARK  4 active torsions:
REMARK  status: ('A' for Active; 'I' for Inactive)
REMARK    1  A    between atoms: C2_2  and  N1_3 
REMARK    2  A    between atoms: N1_3  and  C3_4 
REMARK    3  A    between atoms: C4_5  and  C5_6 
REMARK    4  A    between atoms: C14_17  and  O1_18 
ROOT
HETATM    1  C3  UNL     1      24.616   1.085  52.191  1.00  0.00     0.037 A 
HETATM    2  C4  UNL     1      25.059   0.216  53.120  1.00  0.00    -0.017 A 
HETATM    3  C11 UNL     1      24.246  -0.538  54.101  1.00  0.00     0.082 A 
HETATM    4  C12 UNL     1      22.812  -0.187  53.933  1.00  0.00    -0.027 A 
HETATM    5  C13 UNL     1      21.823  -0.672  54.652  1.00  0.00     0.035 A 
HETATM    6  C14 UNL     1      20.513  -0.113  54.227  1.00  0.00     0.242 A 
HETATM    7  N2  UNL     1      20.899   0.764  53.153  1.00  0.00    -0.360 N 
HETATM    8  C15 UNL     1      22.308   0.754  52.940  1.00  0.00     0.038 A 
HETATM    9  C16 UNL     1      23.174   1.334  52.134  1.00  0.00     0.059 A 
HETATM   10  H15 UNL     1      20.231   1.336  52.601  1.00  0.00     0.162 HD
ENDROOT
BRANCH   2  11
HETATM   11  C5  UNL     1      26.480  -0.076  53.256  1.00  0.00    -0.021 A 
HETATM   12  C6  UNL     1      26.784  -1.404  52.920  1.00  0.00     0.054 A 
HETATM   13  C7  UNL     1      28.075  -1.912  53.007  1.00  0.00     0.120 A 
HETATM   14  F1  UNL     1      28.331  -3.213  52.675  1.00  0.00    -0.206 F 
HETATM   15  C8  UNL     1      29.088  -1.073  53.438  1.00  0.00     0.084 A 
HETATM   16  C9  UNL     1      28.801   0.233  53.768  1.00  0.00     0.120 A 
HETATM   17  F2  UNL     1      29.799   1.024  54.185  1.00  0.00    -0.206 F 
HETATM   18  C10 UNL     1      27.522   0.739  53.684  1.00  0.00     0.054 A 
ENDBRANCH   2  11
BRANCH   1  19
HETATM   19  N1  UNL     1      25.318   1.844  51.220  1.00  0.00    -0.390 N 
HETATM   20  H6  UNL     1      26.128   1.715  50.594  1.00  0.00     0.159 HD
BRANCH  19  21
HETATM   21  C2  UNL     1      24.757   3.175  51.044  1.00  0.00     0.115 C 
HETATM   22  C1  UNL     1      24.888   3.610  49.600  1.00  0.00     0.026 C 
ENDBRANCH  19  21
ENDBRANCH   1  19
BRANCH   6  23
HETATM   23  O1  UNL     1      19.647  -1.134  53.839  1.00  0.00    -0.373 OA
HETATM   24  H14 UNL     1      19.102  -1.384  54.627  1.00  0.00     0.212 HD
ENDBRANCH   6  23
TORSDOF 4
ENDMDL
MODEL 3
REMARK VINA RESULT:      -8.1      2.286      4.048
REMARK  4 active torsions:
REMARK  status: ('A' for Active; 'I' for Inactive)
REMARK    1  A    between atoms: C2_2  and  N1_3 
REMARK    2  A    between atoms: N1_3  and  C3_4 
REMARK    3  A    between atoms: C4_5  and  C5_6 
REMARK    4  A    between atoms: C14_17  and  O1_18 
ROOT
HETATM    1  C3  UNL     1      24.683   0.732  52.631  1.00  0.00     0.037 A 
HETATM    2  C4  UNL     1      25.911   1.097  52.219  1.00  0.00    -0.017 A 
HETATM    3  C11 UNL     1      26.246   2.089  51.172  1.00  0.00     0.082 A 
HETATM    4  C12 UNL     1      24.996   2.645  50.595  1.00  0.00    -0.027 A 
HETATM    5  C13 UNL     1      24.936   3.544  49.636  1.00  0.00     0.035 A 
HETATM    6  C14 UNL     1      23.531   3.884  49.291  1.00  0.00     0.242 A 
HETATM    7  N2  UNL     1      22.792   3.047  50.201  1.00  0.00    -0.360 N 
HETATM    8  C15 UNL     1      23.654   2.263  51.020  1.00  0.00     0.038 A 
HETATM    9  C16 UNL     1      23.536   1.366  51.978  1.00  0.00     0.059 A 
HETATM   10  H15 UNL     1      21.756   3.017  50.251  1.00  0.00     0.162 HD
ENDROOT
BRANCH   2  11
HETATM   11  C5  UNL     1      27.106   0.503  52.805  1.00  0.00    -0.021 A 
HETATM   12  C6  UNL     1      27.868   1.439  53.521  1.00  0.00     0.054 A 
HETATM   13  C7  UNL     1      29.067   1.100  54.138  1.00  0.00     0.120 A 
HETATM   14  F1  UNL     1      29.783   2.040  54.823  1.00  0.00    -0.206 F 
HETATM   15  C8  UNL     1      29.516  -0.206  54.037  1.00  0.00     0.084 A 
HETATM   16  C9  UNL     1      28.774  -1.132  53.338  1.00  0.00     0.120 A 
HETATM   17  F2  UNL     1      29.232  -2.389  53.254  1.00  0.00    -0.206 F 
HETATM   18  C10 UNL     1      27.586  -0.798  52.726  1.00  0.00     0.054 A 
ENDBRANCH   2  11
BRANCH   1  19
HETATM   19  N1  UNL     1      24.274  -0.200  53.619  1.00  0.00    -0.390 N 
HETATM   20  H6  UNL     1      24.698  -0.696  54.419  1.00  0.00     0.159 HD
BRANCH  19  21
HETATM   21  C2  UNL     1      22.874  -0.574  53.485  1.00  0.00     0.115 C 
HETATM   22  C1  UNL     1      22.355  -1.133  54.792  1.00  0.00     0.026 C 
ENDBRANCH  19  21
ENDBRANCH   1  19
BRANCH   6  23
HETATM   23  O1  UNL     1      23.299   5.248  49.465  1.00  0.00    -0.373 OA
HETATM   24  H14 UNL     1      22.930   5.378  50.374  1.00  0.00     0.212 HD
ENDBRANCH   6  23
TORSDOF 4
ENDMDL
MODEL 4
REMARK VINA RESULT:      -8.0      4.100      6.741
REMARK  4 active torsions:
REMARK  status: ('A' for Active; 'I' for Inactive)
REMARK    1  A    between atoms: C2_2  and  N1_3 
REMARK    2  A    between atoms: N1_3  and  C3_4 
REMARK    3  A    between atoms: C4_5  and  C5_6 
REMARK    4  A    between atoms: C14_17  and  O1_18 
ROOT
HETATM    1  C3  UNL     1      24.468   0.028  53.283  1.00  0.00     0.037 A 
HETATM    2  C4  UNL     1      24.612   1.255  52.749  1.00  0.00    -0.017 A 
HETATM    3  C11 UNL     1      25.834   2.091  52.744  1.00  0.00     0.082 A 
HETATM    4  C12 UNL     1      26.929   1.378  53.450  1.00  0.00    -0.027 A 
HETATM    5  C13 UNL     1      28.145   1.844  53.633  1.00  0.00     0.035 A 
HETATM    6  C14 UNL     1      28.994   0.879  54.378  1.00  0.00     0.242 A 
HETATM    7  N2  UNL     1      28.083  -0.214  54.592  1.00  0.00    -0.360 N 
HETATM    8  C15 UNL     1      26.797   0.051  54.041  1.00  0.00     0.038 A 
HETATM    9  C16 UNL     1      25.634  -0.560  53.946  1.00  0.00     0.059 A 
HETATM   10  H15 UNL     1      28.333  -1.090  55.091  1.00  0.00     0.162 HD
ENDROOT
BRANCH   2  11
HETATM   11  C5  UNL     1      23.498   1.920  52.085  1.00  0.00    -0.021 A 
HETATM   12  C6  UNL     1      23.687   2.017  50.698  1.00  0.00     0.054 A 
HETATM   13  C7  UNL     1      22.765   2.642  49.868  1.00  0.00     0.120 A 
HETATM   14  F1  UNL     1      22.986   2.721  48.522  1.00  0.00    -0.206 F 
HETATM   15  C8  UNL     1      21.624   3.184  50.437  1.00  0.00     0.084 A 
HETATM   16  C9  UNL     1      21.428   3.092  51.797  1.00  0.00     0.120 A 
HETATM   17  F2  UNL     1      20.317   3.626  52.323  1.00  0.00    -0.206 F 
HETATM   18  C10 UNL     1      22.342   2.473  52.622  1.00  0.00     0.054 A 
ENDBRANCH   2  11
BRANCH   1  19
HETATM   19  N1  UNL     1      23.345  -0.837  53.332  1.00  0.00    -0.390 N 
HETATM   20  H6  UNL     1      22.784  -1.395  52.668  1.00  0.00     0.159 HD
BRANCH  19  21
HETATM   21  C2  UNL     1      22.823  -0.995  54.681  1.00  0.00     0.115 C 
HETATM   22  C1  UNL     1      21.396  -0.495  54.751  1.00  0.00     0.026 C 
ENDBRANCH  19  21
ENDBRANCH   1  19
BRANCH   6  23
HETATM   23  O1  UNL     1      30.121   0.537  53.631  1.00  0.00    -0.373 OA
HETATM   24  H14 UNL     1      30.696   1.340  53.567  1.00  0.00     0.212 HD
ENDBRANCH   6  23
TORSDOF 4
ENDMDL
MODEL 5
REMARK VINA RESULT:      -7.9      3.686      6.156
REMARK  4 active torsions:
REMARK  status: ('A' for Active; 'I' for Inactive)
REMARK    1  A    between atoms: C2_2  and  N1_3 
REMARK    2  A    between atoms: N1_3  and  C3_4 
REMARK    3  A    between atoms: C4_5  and  C5_6 
REMARK    4  A    between atoms: C14_17  and  O1_18 
ROOT
HETATM    1  C3  UNL     1      25.701   0.847  52.076  1.00  0.00     0.037 A 
HETATM    2  C4  UNL     1      24.423   1.199  52.312  1.00  0.00    -0.017 A 
HETATM    3  C11 UNL     1      23.752   2.456  51.910  1.00  0.00     0.082 A 
HETATM    4  C12 UNL     1      24.718   3.329  51.194  1.00  0.00    -0.027 A 
HETATM    5  C13 UNL     1      24.449   4.523  50.711  1.00  0.00     0.035 A 
HETATM    6  C14 UNL     1      25.637   5.127  50.055  1.00  0.00     0.242 A 
HETATM    7  N2  UNL     1      26.629   4.098  50.230  1.00  0.00    -0.360 N 
HETATM    8  C15 UNL     1      26.108   2.974  50.932  1.00  0.00     0.038 A 
HETATM    9  C16 UNL     1      26.542   1.804  51.354  1.00  0.00     0.059 A 
HETATM   10  H15 UNL     1      27.607   4.169  49.889  1.00  0.00     0.162 HD
ENDROOT
BRANCH   2  11
HETATM   11  C5  UNL     1      23.522   0.313  53.038  1.00  0.00    -0.021 A 
HETATM   12  C6  UNL     1      22.221   0.333  52.515  1.00  0.00     0.054 A 
HETATM   13  C7  UNL     1      21.188  -0.413  53.072  1.00  0.00     0.120 A 
HETATM   14  F1  UNL     1      19.932  -0.364  52.537  1.00  0.00    -0.206 F 
HETATM   15  C8  UNL     1      21.463  -1.198  54.179  1.00  0.00     0.084 A 
HETATM   16  C9  UNL     1      22.737  -1.226  54.698  1.00  0.00     0.120 A 
HETATM   17  F2  UNL     1      22.976  -1.993  55.772  1.00  0.00    -0.206 F 
HETATM   18  C10 UNL     1      23.762  -0.488  54.148  1.00  0.00     0.054 A 
ENDBRANCH   2  11
BRANCH   1  19
HETATM   19  N1  UNL     1      26.419  -0.327  52.421  1.00  0.00    -0.390 N 
HETATM   20  H6  UNL     1      26.310  -1.347  52.306  1.00  0.00     0.159 HD
BRANCH  19  21
HETATM   21  C2  UNL     1      27.652  -0.034  53.137  1.00  0.00     0.115 C 
HETATM   22  C1  UNL     1      27.359   0.227  54.598  1.00  0.00     0.026 C 
ENDBRANCH  19  21
ENDBRANCH   1  19
BRANCH   6  23
HETATM   23  O1  UNL     1      25.363   5.424  48.720  1.00  0.00    -0.373 OA
HETATM   24  H14 UNL     1      25.317   6.409  48.634  1.00  0.00     0.212 HD
ENDBRANCH   6  23
TORSDOF 4
ENDMDL
MODEL 6
REMARK VINA RESULT:      -7.7      4.136      6.642
REMARK  4 active torsions:
REMARK  status: ('A' for Active; 'I' for Inactive)
REMARK    1  A    between atoms: C2_2  and  N1_3 
REMARK    2  A    between atoms: N1_3  and  C3_4 
REMARK    3  A    between atoms: C4_5  and  C5_6 
REMARK    4  A    between atoms: C14_17  and  O1_18 
ROOT
HETATM    1  C3  UNL     1      24.449   0.010  53.153  1.00  0.00     0.037 A 
HETATM    2  C4  UNL     1      24.649   1.172  52.503  1.00  0.00    -0.017 A 
HETATM    3  C11 UNL     1      25.897   1.966  52.454  1.00  0.00     0.082 A 
HETATM    4  C12 UNL     1      26.946   1.295  53.264  1.00  0.00    -0.027 A 
HETATM    5  C13 UNL     1      28.172   1.741  53.438  1.00  0.00     0.035 A 
HETATM    6  C14 UNL     1      28.966   0.832  54.304  1.00  0.00     0.242 A 
HETATM    7  N2  UNL     1      28.013  -0.206  54.597  1.00  0.00    -0.360 N 
HETATM    8  C15 UNL     1      26.753   0.040  53.981  1.00  0.00     0.038 A 
HETATM    9  C16 UNL     1      25.574  -0.542  53.910  1.00  0.00     0.059 A 
HETATM   10  H15 UNL     1      28.220  -1.034  55.189  1.00  0.00     0.162 HD
ENDROOT
BRANCH   2  11
HETATM   11  C5  UNL     1      23.577   1.799  51.740  1.00  0.00    -0.021 A 
HETATM   12  C6  UNL     1      22.602   2.375  52.569  1.00  0.00     0.054 A 
HETATM   13  C7  UNL     1      21.472   3.001  52.055  1.00  0.00     0.120 A 
HETATM   14  F1  UNL     1      20.541   3.546  52.894  1.00  0.00    -0.206 F 
HETATM   15  C8  UNL     1      21.312   3.053  50.681  1.00  0.00     0.084 A 
HETATM   16  C9  UNL     1      22.265   2.493  49.860  1.00  0.00     0.120 A 
HETATM   17  F2  UNL     1      22.085   2.556  48.533  1.00  0.00    -0.206 F 
HETATM   18  C10 UNL     1      23.385   1.872  50.366  1.00  0.00     0.054 A 
ENDBRANCH   2  11
BRANCH   1  19
HETATM   19  N1  UNL     1      23.296  -0.812  53.252  1.00  0.00    -0.390 N 
HETATM   20  H6  UNL     1      22.665  -1.318  52.611  1.00  0.00     0.159 HD
BRANCH  19  21
HETATM   21  C2  UNL     1      22.869  -1.006  54.630  1.00  0.00     0.115 C 
HETATM   22  C1  UNL     1      21.458  -0.494  54.816  1.00  0.00     0.026 C 
ENDBRANCH  19  21
ENDBRANCH   1  19
BRANCH   6  23
HETATM   23  O1  UNL     1      30.102   0.382  53.632  1.00  0.00    -0.373 OA
HETATM   24  H14 UNL     1      30.738   0.042  54.309  1.00  0.00     0.212 HD
ENDBRANCH   6  23
TORSDOF 4
ENDMDL
MODEL 7
REMARK VINA RESULT:      -7.6      4.507      6.919
REMARK  4 active torsions:
REMARK  status: ('A' for Active; 'I' for Inactive)
REMARK    1  A    between atoms: C2_2  and  N1_3 
REMARK    2  A    between atoms: N1_3  and  C3_4 
REMARK    3  A    between atoms: C4_5  and  C5_6 
REMARK    4  A    between atoms: C14_17  and  O1_18 
ROOT
HETATM    1  C3  UNL     1      23.788   4.497  51.302  1.00  0.00     0.037 A 
HETATM    2  C4  UNL     1      24.151   3.241  50.981  1.00  0.00    -0.017 A 
HETATM    3  C11 UNL     1      25.313   2.826  50.162  1.00  0.00     0.082 A 
HETATM    4  C12 UNL     1      26.054   4.029  49.705  1.00  0.00    -0.027 A 
HETATM    5  C13 UNL     1      27.133   4.015  48.952  1.00  0.00     0.035 A 
HETATM    6  C14 UNL     1      27.625   5.390  48.676  1.00  0.00     0.242 A 
HETATM    7  N2  UNL     1      26.669   6.196  49.390  1.00  0.00    -0.360 N 
HETATM    8  C15 UNL     1      25.680   5.399  50.035  1.00  0.00     0.038 A 
HETATM    9  C16 UNL     1      24.615   5.590  50.787  1.00  0.00     0.059 A 
HETATM   10  H15 UNL     1      26.696   7.233  49.427  1.00  0.00     0.162 HD
ENDROOT
BRANCH   2  11
HETATM   11  C5  UNL     1      23.374   2.096  51.439  1.00  0.00    -0.021 A 
HETATM   12  C6  UNL     1      24.010   1.405  52.481  1.00  0.00     0.054 A 
HETATM   13  C7  UNL     1      23.464   0.261  53.051  1.00  0.00     0.120 A 
HETATM   14  F1  UNL     1      24.115  -0.388  54.062  1.00  0.00    -0.206 F 
HETATM   15  C8  UNL     1      22.253  -0.205  52.569  1.00  0.00     0.084 A 
HETATM   16  C9  UNL     1      21.619   0.468  51.547  1.00  0.00     0.120 A 
HETATM   17  F2  UNL     1      20.448  -0.005  51.097  1.00  0.00    -0.206 F 
HETATM   18  C10 UNL     1      22.159   1.602  50.980  1.00  0.00     0.054 A 
ENDBRANCH   2  11
BRANCH   1  19
HETATM   19  N1  UNL     1      22.701   4.981  52.074  1.00  0.00    -0.390 N 
HETATM   20  H6  UNL     1      22.344   4.873  53.037  1.00  0.00     0.159 HD
BRANCH  19  21
HETATM   21  C2  UNL     1      21.839   5.879  51.320  1.00  0.00     0.115 C 
HETATM   22  C1  UNL     1      20.773   5.090  50.593  1.00  0.00     0.026 C 
ENDBRANCH  19  21
ENDBRANCH   1  19
BRANCH   6  23
HETATM   23  O1  UNL     1      28.937   5.541  49.125  1.00  0.00    -0.373 OA
HETATM   24  H14 UNL     1      28.900   5.914  50.041  1.00  0.00     0.212 HD
ENDBRANCH   6  23
TORSDOF 4
ENDMDL
MODEL 8
REMARK VINA RESULT:      -7.3      4.181      6.383
REMARK  4 active torsions:
REMARK  status: ('A' for Active; 'I' for Inactive)
REMARK    1  A    between atoms: C2_2  and  N1_3 
REMARK    2  A    between atoms: N1_3  and  C3_4 
REMARK    3  A    between atoms: C4_5  and  C5_6 
REMARK    4  A    between atoms: C14_17  and  O1_18 
ROOT
HETATM    1  C3  UNL     1      24.269   2.149  52.853  1.00  0.00     0.037 A 
HETATM    2  C4  UNL     1      23.825   0.883  52.743  1.00  0.00    -0.017 A 
HETATM    3  C11 UNL     1      24.625  -0.358  52.844  1.00  0.00     0.082 A 
HETATM    4  C12 UNL     1      26.051  -0.014  53.076  1.00  0.00    -0.027 A 
HETATM    5  C13 UNL     1      27.031  -0.883  53.204  1.00  0.00     0.035 A 
HETATM    6  C14 UNL     1      28.335  -0.207  53.426  1.00  0.00     0.242 A 
HETATM    7  N2  UNL     1      27.956   1.182  53.411  1.00  0.00    -0.360 N 
HETATM    8  C15 UNL     1      26.558   1.348  53.193  1.00  0.00     0.038 A 
HETATM    9  C16 UNL     1      25.702   2.343  53.087  1.00  0.00     0.059 A 
HETATM   10  H15 UNL     1      28.623   1.967  53.540  1.00  0.00     0.162 HD
ENDROOT
BRANCH   2  11
HETATM   11  C5  UNL     1      22.417   0.601  52.493  1.00  0.00    -0.021 A 
HETATM   12  C6  UNL     1      22.060   0.825  51.154  1.00  0.00     0.054 A 
HETATM   13  C7  UNL     1      20.759   0.651  50.697  1.00  0.00     0.120 A 
HETATM   14  F1  UNL     1      20.448   0.883  49.387  1.00  0.00    -0.206 F 
HETATM   15  C8  UNL     1      19.791   0.242  51.598  1.00  0.00     0.084 A 
HETATM   16  C9  UNL     1      20.131   0.017  52.913  1.00  0.00     0.120 A 
HETATM   17  F2  UNL     1      19.175  -0.376  53.766  1.00  0.00    -0.206 F 
HETATM   18  C10 UNL     1      21.420   0.190  53.369  1.00  0.00     0.054 A 
ENDBRANCH   2  11
BRANCH   1  19
HETATM   19  N1  UNL     1      23.579   3.386  52.771  1.00  0.00    -0.390 N 
HETATM   20  H6  UNL     1      22.926   3.932  53.355  1.00  0.00     0.159 HD
BRANCH  19  21
HETATM   21  C2  UNL     1      23.853   4.094  51.530  1.00  0.00     0.115 C 
HETATM   22  C1  UNL     1      23.592   5.575  51.705  1.00  0.00     0.026 C 
ENDBRANCH  19  21
ENDBRANCH   1  19
BRANCH   6  23
HETATM   23  O1  UNL     1      28.905  -0.623  54.629  1.00  0.00    -0.373 OA
HETATM   24  H14 UNL     1      29.712  -1.154  54.412  1.00  0.00     0.212 HD
ENDBRANCH   6  23
TORSDOF 4
ENDMDL
MODEL 9
REMARK VINA RESULT:      -7.3      1.696      2.792
REMARK  4 active torsions:
REMARK  status: ('A' for Active; 'I' for Inactive)
REMARK    1  A    between atoms: C2_2  and  N1_3 
REMARK    2  A    between atoms: N1_3  and  C3_4 
REMARK    3  A    between atoms: C4_5  and  C5_6 
REMARK    4  A    between atoms: C14_17  and  O1_18 
ROOT
HETATM    1  C3  UNL     1      22.911   1.107  51.601  1.00  0.00     0.037 A 
HETATM    2  C4  UNL     1      23.483   0.487  52.651  1.00  0.00    -0.017 A 
HETATM    3  C11 UNL     1      22.811  -0.351  53.670  1.00  0.00     0.082 A 
HETATM    4  C12 UNL     1      21.355  -0.412  53.383  1.00  0.00    -0.027 A 
HETATM    5  C13 UNL     1      20.467  -1.067  54.100  1.00  0.00     0.035 A 
HETATM    6  C14 UNL     1      19.099  -0.922  53.540  1.00  0.00     0.242 A 
HETATM    7  N2  UNL     1      19.335  -0.089  52.390  1.00  0.00    -0.360 N 
HETATM    8  C15 UNL     1      20.711   0.253  52.257  1.00  0.00     0.038 A 
HETATM    9  C16 UNL     1      21.464   0.957  51.436  1.00  0.00     0.059 A 
HETATM   10  H15 UNL     1      18.591   0.226  51.738  1.00  0.00     0.162 HD
ENDROOT
BRANCH   2  11
HETATM   11  C5  UNL     1      24.915   0.598  52.899  1.00  0.00    -0.021 A 
HETATM   12  C6  UNL     1      25.574  -0.634  52.766  1.00  0.00     0.054 A 
HETATM   13  C7  UNL     1      26.939  -0.770  52.988  1.00  0.00     0.120 A 
HETATM   14  F1  UNL     1      27.545  -1.987  52.854  1.00  0.00    -0.206 F 
HETATM   15  C8  UNL     1      27.665   0.353  53.351  1.00  0.00     0.084 A 
HETATM   16  C9  UNL     1      27.028   1.566  53.481  1.00  0.00     0.120 A 
HETATM   17  F2  UNL     1      27.752   2.637  53.836  1.00  0.00    -0.206 F 
HETATM   18  C10 UNL     1      25.674   1.703  53.262  1.00  0.00     0.054 A 
ENDBRANCH   2  11
BRANCH   1  19
HETATM   19  N1  UNL     1      23.473   1.922  50.585  1.00  0.00    -0.390 N 
HETATM   20  H6  UNL     1      24.413   2.235  50.294  1.00  0.00     0.159 HD
BRANCH  19  21
HETATM   21  C2  UNL     1      22.464   2.481  49.699  1.00  0.00     0.115 C 
HETATM   22  C1  UNL     1      23.110   3.399  48.685  1.00  0.00     0.026 C 
ENDBRANCH  19  21
ENDBRANCH   1  19
BRANCH   6  23
HETATM   23  O1  UNL     1      18.560  -2.171  53.231  1.00  0.00    -0.373 OA
HETATM   24  H14 UNL     1      19.291  -2.836  53.284  1.00  0.00     0.212 HD
ENDBRANCH   6  23
TORSDOF 4
ENDMDL
