MODEL 1
REMARK VINA RESULT:      -9.2      0.000      0.000
REMARK  2 active torsions:
REMARK  status: ('A' for Active; 'I' for Inactive)
REMARK    1  A    between atoms: C2_3  and  C3_5 
REMARK    2  A    between atoms: C4_6  and  O3_7 
ROOT
HETATM    1  C3  UNL     1      24.679   1.904  51.872  1.00  0.00     0.030 C 
HETATM    2  C4  UNL     1      23.646   1.153  52.195  1.00  0.00     0.065 C 
HETATM    3  C6  UNL     1      22.195   1.361  52.186  1.00  0.00     0.079 A 
HETATM    4  C7  UNL     1      21.518   0.485  51.184  1.00  0.00    -0.014 A 
HETATM    5  C8  UNL     1      20.619   0.683  50.242  1.00  0.00    -0.003 A 
HETATM    6  C9  UNL     1      20.168   2.056  50.135  1.00  0.00    -0.003 A 
HETATM    7  C10 UNL     1      20.719   2.886  50.987  1.00  0.00    -0.014 A 
HETATM    8  C11 UNL     1      21.738   2.790  52.094  1.00  0.00     0.074 A 
HETATM    9  P1  UNL     1      22.995   3.946  52.048  1.00  0.00     0.018 P 
HETATM   10  C12 UNL     1      24.393   3.257  51.393  1.00  0.00     0.017 C 
HETATM   11  C13 UNL     1      24.935   4.253  50.500  1.00  0.00     0.066 A 
HETATM   12  C14 UNL     1      24.079   5.180  50.177  1.00  0.00     0.139 A 
HETATM   13  O4  UNL     1      22.799   5.117  50.697  1.00  0.00    -0.323 OA
HETATM   14  C15 UNL     1      24.502   6.256  49.274  1.00  0.00     0.217 A 
HETATM   15  O5  UNL     1      23.761   7.201  48.896  1.00  0.00    -0.284 OA
HETATM   16  C16 UNL     1      25.847   6.360  48.701  1.00  0.00     0.031 A 
HETATM   17  C17 UNL     1      26.254   7.365  47.853  1.00  0.00     0.016 A 
HETATM   18  C18 UNL     1      27.541   7.387  47.359  1.00  0.00     0.001 A 
HETATM   19  C19 UNL     1      28.446   6.404  47.702  1.00  0.00     0.001 A 
HETATM   20  C20 UNL     1      28.045   5.398  48.549  1.00  0.00     0.016 A 
HETATM   21  C21 UNL     1      26.766   5.362  49.050  1.00  0.00     0.029 A 
HETATM   22  C22 UNL     1      26.280   4.324  49.950  1.00  0.00     0.197 A 
HETATM   23  O6  UNL     1      27.142   3.459  50.227  1.00  0.00    -0.286 OA
HETATM   24  H13 UNL     1      23.399   4.578  53.154  1.00  0.00     0.087 HD
ENDROOT
BRANCH   1  25
HETATM   25  C2  UNL     1      26.079   1.576  51.926  1.00  0.00     0.210 A 
HETATM   26  O1  UNL     1      27.371   1.382  52.232  1.00  0.00     0.000 OA
HETATM   27  C1  UNL     1      28.184   1.631  53.298  1.00  0.00     0.000 C 
HETATM   28  O2  UNL     1      26.523   1.934  53.031  1.00  0.00    -0.215 OA
ENDBRANCH   1  25
BRANCH   2  29
HETATM   29  O3  UNL     1      24.025  -0.125  52.640  1.00  0.00    -0.359 OA
HETATM   30  C5  UNL     1      23.738  -0.524  53.959  1.00  0.00     0.209 C 
ENDBRANCH   2  29
TORSDOF 2
ENDMDL
MODEL 2
REMARK VINA RESULT:      -9.1      2.663      5.763
REMARK  2 active torsions:
REMARK  status: ('A' for Active; 'I' for Inactive)
REMARK    1  A    between atoms: C2_3  and  C3_5 
REMARK    2  A    between atoms: C4_6  and  O3_7 
ROOT
HETATM    1  C3  UNL     1      22.616   0.975  52.093  1.00  0.00     0.030 C 
HETATM    2  C4  UNL     1      21.777   1.737  51.422  1.00  0.00     0.065 C 
HETATM    3  C6  UNL     1      21.852   3.095  50.872  1.00  0.00     0.079 A 
HETATM    4  C7  UNL     1      21.807   3.088  49.379  1.00  0.00    -0.014 A 
HETATM    5  C8  UNL     1      22.520   3.662  48.432  1.00  0.00    -0.003 A 
HETATM    6  C9  UNL     1      23.597   4.497  48.926  1.00  0.00    -0.003 A 
HETATM    7  C10 UNL     1      23.697   4.552  50.232  1.00  0.00    -0.014 A 
HETATM    8  C11 UNL     1      22.960   3.957  51.405  1.00  0.00     0.074 A 
HETATM    9  P1  UNL     1      23.937   3.219  52.597  1.00  0.00     0.018 P 
HETATM   10  C12 UNL     1      23.932   1.541  52.394  1.00  0.00     0.017 C 
HETATM   11  C13 UNL     1      25.299   1.122  52.586  1.00  0.00     0.066 A 
HETATM   12  C14 UNL     1      26.157   2.098  52.496  1.00  0.00     0.139 A 
HETATM   13  O4  UNL     1      25.692   3.373  52.236  1.00  0.00    -0.323 OA
HETATM   14  C15 UNL     1      27.585   1.808  52.672  1.00  0.00     0.217 A 
HETATM   15  O5  UNL     1      28.500   2.670  52.605  1.00  0.00    -0.284 OA
HETATM   16  C16 UNL     1      28.119   0.471  52.948  1.00  0.00     0.031 A 
HETATM   17  C17 UNL     1      29.456   0.189  53.114  1.00  0.00     0.016 A 
HETATM   18  C18 UNL     1      29.874  -1.100  53.372  1.00  0.00     0.001 A 
HETATM   19  C19 UNL     1      28.963  -2.131  53.468  1.00  0.00     0.001 A 
HETATM   20  C20 UNL     1      27.626  -1.855  53.302  1.00  0.00     0.016 A 
HETATM   21  C21 UNL     1      27.194  -0.576  53.045  1.00  0.00     0.029 A 
HETATM   22  C22 UNL     1      25.794  -0.219  52.859  1.00  0.00     0.197 A 
HETATM   23  O6  UNL     1      25.012  -1.192  52.956  1.00  0.00    -0.286 OA
HETATM   24  H13 UNL     1      23.713   3.417  53.899  1.00  0.00     0.087 HD
ENDROOT
BRANCH   1  25
HETATM   25  C2  UNL     1      22.418  -0.363  52.583  1.00  0.00     0.210 A 
HETATM   26  O1  UNL     1      22.142  -1.481  53.270  1.00  0.00     0.000 OA
HETATM   27  C1  UNL     1      21.651  -1.790  54.505  1.00  0.00     0.000 C 
HETATM   28  O2  UNL     1      21.960  -0.294  53.737  1.00  0.00    -0.215 OA
ENDBRANCH   1  25
BRANCH   2  29
HETATM   29  O3  UNL     1      20.545   1.104  51.182  1.00  0.00    -0.359 OA
HETATM   30  C5  UNL     1      19.372   1.595  51.785  1.00  0.00     0.209 C 
ENDBRANCH   2  29
TORSDOF 2
ENDMDL
MODEL 3
REMARK VINA RESULT:      -9.0      1.390      1.665
REMARK  2 active torsions:
REMARK  status: ('A' for Active; 'I' for Inactive)
REMARK    1  A    between atoms: C2_3  and  C3_5 
REMARK    2  A    between atoms: C4_6  and  O3_7 
ROOT
HETATM    1  C3  UNL     1      23.117   1.169  52.360  1.00  0.00     0.030 C 
HETATM    2  C4  UNL     1      21.974   0.561  52.604  1.00  0.00     0.065 C 
HETATM    3  C6  UNL     1      20.568   0.972  52.533  1.00  0.00     0.079 A 
HETATM    4  C7  UNL     1      19.830   0.230  51.468  1.00  0.00    -0.014 A 
HETATM    5  C8  UNL     1      19.018   0.581  50.492  1.00  0.00    -0.003 A 
HETATM    6  C9  UNL     1      18.769   2.007  50.415  1.00  0.00    -0.003 A 
HETATM    7  C10 UNL     1      19.384   2.724  51.323  1.00  0.00    -0.014 A 
HETATM    8  C11 UNL     1      20.320   2.452  52.474  1.00  0.00     0.074 A 
HETATM    9  P1  UNL     1      21.726   3.421  52.531  1.00  0.00     0.018 P 
HETATM   10  C12 UNL     1      23.047   2.563  51.918  1.00  0.00     0.017 C 
HETATM   11  C13 UNL     1      23.769   3.499  51.090  1.00  0.00     0.066 A 
HETATM   12  C14 UNL     1      23.067   4.547  50.762  1.00  0.00     0.139 A 
HETATM   13  O4  UNL     1      21.766   4.648  51.217  1.00  0.00    -0.323 OA
HETATM   14  C15 UNL     1      23.683   5.580  49.920  1.00  0.00     0.217 A 
HETATM   15  O5  UNL     1      23.101   6.630  49.543  1.00  0.00    -0.284 OA
HETATM   16  C16 UNL     1      25.058   5.511  49.417  1.00  0.00     0.031 A 
HETATM   17  C17 UNL     1      25.645   6.473  48.628  1.00  0.00     0.016 A 
HETATM   18  C18 UNL     1      26.946   6.329  48.197  1.00  0.00     0.001 A 
HETATM   19  C19 UNL     1      27.687   5.219  48.546  1.00  0.00     0.001 A 
HETATM   20  C20 UNL     1      27.106   4.254  49.335  1.00  0.00     0.016 A 
HETATM   21  C21 UNL     1      25.810   4.383  49.772  1.00  0.00     0.029 A 
HETATM   22  C22 UNL     1      25.138   3.397  50.608  1.00  0.00     0.197 A 
HETATM   23  O6  UNL     1      25.855   2.412  50.894  1.00  0.00    -0.286 OA
HETATM   24  H13 UNL     1      22.156   3.956  53.678  1.00  0.00     0.087 HD
ENDROOT
BRANCH   1  25
HETATM   25  C2  UNL     1      24.453   0.646  52.468  1.00  0.00     0.210 A 
HETATM   26  O1  UNL     1      25.679   0.244  52.835  1.00  0.00     0.000 OA
HETATM   27  C1  UNL     1      26.430   0.266  53.973  1.00  0.00     0.000 C 
HETATM   28  O2  UNL     1      24.850   0.823  53.632  1.00  0.00    -0.215 OA
ENDBRANCH   1  25
BRANCH   2  29
HETATM   29  O3  UNL     1      22.148  -0.770  53.019  1.00  0.00    -0.359 OA
HETATM   30  C5  UNL     1      21.776  -1.156  54.320  1.00  0.00     0.209 C 
ENDBRANCH   2  29
TORSDOF 2
ENDMDL
MODEL 4
REMARK VINA RESULT:      -8.6      1.877      6.440
REMARK  2 active torsions:
REMARK  status: ('A' for Active; 'I' for Inactive)
REMARK    1  A    between atoms: C2_3  and  C3_5 
REMARK    2  A    between atoms: C4_6  and  O3_7 
ROOT
HETATM    1  C3  UNL     1      25.357   3.212  50.264  1.00  0.00     0.030 C 
HETATM    2  C4  UNL     1      25.553   4.387  49.703  1.00  0.00     0.065 C 
HETATM    3  C6  UNL     1      24.674   5.359  49.044  1.00  0.00     0.079 A 
HETATM    4  C7  UNL     1      24.575   6.629  49.825  1.00  0.00    -0.014 A 
HETATM    5  C8  UNL     1      23.577   7.391  50.224  1.00  0.00    -0.003 A 
HETATM    6  C9  UNL     1      22.269   6.908  49.827  1.00  0.00    -0.003 A 
HETATM    7  C10 UNL     1      22.279   5.795  49.135  1.00  0.00    -0.014 A 
HETATM    8  C11 UNL     1      23.329   4.844  48.619  1.00  0.00     0.074 A 
HETATM    9  P1  UNL     1      23.055   3.190  48.947  1.00  0.00     0.018 P 
HETATM   10  C12 UNL     1      23.986   2.698  50.269  1.00  0.00     0.017 C 
HETATM   11  C13 UNL     1      23.119   1.867  51.068  1.00  0.00     0.066 A 
HETATM   12  C14 UNL     1      21.856   2.013  50.783  1.00  0.00     0.139 A 
HETATM   13  O4  UNL     1      21.494   2.908  49.794  1.00  0.00    -0.323 OA
HETATM   14  C15 UNL     1      20.864   1.224  51.524  1.00  0.00     0.217 A 
HETATM   15  O5  UNL     1      19.621   1.285  51.333  1.00  0.00    -0.284 OA
HETATM   16  C16 UNL     1      21.205   0.266  52.579  1.00  0.00     0.031 A 
HETATM   17  C17 UNL     1      20.283  -0.478  53.279  1.00  0.00     0.016 A 
HETATM   18  C18 UNL     1      20.690  -1.359  54.258  1.00  0.00     0.001 A 
HETATM   19  C19 UNL     1      22.028  -1.512  54.557  1.00  0.00     0.001 A 
HETATM   20  C20 UNL     1      22.954  -0.771  53.861  1.00  0.00     0.016 A 
HETATM   21  C21 UNL     1      22.564   0.111  52.883  1.00  0.00     0.029 A 
HETATM   22  C22 UNL     1      23.494   0.924  52.110  1.00  0.00     0.197 A 
HETATM   23  O6  UNL     1      24.693   0.744  52.423  1.00  0.00    -0.286 OA
HETATM   24  H13 UNL     1      23.250   2.255  48.012  1.00  0.00     0.087 HD
ENDROOT
BRANCH   1  25
HETATM   25  C2  UNL     1      26.320   2.343  50.887  1.00  0.00     0.210 A 
HETATM   26  O1  UNL     1      27.227   1.733  51.665  1.00  0.00     0.000 OA
HETATM   27  C1  UNL     1      27.862   1.998  52.842  1.00  0.00     0.000 C 
HETATM   28  O2  UNL     1      26.705   2.878  51.942  1.00  0.00    -0.215 OA
ENDBRANCH   1  25
BRANCH   2  29
HETATM   29  O3  UNL     1      26.898   4.792  49.752  1.00  0.00    -0.359 OA
HETATM   30  C5  UNL     1      27.633   4.937  48.560  1.00  0.00     0.209 C 
ENDBRANCH   2  29
TORSDOF 2
ENDMDL
MODEL 5
REMARK VINA RESULT:      -8.5      4.174      9.075
REMARK  2 active torsions:
REMARK  status: ('A' for Active; 'I' for Inactive)
REMARK    1  A    between atoms: C2_3  and  C3_5 
REMARK    2  A    between atoms: C4_6  and  O3_7 
ROOT
HETATM    1  C3  UNL     1      30.823   7.798  47.608  1.00  0.00     0.030 C 
HETATM    2  C4  UNL     1      31.468   8.946  47.561  1.00  0.00     0.065 C 
HETATM    3  C6  UNL     1      31.053  10.338  47.358  1.00  0.00     0.079 A 
HETATM    4  C7  UNL     1      31.276  11.164  48.582  1.00  0.00    -0.014 A 
HETATM    5  C8  UNL     1      30.543  12.019  49.265  1.00  0.00    -0.003 A 
HETATM    6  C9  UNL     1      29.212  12.220  48.725  1.00  0.00    -0.003 A 
HETATM    7  C10 UNL     1      28.945  11.526  47.646  1.00  0.00    -0.014 A 
HETATM    8  C11 UNL     1      29.680  10.535  46.779  1.00  0.00     0.074 A 
HETATM    9  P1  UNL     1      28.836   9.093  46.422  1.00  0.00     0.018 P 
HETATM   10  C12 UNL     1      29.372   7.843  47.425  1.00  0.00     0.017 C 
HETATM   11  C13 UNL     1      28.182   7.138  47.836  1.00  0.00     0.066 A 
HETATM   12  C14 UNL     1      27.086   7.818  47.650  1.00  0.00     0.139 A 
HETATM   13  O4  UNL     1      27.173   9.086  47.105  1.00  0.00    -0.323 OA
HETATM   14  C15 UNL     1      25.802   7.215  48.026  1.00  0.00     0.217 A 
HETATM   15  O5  UNL     1      24.685   7.780  47.891  1.00  0.00    -0.284 OA
HETATM   16  C16 UNL     1      25.667   5.876  48.605  1.00  0.00     0.031 A 
HETATM   17  C17 UNL     1      24.468   5.302  48.961  1.00  0.00     0.016 A 
HETATM   18  C18 UNL     1      24.431   4.034  49.501  1.00  0.00     0.001 A 
HETATM   19  C19 UNL     1      25.592   3.315  49.696  1.00  0.00     0.001 A 
HETATM   20  C20 UNL     1      26.793   3.884  49.343  1.00  0.00     0.016 A 
HETATM   21  C21 UNL     1      26.846   5.146  48.804  1.00  0.00     0.029 A 
HETATM   22  C22 UNL     1      28.085   5.804  48.409  1.00  0.00     0.197 A 
HETATM   23  O6  UNL     1      29.106   5.107  48.609  1.00  0.00    -0.286 OA
HETATM   24  H13 UNL     1      28.832   8.578  45.189  1.00  0.00     0.087 HD
ENDROOT
BRANCH   1  25
HETATM   25  C2  UNL     1      31.355   6.478  47.820  1.00  0.00     0.210 A 
HETATM   26  O1  UNL     1      31.885   5.249  47.739  1.00  0.00     0.000 OA
HETATM   27  C1  UNL     1      32.351   4.434  46.749  1.00  0.00     0.000 C 
HETATM   28  O2  UNL     1      31.688   6.009  46.718  1.00  0.00    -0.215 OA
ENDBRANCH   1  25
BRANCH   2  29
HETATM   29  O3  UNL     1      32.852   8.797  47.751  1.00  0.00    -0.359 OA
HETATM   30  C5  UNL     1      33.742   9.093  46.701  1.00  0.00     0.209 C 
ENDBRANCH   2  29
TORSDOF 2
ENDMDL
MODEL 6
REMARK VINA RESULT:      -8.4      2.390      7.487
REMARK  2 active torsions:
REMARK  status: ('A' for Active; 'I' for Inactive)
REMARK    1  A    between atoms: C2_3  and  C3_5 
REMARK    2  A    between atoms: C4_6  and  O3_7 
ROOT
HETATM    1  C3  UNL     1      23.691   2.506  50.448  1.00  0.00     0.030 C 
HETATM    2  C4  UNL     1      24.984   2.450  50.691  1.00  0.00     0.065 C 
HETATM    3  C6  UNL     1      25.788   1.959  51.814  1.00  0.00     0.079 A 
HETATM    4  C7  UNL     1      26.609   0.773  51.428  1.00  0.00    -0.014 A 
HETATM    5  C8  UNL     1      26.827  -0.412  51.960  1.00  0.00    -0.003 A 
HETATM    6  C9  UNL     1      26.119  -0.640  53.205  1.00  0.00    -0.003 A 
HETATM    7  C10 UNL     1      25.377   0.362  53.609  1.00  0.00    -0.014 A 
HETATM    8  C11 UNL     1      25.049   1.745  53.105  1.00  0.00     0.074 A 
HETATM    9  P1  UNL     1      23.388   2.143  53.058  1.00  0.00     0.018 P 
HETATM   10  C12 UNL     1      22.798   1.982  51.483  1.00  0.00     0.017 C 
HETATM   11  C13 UNL     1      21.512   1.340  51.614  1.00  0.00     0.066 A 
HETATM   12  C14 UNL     1      21.335   0.765  52.770  1.00  0.00     0.139 A 
HETATM   13  O4  UNL     1      22.350   0.825  53.706  1.00  0.00    -0.323 OA
HETATM   14  C15 UNL     1      20.067   0.075  53.035  1.00  0.00     0.217 A 
HETATM   15  O5  UNL     1      19.790  -0.513  54.112  1.00  0.00    -0.284 OA
HETATM   16  C16 UNL     1      18.967  -0.012  52.070  1.00  0.00     0.031 A 
HETATM   17  C17 UNL     1      17.775  -0.657  52.309  1.00  0.00     0.016 A 
HETATM   18  C18 UNL     1      16.791  -0.691  51.344  1.00  0.00     0.001 A 
HETATM   19  C19 UNL     1      16.980  -0.081  50.121  1.00  0.00     0.001 A 
HETATM   20  C20 UNL     1      18.170   0.564  49.877  1.00  0.00     0.016 A 
HETATM   21  C21 UNL     1      19.160   0.607  50.828  1.00  0.00     0.029 A 
HETATM   22  C22 UNL     1      20.440   1.274  50.631  1.00  0.00     0.197 A 
HETATM   23  O6  UNL     1      20.558   1.809  49.506  1.00  0.00    -0.286 OA
HETATM   24  H13 UNL     1      22.946   3.331  53.480  1.00  0.00     0.087 HD
ENDROOT
BRANCH   1  25
HETATM   25  C2  UNL     1      23.017   3.019  49.285  1.00  0.00     0.210 A 
HETATM   26  O1  UNL     1      22.394   3.741  48.341  1.00  0.00     0.000 OA
HETATM   27  C1  UNL     1      22.001   5.037  48.183  1.00  0.00     0.000 C 
HETATM   28  O2  UNL     1      22.801   4.231  49.461  1.00  0.00    -0.215 OA
ENDBRANCH   1  25
BRANCH   2  29
HETATM   29  O3  UNL     1      25.754   2.974  49.638  1.00  0.00    -0.359 OA
HETATM   30  C5  UNL     1      26.419   4.204  49.798  1.00  0.00     0.209 C 
ENDBRANCH   2  29
TORSDOF 2
ENDMDL
MODEL 7
REMARK VINA RESULT:      -8.1      4.888      9.876
REMARK  2 active torsions:
REMARK  status: ('A' for Active; 'I' for Inactive)
REMARK    1  A    between atoms: C2_3  and  C3_5 
REMARK    2  A    between atoms: C4_6  and  O3_7 
ROOT
HETATM    1  C3  UNL     1      31.463   8.288  46.748  1.00  0.00     0.030 C 
HETATM    2  C4  UNL     1      32.633   7.879  46.301  1.00  0.00     0.065 C 
HETATM    3  C6  UNL     1      33.373   6.616  46.394  1.00  0.00     0.079 A 
HETATM    4  C7  UNL     1      33.519   5.963  45.059  1.00  0.00    -0.014 A 
HETATM    5  C8  UNL     1      33.325   4.743  44.602  1.00  0.00    -0.003 A 
HETATM    6  C9  UNL     1      32.866   3.802  45.605  1.00  0.00    -0.003 A 
HETATM    7  C10 UNL     1      32.716   4.306  46.806  1.00  0.00    -0.014 A 
HETATM    8  C11 UNL     1      32.902   5.657  47.450  1.00  0.00     0.074 A 
HETATM    9  P1  UNL     1      31.592   6.213  48.395  1.00  0.00     0.018 P 
HETATM   10  C12 UNL     1      30.672   7.325  47.515  1.00  0.00     0.017 C 
HETATM   11  C13 UNL     1      29.295   6.991  47.787  1.00  0.00     0.066 A 
HETATM   12  C14 UNL     1      29.140   5.797  48.287  1.00  0.00     0.139 A 
HETATM   13  O4  UNL     1      30.259   5.011  48.494  1.00  0.00    -0.323 OA
HETATM   14  C15 UNL     1      27.787   5.331  48.610  1.00  0.00     0.217 A 
HETATM   15  O5  UNL     1      27.521   4.200  49.095  1.00  0.00    -0.284 OA
HETATM   16  C16 UNL     1      26.576   6.132  48.406  1.00  0.00     0.031 A 
HETATM   17  C17 UNL     1      25.303   5.704  48.705  1.00  0.00     0.016 A 
HETATM   18  C18 UNL     1      24.217   6.523  48.481  1.00  0.00     0.001 A 
HETATM   19  C19 UNL     1      24.383   7.787  47.953  1.00  0.00     0.001 A 
HETATM   20  C20 UNL     1      25.653   8.219  47.652  1.00  0.00     0.016 A 
HETATM   21  C21 UNL     1      26.745   7.415  47.869  1.00  0.00     0.029 A 
HETATM   22  C22 UNL     1      28.115   7.814  47.571  1.00  0.00     0.197 A 
HETATM   23  O6  UNL     1      28.206   8.968  47.094  1.00  0.00    -0.286 OA
HETATM   24  H13 UNL     1      31.789   6.785  49.587  1.00  0.00     0.087 HD
ENDROOT
BRANCH   1  25
HETATM   25  C2  UNL     1      30.839   9.574  46.584  1.00  0.00     0.210 A 
HETATM   26  O1  UNL     1      30.383  10.832  46.676  1.00  0.00     0.000 OA
HETATM   27  C1  UNL     1      30.500  11.867  47.556  1.00  0.00     0.000 C 
HETATM   28  O2  UNL     1      31.145  10.284  47.558  1.00  0.00    -0.215 OA
ENDBRANCH   1  25
BRANCH   2  29
HETATM   29  O3  UNL     1      33.312   8.873  45.576  1.00  0.00    -0.359 OA
HETATM   30  C5  UNL     1      34.535   9.380  46.053  1.00  0.00     0.209 C 
ENDBRANCH   2  29
TORSDOF 2
ENDMDL
MODEL 8
REMARK VINA RESULT:      -8.0      2.841      7.233
REMARK  2 active torsions:
REMARK  status: ('A' for Active; 'I' for Inactive)
REMARK    1  A    between atoms: C2_3  and  C3_5 
REMARK    2  A    between atoms: C4_6  and  O3_7 
ROOT
HETATM    1  C3  UNL     1      23.434   1.946  51.157  1.00  0.00     0.030 C 
HETATM    2  C4  UNL     1      24.104   2.971  50.672  1.00  0.00     0.065 C 
HETATM    3  C6  UNL     1      23.869   3.911  49.572  1.00  0.00     0.079 A 
HETATM    4  C7  UNL     1      23.649   5.301  50.072  1.00  0.00    -0.014 A 
HETATM    5  C8  UNL     1      22.754   6.238  49.832  1.00  0.00    -0.003 A 
HETATM    6  C9  UNL     1      21.743   5.855  48.867  1.00  0.00    -0.003 A 
HETATM    7  C10 UNL     1      21.873   4.645  48.381  1.00  0.00    -0.014 A 
HETATM    8  C11 UNL     1      22.833   3.496  48.566  1.00  0.00     0.074 A 
HETATM    9  P1  UNL     1      22.118   1.972  48.855  1.00  0.00     0.018 P 
HETATM   10  C12 UNL     1      22.167   1.612  50.506  1.00  0.00     0.017 C 
HETATM   11  C13 UNL     1      20.876   1.047  50.819  1.00  0.00     0.066 A 
HETATM   12  C14 UNL     1      19.970   1.294  49.915  1.00  0.00     0.139 A 
HETATM   13  O4  UNL     1      20.321   2.037  48.804  1.00  0.00    -0.323 OA
HETATM   14  C15 UNL     1      18.611   0.775  50.111  1.00  0.00     0.217 A 
HETATM   15  O5  UNL     1      17.660   0.952  49.306  1.00  0.00    -0.284 OA
HETATM   16  C16 UNL     1      18.198  -0.016  51.273  1.00  0.00     0.031 A 
HETATM   17  C17 UNL     1      16.927  -0.506  51.466  1.00  0.00     0.016 A 
HETATM   18  C18 UNL     1      16.623  -1.243  52.591  1.00  0.00     0.001 A 
HETATM   19  C19 UNL     1      17.584  -1.503  53.546  1.00  0.00     0.001 A 
HETATM   20  C20 UNL     1      18.856  -1.015  53.359  1.00  0.00     0.016 A 
HETATM   21  C21 UNL     1      19.174  -0.280  52.243  1.00  0.00     0.029 A 
HETATM   22  C22 UNL     1      20.501   0.265  51.987  1.00  0.00     0.197 A 
HETATM   23  O6  UNL     1      21.333  -0.001  52.884  1.00  0.00    -0.286 OA
HETATM   24  H13 UNL     1      22.559   0.870  48.241  1.00  0.00     0.087 HD
ENDROOT
BRANCH   1  25
HETATM   25  C2  UNL     1      23.778   1.090  52.262  1.00  0.00     0.210 A 
HETATM   26  O1  UNL     1      24.310   0.211  53.125  1.00  0.00     0.000 OA
HETATM   27  C1  UNL     1      25.370  -0.646  53.139  1.00  0.00     0.000 C 
HETATM   28  O2  UNL     1      24.791   0.440  51.952  1.00  0.00    -0.215 OA
ENDBRANCH   1  25
BRANCH   2  29
HETATM   29  O3  UNL     1      25.302   3.211  51.366  1.00  0.00    -0.359 OA
HETATM   30  C5  UNL     1      26.535   3.123  50.693  1.00  0.00     0.209 C 
ENDBRANCH   2  29
TORSDOF 2
ENDMDL
MODEL 9
REMARK VINA RESULT:      -7.8      2.184      6.181
REMARK  2 active torsions:
REMARK  status: ('A' for Active; 'I' for Inactive)
REMARK    1  A    between atoms: C2_3  and  C3_5 
REMARK    2  A    between atoms: C4_6  and  O3_7 
ROOT
HETATM    1  C3  UNL     1      21.795   4.020  50.146  1.00  0.00     0.030 C 
HETATM    2  C4  UNL     1      20.583   4.353  49.752  1.00  0.00     0.065 C 
HETATM    3  C6  UNL     1      19.308   3.634  49.665  1.00  0.00     0.079 A 
HETATM    4  C7  UNL     1      18.297   4.187  50.615  1.00  0.00    -0.014 A 
HETATM    5  C8  UNL     1      17.473   3.659  51.496  1.00  0.00    -0.003 A 
HETATM    6  C9  UNL     1      17.544   2.213  51.580  1.00  0.00    -0.003 A 
HETATM    7  C10 UNL     1      18.411   1.656  50.771  1.00  0.00    -0.014 A 
HETATM    8  C11 UNL     1      19.395   2.135  49.733  1.00  0.00     0.074 A 
HETATM    9  P1  UNL     1      20.980   1.512  49.870  1.00  0.00     0.018 P 
HETATM   10  C12 UNL     1      21.988   2.646  50.613  1.00  0.00     0.017 C 
HETATM   11  C13 UNL     1      22.795   1.897  51.545  1.00  0.00     0.066 A 
HETATM   12  C14 UNL     1      22.314   0.716  51.815  1.00  0.00     0.139 A 
HETATM   13  O4  UNL     1      21.135   0.323  51.210  1.00  0.00    -0.323 OA
HETATM   14  C15 UNL     1      23.039  -0.151  52.750  1.00  0.00     0.217 A 
HETATM   15  O5  UNL     1      22.668  -1.306  53.083  1.00  0.00    -0.284 OA
HETATM   16  C16 UNL     1      24.291   0.228  53.412  1.00  0.00     0.031 A 
HETATM   17  C17 UNL     1      24.979  -0.578  54.291  1.00  0.00     0.016 A 
HETATM   18  C18 UNL     1      26.152  -0.142  54.870  1.00  0.00     0.001 A 
HETATM   19  C19 UNL     1      26.660   1.107  54.582  1.00  0.00     0.001 A 
HETATM   20  C20 UNL     1      25.977   1.916  53.705  1.00  0.00     0.016 A 
HETATM   21  C21 UNL     1      24.807   1.497  53.120  1.00  0.00     0.029 A 
HETATM   22  C22 UNL     1      24.037   2.306  52.184  1.00  0.00     0.197 A 
HETATM   23  O6  UNL     1      24.543   3.429  51.960  1.00  0.00    -0.286 OA
HETATM   24  H13 UNL     1      21.655   1.090  48.797  1.00  0.00     0.087 HD
ENDROOT
BRANCH   1  25
HETATM   25  C2  UNL     1      22.982   4.833  50.185  1.00  0.00     0.210 A 
HETATM   26  O1  UNL     1      24.129   5.491  49.962  1.00  0.00     0.000 OA
HETATM   27  C1  UNL     1      25.033   5.591  48.946  1.00  0.00     0.000 C 
HETATM   28  O2  UNL     1      23.583   4.699  49.105  1.00  0.00    -0.215 OA
ENDBRANCH   1  25
BRANCH   2  29
HETATM   29  O3  UNL     1      20.502   5.690  49.326  1.00  0.00    -0.359 OA
HETATM   30  C5  UNL     1      20.206   5.983  47.982  1.00  0.00     0.209 C 
ENDBRANCH   2  29
TORSDOF 2
ENDMDL
