MODEL 1
REMARK VINA RESULT:      -6.7      0.000      0.000
REMARK  5 active torsions:
REMARK  status: ('A' for Active; 'I' for Inactive)
REMARK    1  A    between atoms: C2_2  and  N1_3 
REMARK    2  A    between atoms: C4_5  and  N2_6 
REMARK    3  A    between atoms: N2_6  and  C6_8 
REMARK    4  A    between atoms: C6_8  and  C7_9 
REMARK    5  A    between atoms: C7_9  and  N3_10 
ROOT
HETATM    1  N1  UNL     1      26.943   8.590  46.798  1.00  0.00    -0.265 N 
HETATM    2  C3  UNL     1      27.349   7.796  47.932  1.00  0.00     0.212 C 
HETATM    3  C4  UNL     1      28.686   8.141  48.470  1.00  0.00     0.034 C 
HETATM    4  C10 UNL     1      29.644   7.226  48.475  1.00  0.00     0.001 C 
HETATM    5  C11 UNL     1      29.475   5.867  47.981  1.00  0.00     0.208 C 
HETATM    6  O1  UNL     1      30.430   5.388  48.918  1.00  0.00    -0.372 OA
HETATM    7  C12 UNL     1      31.005   6.673  48.725  1.00  0.00     0.189 C 
HETATM    8  C13 UNL     1      31.944   6.726  47.601  1.00  0.00    -0.010 A 
HETATM    9  C14 UNL     1      32.528   5.466  47.351  1.00  0.00     0.030 A 
HETATM   10  C15 UNL     1      33.470   5.081  46.393  1.00  0.00     0.117 A 
HETATM   11  N4  UNL     1      33.905   6.050  45.568  1.00  0.00    -0.272 NA
HETATM   12  C16 UNL     1      33.361   7.287  45.780  1.00  0.00     0.130 A 
HETATM   13  C17 UNL     1      32.413   7.685  46.738  1.00  0.00     0.019 A 
HETATM   14  C18 UNL     1      32.201   9.114  46.514  1.00  0.00     0.071 A 
HETATM   15  C19 UNL     1      33.153   9.990  47.064  1.00  0.00     0.035 A 
HETATM   16  C20 UNL     1      32.829  11.325  46.760  1.00  0.00     0.035 A 
HETATM   17  C21 UNL     1      31.669  11.129  46.027  1.00  0.00     0.076 A 
HETATM   18  C22 UNL     1      30.886  12.131  45.444  1.00  0.00     0.150 A 
HETATM   19  N5  UNL     1      29.770  11.766  44.744  1.00  0.00    -0.241 NA
HETATM   20  C23 UNL     1      29.460  10.444  44.639  1.00  0.00     0.148 A 
HETATM   21  N6  UNL     1      30.234   9.504  45.212  1.00  0.00    -0.151 NA
HETATM   22  N7  UNL     1      31.309   9.846  45.886  1.00  0.00    -0.230 N 
HETATM   23  C24 UNL     1      28.234  10.026  43.875  1.00  0.00     0.111 C 
HETATM   24  C25 UNL     1      27.593   8.933  44.738  1.00  0.00     0.209 C 
HETATM   25  O2  UNL     1      27.308   9.560  45.958  1.00  0.00    -0.278 OA
ENDROOT
BRANCH   3  26
HETATM   26  N2  UNL     1      29.173   9.318  49.067  1.00  0.00    -0.385 N 
HETATM   27  C5  UNL     1      30.500   9.694  49.558  1.00  0.00     0.149 C 
BRANCH  26  28
HETATM   28  C6  UNL     1      28.227  10.419  49.230  1.00  0.00     0.152 C 
BRANCH  28  29
HETATM   29  C7  UNL     1      28.887  11.596  48.497  1.00  0.00     0.291 C 
BRANCH  29  30
HETATM   30  N3  UNL     1      27.979  12.719  48.621  1.00  0.00     0.081 N 
HETATM   31  C8  UNL     1      26.685  12.241  48.157  1.00  0.00     0.309 C 
HETATM   32  C9  UNL     1      28.433  13.798  47.785  1.00  0.00     0.309 C 
ENDBRANCH  29  30
ENDBRANCH  28  29
ENDBRANCH  26  28
ENDBRANCH   3  26
BRANCH   1  33
HETATM   33  C2  UNL     1      25.619   8.156  46.415  1.00  0.00     0.107 C 
HETATM   34  C1  UNL     1      24.962   7.561  47.373  1.00  0.00     0.032 C 
ENDBRANCH   1  33
TORSDOF 5
ENDMDL
MODEL 2
REMARK VINA RESULT:      -6.5      4.597      9.234
REMARK  5 active torsions:
REMARK  status: ('A' for Active; 'I' for Inactive)
REMARK    1  A    between atoms: C2_2  and  N1_3 
REMARK    2  A    between atoms: C4_5  and  N2_6 
REMARK    3  A    between atoms: N2_6  and  C6_8 
REMARK    4  A    between atoms: C6_8  and  C7_9 
REMARK    5  A    between atoms: C7_9  and  N3_10 
ROOT
HETATM    1  N1  UNL     1      26.547   7.394  48.863  1.00  0.00    -0.265 N 
HETATM    2  C3  UNL     1      25.702   8.368  48.216  1.00  0.00     0.212 C 
HETATM    3  C4  UNL     1      24.250   8.116  48.372  1.00  0.00     0.034 C 
HETATM    4  C10 UNL     1      23.504   7.906  47.298  1.00  0.00     0.001 C 
HETATM    5  C11 UNL     1      24.020   7.910  45.936  1.00  0.00     0.208 C 
HETATM    6  O1  UNL     1      22.772   8.382  45.446  1.00  0.00    -0.372 OA
HETATM    7  C12 UNL     1      22.257   7.626  46.533  1.00  0.00     0.189 C 
HETATM    8  C13 UNL     1      22.004   6.222  46.195  1.00  0.00    -0.010 A 
HETATM    9  C14 UNL     1      21.739   6.057  44.819  1.00  0.00     0.030 A 
HETATM   10  C15 UNL     1      21.439   4.904  44.089  1.00  0.00     0.117 A 
HETATM   11  N4  UNL     1      21.389   3.756  44.789  1.00  0.00    -0.272 NA
HETATM   12  C16 UNL     1      21.640   3.876  46.128  1.00  0.00     0.130 A 
HETATM   13  C17 UNL     1      21.944   5.029  46.873  1.00  0.00     0.019 A 
HETATM   14  C18 UNL     1      22.109   4.577  48.252  1.00  0.00     0.071 A 
HETATM   15  C19 UNL     1      20.935   4.379  49.000  1.00  0.00     0.035 A 
HETATM   16  C20 UNL     1      21.246   3.934  50.299  1.00  0.00     0.035 A 
HETATM   17  C21 UNL     1      22.629   3.900  50.216  1.00  0.00     0.076 A 
HETATM   18  C22 UNL     1      23.505   3.517  51.237  1.00  0.00     0.150 A 
HETATM   19  N5  UNL     1      24.849   3.533  50.988  1.00  0.00    -0.241 NA
HETATM   20  C23 UNL     1      25.288   3.923  49.759  1.00  0.00     0.148 A 
HETATM   21  N6  UNL     1      24.419   4.286  48.798  1.00  0.00    -0.151 NA
HETATM   22  N7  UNL     1      23.125   4.273  49.028  1.00  0.00    -0.230 N 
HETATM   23  C24 UNL     1      26.763   3.951  49.470  1.00  0.00     0.111 C 
HETATM   24  C25 UNL     1      26.983   5.257  48.700  1.00  0.00     0.209 C 
HETATM   25  O2  UNL     1      26.564   6.266  49.576  1.00  0.00    -0.278 OA
ENDROOT
BRANCH   3  26
HETATM   26  N2  UNL     1      23.427   8.098  49.513  1.00  0.00    -0.385 N 
HETATM   27  C5  UNL     1      23.575   7.457  50.820  1.00  0.00     0.149 C 
BRANCH  26  28
HETATM   28  C6  UNL     1      22.189   8.870  49.448  1.00  0.00     0.152 C 
BRANCH  28  29
HETATM   29  C7  UNL     1      21.146   7.967  50.124  1.00  0.00     0.291 C 
BRANCH  29  30
HETATM   30  N3  UNL     1      19.848   8.536  49.816  1.00  0.00     0.081 N 
HETATM   31  C8  UNL     1      19.286   7.703  48.763  1.00  0.00     0.309 C 
HETATM   32  C9  UNL     1      20.015   9.883  49.340  1.00  0.00     0.309 C 
ENDBRANCH  29  30
ENDBRANCH  28  29
ENDBRANCH  26  28
ENDBRANCH   3  26
BRANCH   1  33
HETATM   33  C2  UNL     1      27.918   7.794  48.647  1.00  0.00     0.107 C 
HETATM   34  C1  UNL     1      28.245   8.902  49.253  1.00  0.00     0.032 C 
ENDBRANCH   1  33
TORSDOF 5
ENDMDL
MODEL 3
REMARK VINA RESULT:      -6.3      7.505     11.390
REMARK  5 active torsions:
REMARK  status: ('A' for Active; 'I' for Inactive)
REMARK    1  A    between atoms: C2_2  and  N1_3 
REMARK    2  A    between atoms: C4_5  and  N2_6 
REMARK    3  A    between atoms: N2_6  and  C6_8 
REMARK    4  A    between atoms: C6_8  and  C7_9 
REMARK    5  A    between atoms: C7_9  and  N3_10 
ROOT
HETATM    1  N1  UNL     1      24.613   4.617  49.457  1.00  0.00    -0.265 N 
HETATM    2  C3  UNL     1      24.158   3.365  48.904  1.00  0.00     0.212 C 
HETATM    3  C4  UNL     1      22.824   3.430  48.262  1.00  0.00     0.034 C 
HETATM    4  C10 UNL     1      21.834   2.687  48.733  1.00  0.00     0.001 C 
HETATM    5  C11 UNL     1      21.966   1.780  49.865  1.00  0.00     0.208 C 
HETATM    6  O1  UNL     1      20.976   0.921  49.315  1.00  0.00    -0.372 OA
HETATM    7  C12 UNL     1      20.451   2.139  48.807  1.00  0.00     0.189 C 
HETATM    8  C13 UNL     1      19.536   2.809  49.735  1.00  0.00    -0.010 A 
HETATM    9  C14 UNL     1      18.913   1.889  50.606  1.00  0.00     0.030 A 
HETATM   10  C15 UNL     1      17.975   2.099  51.621  1.00  0.00     0.117 A 
HETATM   11  N4  UNL     1      17.590   3.373  51.817  1.00  0.00    -0.272 NA
HETATM   12  C16 UNL     1      18.173   4.294  50.991  1.00  0.00     0.130 A 
HETATM   13  C17 UNL     1      19.117   4.095  49.969  1.00  0.00     0.019 A 
HETATM   14  C18 UNL     1      19.383   5.420  49.413  1.00  0.00     0.071 A 
HETATM   15  C19 UNL     1      18.452   5.917  48.484  1.00  0.00     0.035 A 
HETATM   16  C20 UNL     1      18.828   7.201  48.046  1.00  0.00     0.035 A 
HETATM   17  C21 UNL     1      19.994   7.371  48.776  1.00  0.00     0.076 A 
HETATM   18  C22 UNL     1      20.823   8.497  48.751  1.00  0.00     0.150 A 
HETATM   19  N5  UNL     1      21.938   8.508  49.541  1.00  0.00    -0.241 NA
HETATM   20  C23 UNL     1      22.204   7.425  50.322  1.00  0.00     0.148 A 
HETATM   21  N6  UNL     1      21.386   6.356  50.324  1.00  0.00    -0.151 NA
HETATM   22  N7  UNL     1      20.312   6.337  49.567  1.00  0.00    -0.230 N 
HETATM   23  C24 UNL     1      23.428   7.418  51.195  1.00  0.00     0.111 C 
HETATM   24  C25 UNL     1      24.014   6.012  51.032  1.00  0.00     0.209 C 
HETATM   25  O2  UNL     1      24.298   5.897  49.665  1.00  0.00    -0.278 OA
ENDROOT
BRANCH   3  26
HETATM   26  N2  UNL     1      22.367   4.141  47.136  1.00  0.00    -0.385 N 
HETATM   27  C5  UNL     1      22.273   5.574  46.853  1.00  0.00     0.149 C 
BRANCH  26  28
HETATM   28  C6  UNL     1      21.914   3.353  45.994  1.00  0.00     0.152 C 
BRANCH  28  29
HETATM   29  C7  UNL     1      21.636   4.397  44.902  1.00  0.00     0.291 C 
BRANCH  29  30
HETATM   30  N3  UNL     1      20.615   3.830  44.042  1.00  0.00     0.081 N 
HETATM   31  C8  UNL     1      20.507   4.730  42.903  1.00  0.00     0.309 C 
HETATM   32  C9  UNL     1      19.364   3.781  44.750  1.00  0.00     0.309 C 
ENDBRANCH  29  30
ENDBRANCH  28  29
ENDBRANCH  26  28
ENDBRANCH   3  26
BRANCH   1  33
HETATM   33  C2  UNL     1      25.928   4.395  50.012  1.00  0.00     0.107 C 
HETATM   34  C1  UNL     1      26.500   3.301  49.591  1.00  0.00     0.032 C 
ENDBRANCH   1  33
TORSDOF 5
ENDMDL
MODEL 4
REMARK VINA RESULT:      -6.3      5.240      8.655
REMARK  5 active torsions:
REMARK  status: ('A' for Active; 'I' for Inactive)
REMARK    1  A    between atoms: C2_2  and  N1_3 
REMARK    2  A    between atoms: C4_5  and  N2_6 
REMARK    3  A    between atoms: N2_6  and  C6_8 
REMARK    4  A    between atoms: C6_8  and  C7_9 
REMARK    5  A    between atoms: C7_9  and  N3_10 
ROOT
HETATM    1  N1  UNL     1      22.060   2.970  48.355  1.00  0.00    -0.265 N 
HETATM    2  C3  UNL     1      23.056   2.967  49.398  1.00  0.00     0.212 C 
HETATM    3  C4  UNL     1      23.413   4.313  49.905  1.00  0.00     0.034 C 
HETATM    4  C10 UNL     1      24.660   4.745  49.790  1.00  0.00     0.001 C 
HETATM    5  C11 UNL     1      25.737   3.971  49.189  1.00  0.00     0.208 C 
HETATM    6  O1  UNL     1      26.687   4.600  50.039  1.00  0.00    -0.372 OA
HETATM    7  C12 UNL     1      25.795   5.700  49.931  1.00  0.00     0.189 C 
HETATM    8  C13 UNL     1      26.069   6.559  48.776  1.00  0.00    -0.010 A 
HETATM    9  C14 UNL     1      27.426   6.500  48.394  1.00  0.00     0.030 A 
HETATM   10  C15 UNL     1      28.104   7.161  47.366  1.00  0.00     0.117 A 
HETATM   11  N4  UNL     1      27.367   7.992  46.608  1.00  0.00    -0.272 NA
HETATM   12  C16 UNL     1      26.045   8.076  46.949  1.00  0.00     0.130 A 
HETATM   13  C17 UNL     1      25.351   7.416  47.978  1.00  0.00     0.019 A 
HETATM   14  C18 UNL     1      23.970   7.883  47.887  1.00  0.00     0.071 A 
HETATM   15  C19 UNL     1      23.682   9.131  48.468  1.00  0.00     0.035 A 
HETATM   16  C20 UNL     1      22.324   9.455  48.294  1.00  0.00     0.035 A 
HETATM   17  C21 UNL     1      21.898   8.335  47.597  1.00  0.00     0.076 A 
HETATM   18  C22 UNL     1      20.598   8.098  47.138  1.00  0.00     0.150 A 
HETATM   19  N5  UNL     1      20.344   6.940  46.458  1.00  0.00    -0.241 NA
HETATM   20  C23 UNL     1      21.361   6.058  46.254  1.00  0.00     0.148 A 
HETATM   21  N6  UNL     1      22.601   6.315  46.710  1.00  0.00    -0.151 NA
HETATM   22  N7  UNL     1      22.854   7.426  47.364  1.00  0.00    -0.230 N 
HETATM   23  C24 UNL     1      21.098   4.777  45.512  1.00  0.00     0.111 C 
HETATM   24  C25 UNL     1      21.855   3.706  46.306  1.00  0.00     0.209 C 
HETATM   25  O2  UNL     1      21.288   3.740  47.586  1.00  0.00    -0.278 OA
ENDROOT
BRANCH   3  26
HETATM   26  N2  UNL     1      22.651   5.285  50.578  1.00  0.00    -0.385 N 
HETATM   27  C5  UNL     1      22.970   6.639  51.034  1.00  0.00     0.149 C 
BRANCH  26  28
HETATM   28  C6  UNL     1      21.264   4.946  50.883  1.00  0.00     0.152 C 
BRANCH  28  29
HETATM   29  C7  UNL     1      21.326   4.333  52.290  1.00  0.00     0.291 C 
BRANCH  29  30
HETATM   30  N3  UNL     1      20.317   3.293  52.331  1.00  0.00     0.081 N 
HETATM   31  C8  UNL     1      21.042   2.037  52.454  1.00  0.00     0.309 C 
HETATM   32  C9  UNL     1      19.563   3.307  51.105  1.00  0.00     0.309 C 
ENDBRANCH  29  30
ENDBRANCH  28  29
ENDBRANCH  26  28
ENDBRANCH   3  26
BRANCH   1  33
HETATM   33  C2  UNL     1      21.802   1.595  47.995  1.00  0.00     0.107 C 
HETATM   34  C1  UNL     1      21.381   0.860  48.988  1.00  0.00     0.032 C 
ENDBRANCH   1  33
TORSDOF 5
ENDMDL
MODEL 5
REMARK VINA RESULT:      -6.3      1.615      2.342
REMARK  5 active torsions:
REMARK  status: ('A' for Active; 'I' for Inactive)
REMARK    1  A    between atoms: C2_2  and  N1_3 
REMARK    2  A    between atoms: C4_5  and  N2_6 
REMARK    3  A    between atoms: N2_6  and  C6_8 
REMARK    4  A    between atoms: C6_8  and  C7_9 
REMARK    5  A    between atoms: C7_9  and  N3_10 
ROOT
HETATM    1  N1  UNL     1      28.464   8.934  48.382  1.00  0.00    -0.265 N 
HETATM    2  C3  UNL     1      29.608   8.598  49.194  1.00  0.00     0.212 C 
HETATM    3  C4  UNL     1      30.914   8.835  48.536  1.00  0.00     0.034 C 
HETATM    4  C10 UNL     1      31.738   7.818  48.334  1.00  0.00     0.001 C 
HETATM    5  C11 UNL     1      31.450   6.446  48.727  1.00  0.00     0.208 C 
HETATM    6  O1  UNL     1      32.834   6.193  48.927  1.00  0.00    -0.372 OA
HETATM    7  C12 UNL     1      32.979   7.135  47.873  1.00  0.00     0.189 C 
HETATM    8  C13 UNL     1      32.929   6.527  46.541  1.00  0.00    -0.010 A 
HETATM    9  C14 UNL     1      33.350   5.180  46.567  1.00  0.00     0.030 A 
HETATM   10  C15 UNL     1      33.465   4.250  45.531  1.00  0.00     0.117 A 
HETATM   11  N4  UNL     1      33.127   4.685  44.303  1.00  0.00    -0.272 NA
HETATM   12  C16 UNL     1      32.715   5.988  44.238  1.00  0.00     0.130 A 
HETATM   13  C17 UNL     1      32.594   6.932  45.272  1.00  0.00     0.019 A 
HETATM   14  C18 UNL     1      32.119   8.158  44.635  1.00  0.00     0.071 A 
HETATM   15  C19 UNL     1      33.083   8.955  43.994  1.00  0.00     0.035 A 
HETATM   16  C20 UNL     1      32.482  10.090  43.418  1.00  0.00     0.035 A 
HETATM   17  C21 UNL     1      31.161   9.868  43.774  1.00  0.00     0.076 A 
HETATM   18  C22 UNL     1      30.075  10.692  43.460  1.00  0.00     0.150 A 
HETATM   19  N5  UNL     1      28.828  10.324  43.884  1.00  0.00    -0.241 NA
HETATM   20  C23 UNL     1      28.687   9.173  44.597  1.00  0.00     0.148 A 
HETATM   21  N6  UNL     1      29.753   8.401  44.883  1.00  0.00    -0.151 NA
HETATM   22  N7  UNL     1      30.954   8.747  44.479  1.00  0.00    -0.230 N 
HETATM   23  C24 UNL     1      27.324   8.755  45.075  1.00  0.00     0.111 C 
HETATM   24  C25 UNL     1      27.548   8.269  46.511  1.00  0.00     0.209 C 
HETATM   25  O2  UNL     1      28.065   9.380  47.190  1.00  0.00    -0.278 OA
ENDROOT
BRANCH   3  26
HETATM   26  N2  UNL     1      31.527  10.019  48.086  1.00  0.00    -0.385 N 
HETATM   27  C5  UNL     1      32.704  10.258  47.249  1.00  0.00     0.149 C 
BRANCH  26  28
HETATM   28  C6  UNL     1      30.901  11.279  48.476  1.00  0.00     0.152 C 
BRANCH  28  29
HETATM   29  C7  UNL     1      30.468  11.913  47.146  1.00  0.00     0.291 C 
BRANCH  29  30
HETATM   30  N3  UNL     1      29.455  12.899  47.470  1.00  0.00     0.081 N 
HETATM   31  C8  UNL     1      28.961  12.544  48.792  1.00  0.00     0.309 C 
HETATM   32  C9  UNL     1      28.387  12.823  46.509  1.00  0.00     0.309 C 
ENDBRANCH  29  30
ENDBRANCH  28  29
ENDBRANCH  26  28
ENDBRANCH   3  26
BRANCH   1  33
HETATM   33  C2  UNL     1      27.280   8.678  49.171  1.00  0.00     0.107 C 
HETATM   34  C1  UNL     1      27.295   9.248  50.344  1.00  0.00     0.032 C 
ENDBRANCH   1  33
TORSDOF 5
ENDMDL
MODEL 6
REMARK VINA RESULT:      -6.2      6.593      9.284
REMARK  5 active torsions:
REMARK  status: ('A' for Active; 'I' for Inactive)
REMARK    1  A    between atoms: C2_2  and  N1_3 
REMARK    2  A    between atoms: C4_5  and  N2_6 
REMARK    3  A    between atoms: N2_6  and  C6_8 
REMARK    4  A    between atoms: C6_8  and  C7_9 
REMARK    5  A    between atoms: C7_9  and  N3_10 
ROOT
HETATM    1  N1  UNL     1      20.158   4.305  46.048  1.00  0.00    -0.265 N 
HETATM    2  C3  UNL     1      20.212   3.439  47.200  1.00  0.00     0.212 C 
HETATM    3  C4  UNL     1      20.783   4.071  48.413  1.00  0.00     0.034 C 
HETATM    4  C10 UNL     1      21.882   3.569  48.956  1.00  0.00     0.001 C 
HETATM    5  C11 UNL     1      22.587   2.405  48.438  1.00  0.00     0.208 C 
HETATM    6  O1  UNL     1      23.018   2.060  49.748  1.00  0.00    -0.372 OA
HETATM    7  C12 UNL     1      23.000   3.469  49.935  1.00  0.00     0.189 C 
HETATM    8  C13 UNL     1      24.256   4.120  49.554  1.00  0.00    -0.010 A 
HETATM    9  C14 UNL     1      25.354   3.241  49.670  1.00  0.00     0.030 A 
HETATM   10  C15 UNL     1      26.713   3.456  49.423  1.00  0.00     0.117 A 
HETATM   11  N4  UNL     1      27.052   4.690  49.009  1.00  0.00    -0.272 NA
HETATM   12  C16 UNL     1      26.013   5.572  48.884  1.00  0.00     0.130 A 
HETATM   13  C17 UNL     1      24.644   5.367  49.129  1.00  0.00     0.019 A 
HETATM   14  C18 UNL     1      23.996   6.645  48.842  1.00  0.00     0.071 A 
HETATM   15  C19 UNL     1      24.049   7.624  49.849  1.00  0.00     0.035 A 
HETATM   16  C20 UNL     1      23.398   8.799  49.430  1.00  0.00     0.035 A 
HETATM   17  C21 UNL     1      22.997   8.411  48.161  1.00  0.00     0.076 A 
HETATM   18  C22 UNL     1      22.289   9.198  47.246  1.00  0.00     0.150 A 
HETATM   19  N5  UNL     1      21.975   8.665  46.028  1.00  0.00    -0.241 NA
HETATM   20  C23 UNL     1      22.359   7.388  45.748  1.00  0.00     0.148 A 
HETATM   21  N6  UNL     1      23.038   6.657  46.650  1.00  0.00    -0.151 NA
HETATM   22  N7  UNL     1      23.345   7.162  47.824  1.00  0.00    -0.230 N 
HETATM   23  C24 UNL     1      22.018   6.784  44.414  1.00  0.00     0.111 C 
HETATM   24  C25 UNL     1      21.559   5.358  44.739  1.00  0.00     0.209 C 
HETATM   25  O2  UNL     1      20.452   5.521  45.582  1.00  0.00    -0.278 OA
ENDROOT
BRANCH   3  26
HETATM   26  N2  UNL     1      20.338   5.153  49.195  1.00  0.00    -0.385 N 
HETATM   27  C5  UNL     1      20.023   6.543  48.859  1.00  0.00     0.149 C 
BRANCH  26  28
HETATM   28  C6  UNL     1      20.103   4.894  50.612  1.00  0.00     0.152 C 
BRANCH  28  29
HETATM   29  C7  UNL     1      18.741   4.184  50.646  1.00  0.00     0.291 C 
BRANCH  29  30
HETATM   30  N3  UNL     1      18.900   3.030  51.509  1.00  0.00     0.081 N 
HETATM   31  C8  UNL     1      20.155   3.230  52.217  1.00  0.00     0.309 C 
HETATM   32  C9  UNL     1      18.971   1.837  50.708  1.00  0.00     0.309 C 
ENDBRANCH  29  30
ENDBRANCH  28  29
ENDBRANCH  26  28
ENDBRANCH   3  26
BRANCH   1  33
HETATM   33  C2  UNL     1      19.554   3.558  44.969  1.00  0.00     0.107 C 
HETATM   34  C1  UNL     1      18.317   3.209  45.198  1.00  0.00     0.032 C 
ENDBRANCH   1  33
TORSDOF 5
ENDMDL
MODEL 7
REMARK VINA RESULT:      -6.0      5.663      9.770
REMARK  5 active torsions:
REMARK  status: ('A' for Active; 'I' for Inactive)
REMARK    1  A    between atoms: C2_2  and  N1_3 
REMARK    2  A    between atoms: C4_5  and  N2_6 
REMARK    3  A    between atoms: N2_6  and  C6_8 
REMARK    4  A    between atoms: C6_8  and  C7_9 
REMARK    5  A    between atoms: C7_9  and  N3_10 
ROOT
HETATM    1  N1  UNL     1      23.618   3.075  50.692  1.00  0.00    -0.265 N 
HETATM    2  C3  UNL     1      24.207   4.237  51.310  1.00  0.00     0.212 C 
HETATM    3  C4  UNL     1      23.577   5.521  50.923  1.00  0.00     0.034 C 
HETATM    4  C10 UNL     1      24.300   6.445  50.309  1.00  0.00     0.001 C 
HETATM    5  C11 UNL     1      25.710   6.290  49.981  1.00  0.00     0.208 C 
HETATM    6  O1  UNL     1      25.914   7.691  50.117  1.00  0.00    -0.372 OA
HETATM    7  C12 UNL     1      24.573   7.754  49.651  1.00  0.00     0.189 C 
HETATM    8  C13 UNL     1      24.467   7.781  48.190  1.00  0.00    -0.010 A 
HETATM    9  C14 UNL     1      25.621   8.333  47.594  1.00  0.00     0.030 A 
HETATM   10  C15 UNL     1      25.925   8.553  46.248  1.00  0.00     0.117 A 
HETATM   11  N4  UNL     1      24.982   8.189  45.360  1.00  0.00    -0.272 NA
HETATM   12  C16 UNL     1      23.847   7.649  45.901  1.00  0.00     0.130 A 
HETATM   13  C17 UNL     1      23.531   7.422  47.251  1.00  0.00     0.019 A 
HETATM   14  C18 UNL     1      22.193   6.834  47.250  1.00  0.00     0.071 A 
HETATM   15  C19 UNL     1      21.110   7.722  47.126  1.00  0.00     0.035 A 
HETATM   16  C20 UNL     1      19.892   7.017  47.127  1.00  0.00     0.035 A 
HETATM   17  C21 UNL     1      20.365   5.721  47.257  1.00  0.00     0.076 A 
HETATM   18  C22 UNL     1      19.583   4.562  47.311  1.00  0.00     0.150 A 
HETATM   19  N5  UNL     1      20.210   3.354  47.434  1.00  0.00    -0.241 NA
HETATM   20  C23 UNL     1      21.570   3.320  47.501  1.00  0.00     0.148 A 
HETATM   21  N6  UNL     1      22.293   4.453  47.446  1.00  0.00    -0.151 NA
HETATM   22  N7  UNL     1      21.699   5.619  47.327  1.00  0.00    -0.230 N 
HETATM   23  C24 UNL     1      22.275   1.999  47.640  1.00  0.00     0.111 C 
HETATM   24  C25 UNL     1      23.372   2.253  48.680  1.00  0.00     0.209 C 
HETATM   25  O2  UNL     1      22.687   2.649  49.836  1.00  0.00    -0.278 OA
ENDROOT
BRANCH   3  26
HETATM   26  N2  UNL     1      22.277   6.019  51.130  1.00  0.00    -0.385 N 
HETATM   27  C5  UNL     1      21.632   7.272  50.736  1.00  0.00     0.149 C 
BRANCH  26  28
HETATM   28  C6  UNL     1      21.343   5.154  51.846  1.00  0.00     0.152 C 
BRANCH  28  29
HETATM   29  C7  UNL     1      20.245   4.850  50.816  1.00  0.00     0.291 C 
BRANCH  29  30
HETATM   30  N3  UNL     1      19.716   3.543  51.153  1.00  0.00     0.081 N 
HETATM   31  C8  UNL     1      18.288   3.732  51.363  1.00  0.00     0.309 C 
HETATM   32  C9  UNL     1      20.333   3.072  52.364  1.00  0.00     0.309 C 
ENDBRANCH  29  30
ENDBRANCH  28  29
ENDBRANCH  26  28
ENDBRANCH   3  26
BRANCH   1  33
HETATM   33  C2  UNL     1      24.317   1.914  51.191  1.00  0.00     0.107 C 
HETATM   34  C1  UNL     1      23.923   1.530  52.375  1.00  0.00     0.032 C 
ENDBRANCH   1  33
TORSDOF 5
ENDMDL
MODEL 8
REMARK VINA RESULT:      -6.0      6.766      8.860
REMARK  5 active torsions:
REMARK  status: ('A' for Active; 'I' for Inactive)
REMARK    1  A    between atoms: C2_2  and  N1_3 
REMARK    2  A    between atoms: C4_5  and  N2_6 
REMARK    3  A    between atoms: N2_6  and  C6_8 
REMARK    4  A    between atoms: C6_8  and  C7_9 
REMARK    5  A    between atoms: C7_9  and  N3_10 
ROOT
HETATM    1  N1  UNL     1      19.491   4.077  48.512  1.00  0.00    -0.265 N 
HETATM    2  C3  UNL     1      19.696   4.029  49.939  1.00  0.00     0.212 C 
HETATM    3  C4  UNL     1      20.755   4.940  50.435  1.00  0.00     0.034 C 
HETATM    4  C10 UNL     1      21.814   4.437  51.050  1.00  0.00     0.001 C 
HETATM    5  C11 UNL     1      22.019   3.016  51.288  1.00  0.00     0.208 C 
HETATM    6  O1  UNL     1      22.746   3.300  52.476  1.00  0.00    -0.372 OA
HETATM    7  C12 UNL     1      23.126   4.465  51.756  1.00  0.00     0.189 C 
HETATM    8  C13 UNL     1      24.316   4.269  50.923  1.00  0.00    -0.010 A 
HETATM    9  C14 UNL     1      25.150   3.254  51.437  1.00  0.00     0.030 A 
HETATM   10  C15 UNL     1      26.371   2.763  50.966  1.00  0.00     0.117 A 
HETATM   11  N4  UNL     1      26.847   3.336  49.845  1.00  0.00    -0.272 NA
HETATM   12  C16 UNL     1      26.065   4.326  49.317  1.00  0.00     0.130 A 
HETATM   13  C17 UNL     1      24.836   4.827  49.781  1.00  0.00     0.019 A 
HETATM   14  C18 UNL     1      24.456   5.878  48.839  1.00  0.00     0.071 A 
HETATM   15  C19 UNL     1      25.057   7.136  49.016  1.00  0.00     0.035 A 
HETATM   16  C20 UNL     1      24.609   8.040  48.034  1.00  0.00     0.035 A 
HETATM   17  C21 UNL     1      23.747   7.216  47.326  1.00  0.00     0.076 A 
HETATM   18  C22 UNL     1      22.998   7.583  46.204  1.00  0.00     0.150 A 
HETATM   19  N5  UNL     1      22.197   6.644  45.615  1.00  0.00    -0.241 NA
HETATM   20  C23 UNL     1      22.155   5.389  46.143  1.00  0.00     0.148 A 
HETATM   21  N6  UNL     1      22.889   5.068  47.225  1.00  0.00    -0.151 NA
HETATM   22  N7  UNL     1      23.661   5.964  47.796  1.00  0.00    -0.230 N 
HETATM   23  C24 UNL     1      21.276   4.345  45.511  1.00  0.00     0.111 C 
HETATM   24  C25 UNL     1      20.616   3.626  46.692  1.00  0.00     0.209 C 
HETATM   25  O2  UNL     1      19.904   4.625  47.368  1.00  0.00    -0.278 OA
ENDROOT
BRANCH   3  26
HETATM   26  N2  UNL     1      20.852   6.344  50.426  1.00  0.00    -0.385 N 
HETATM   27  C5  UNL     1      21.862   7.261  50.957  1.00  0.00     0.149 C 
BRANCH  26  28
HETATM   28  C6  UNL     1      19.785   7.077  49.751  1.00  0.00     0.152 C 
BRANCH  28  29
HETATM   29  C7  UNL     1      20.525   8.120  48.899  1.00  0.00     0.291 C 
BRANCH  29  30
HETATM   30  N3  UNL     1      19.635   9.258  48.778  1.00  0.00     0.081 N 
HETATM   31  C8  UNL     1      20.454  10.356  48.286  1.00  0.00     0.309 C 
HETATM   32  C9  UNL     1      19.097   9.587  50.071  1.00  0.00     0.309 C 
ENDBRANCH  29  30
ENDBRANCH  28  29
ENDBRANCH  26  28
ENDBRANCH   3  26
BRANCH   1  33
HETATM   33  C2  UNL     1      18.416   3.164  48.196  1.00  0.00     0.107 C 
HETATM   34  C1  UNL     1      18.059   2.405  49.195  1.00  0.00     0.032 C 
ENDBRANCH   1  33
TORSDOF 5
ENDMDL
MODEL 9
REMARK VINA RESULT:      -6.0      3.173      6.807
REMARK  5 active torsions:
REMARK  status: ('A' for Active; 'I' for Inactive)
REMARK    1  A    between atoms: C2_2  and  N1_3 
REMARK    2  A    between atoms: C4_5  and  N2_6 
REMARK    3  A    between atoms: N2_6  and  C6_8 
REMARK    4  A    between atoms: C6_8  and  C7_9 
REMARK    5  A    between atoms: C7_9  and  N3_10 
ROOT
HETATM    1  N1  UNL     1      32.776   8.100  42.542  1.00  0.00    -0.265 N 
HETATM    2  C3  UNL     1      32.232   9.175  43.336  1.00  0.00     0.212 C 
HETATM    3  C4  UNL     1      32.474   9.041  44.792  1.00  0.00     0.034 C 
HETATM    4  C10 UNL     1      31.444   8.950  45.620  1.00  0.00     0.001 C 
HETATM    5  C11 UNL     1      30.052   8.978  45.193  1.00  0.00     0.208 C 
HETATM    6  O1  UNL     1      29.669   9.579  46.423  1.00  0.00    -0.372 OA
HETATM    7  C12 UNL     1      30.753   8.816  46.933  1.00  0.00     0.189 C 
HETATM    8  C13 UNL     1      30.372   7.458  47.330  1.00  0.00    -0.010 A 
HETATM    9  C14 UNL     1      29.010   7.386  47.696  1.00  0.00     0.030 A 
HETATM   10  C15 UNL     1      28.251   6.301  48.143  1.00  0.00     0.117 A 
HETATM   11  N4  UNL     1      28.901   5.128  48.250  1.00  0.00    -0.272 NA
HETATM   12  C16 UNL     1      30.224   5.158  47.905  1.00  0.00     0.130 A 
HETATM   13  C17 UNL     1      30.997   6.242  47.453  1.00  0.00     0.019 A 
HETATM   14  C18 UNL     1      32.341   5.708  47.242  1.00  0.00     0.071 A 
HETATM   15  C19 UNL     1      33.157   5.575  48.379  1.00  0.00     0.035 A 
HETATM   16  C20 UNL     1      34.410   5.040  48.027  1.00  0.00     0.035 A 
HETATM   17  C21 UNL     1      34.233   4.892  46.661  1.00  0.00     0.076 A 
HETATM   18  C22 UNL     1      35.174   4.384  45.760  1.00  0.00     0.150 A 
HETATM   19  N5  UNL     1      34.837   4.297  44.438  1.00  0.00    -0.241 NA
HETATM   20  C23 UNL     1      33.599   4.709  44.045  1.00  0.00     0.148 A 
HETATM   21  N6  UNL     1      32.716   5.194  44.937  1.00  0.00    -0.151 NA
HETATM   22  N7  UNL     1      33.032   5.280  46.209  1.00  0.00    -0.230 N 
HETATM   23  C24 UNL     1      33.213   4.625  42.594  1.00  0.00     0.111 C 
HETATM   24  C25 UNL     1      32.488   5.945  42.308  1.00  0.00     0.209 C 
HETATM   25  O2  UNL     1      33.435   6.941  42.580  1.00  0.00    -0.278 OA
ENDROOT
BRANCH   3  26
HETATM   26  N2  UNL     1      33.666   9.036  45.539  1.00  0.00    -0.385 N 
HETATM   27  C5  UNL     1      33.944   9.341  46.944  1.00  0.00     0.149 C 
BRANCH  26  28
HETATM   28  C6  UNL     1      34.884   8.634  44.842  1.00  0.00     0.152 C 
BRANCH  28  29
HETATM   29  C7  UNL     1      35.587   9.960  44.515  1.00  0.00     0.291 C 
BRANCH  29  30
HETATM   30  N3  UNL     1      36.818   9.614  43.830  1.00  0.00     0.081 N 
HETATM   31  C8  UNL     1      37.372  10.870  43.347  1.00  0.00     0.309 C 
HETATM   32  C9  UNL     1      36.522   8.748  42.720  1.00  0.00     0.309 C 
ENDBRANCH  29  30
ENDBRANCH  28  29
ENDBRANCH  26  28
ENDBRANCH   3  26
BRANCH   1  33
HETATM   33  C2  UNL     1      32.485   8.392  41.157  1.00  0.00     0.107 C 
HETATM   34  C1  UNL     1      33.407   9.100  40.563  1.00  0.00     0.032 C 
ENDBRANCH   1  33
TORSDOF 5
ENDMDL
