MODEL 1
REMARK VINA RESULT:      -9.3      0.000      0.000
REMARK  5 active torsions:
REMARK  status: ('A' for Active; 'I' for Inactive)
REMARK    1  A    between atoms: C5_7  and  O1_8 
REMARK    2  A    between atoms: O1_8  and  C6_9 
REMARK    3  A    between atoms: C7_10  and  O2_11 
REMARK    4  A    between atoms: C12_18  and  N4_19 
REMARK    5  A    between atoms: N4_19  and  C13_20 
ROOT
HETATM    1  C6  UNL     1      22.461   0.344  52.379  1.00  0.00     0.118 A 
HETATM    2  C7  UNL     1      21.067   0.329  52.146  1.00  0.00     0.100 A 
HETATM    3  C8  UNL     1      20.181  -0.297  53.037  1.00  0.00     0.041 A 
HETATM    4  C9  UNL     1      20.660  -0.933  54.194  1.00  0.00     0.035 A 
HETATM    5  C10 UNL     1      22.013  -0.925  54.422  1.00  0.00     0.075 A 
HETATM    6  N2  UNL     1      22.609  -1.501  55.484  1.00  0.00    -0.241 NA
HETATM    7  C11 UNL     1      23.932  -1.498  55.698  1.00  0.00     0.236 A 
HETATM    8  N3  UNL     1      24.745  -0.876  54.787  1.00  0.00    -0.223 NA
HETATM    9  C12 UNL     1      24.190  -0.282  53.700  1.00  0.00     0.144 A 
HETATM   10  C19 UNL     1      22.845  -0.303  53.526  1.00  0.00     0.075 A 
ENDROOT
BRANCH   9  11
HETATM   11  N4  UNL     1      25.169   0.234  52.823  1.00  0.00    -0.340 N 
HETATM   12  H14 UNL     1      25.299   0.670  51.897  1.00  0.00     0.167 HD
BRANCH  11  13
HETATM   13  C13 UNL     1      26.547   0.186  53.163  1.00  0.00     0.035 A 
HETATM   14  C14 UNL     1      27.083  -1.059  52.796  1.00  0.00     0.032 A 
HETATM   15  C15 UNL     1      28.423  -1.380  52.996  1.00  0.00     0.046 A 
HETATM   16  C16 UNL     1      29.226  -0.415  53.578  1.00  0.00     0.138 A 
HETATM   17  F1  UNL     1      30.537  -0.630  53.816  1.00  0.00    -0.204 F 
HETATM   18  C17 UNL     1      28.747   0.816  53.953  1.00  0.00     0.074 A 
HETATM   19 CL1  UNL     1      29.662   2.115  54.692  1.00  0.00    -0.081 Cl
HETATM   20  C18 UNL     1      27.420   1.086  53.737  1.00  0.00     0.056 A 
ENDBRANCH  11  13
ENDBRANCH   9  11
BRANCH   1  21
HETATM   21  O1  UNL     1      23.061   1.028  51.372  1.00  0.00    -0.340 OA
BRANCH  21  22
HETATM   22  C5  UNL     1      23.089   2.450  51.203  1.00  0.00     0.148 C 
HETATM   23  C2  UNL     1      24.080   2.889  50.133  1.00  0.00     0.105 C 
HETATM   24  C1  UNL     1      25.461   3.126  50.597  1.00  0.00     0.031 C 
HETATM   25  N1  UNL     1      23.579   4.131  49.532  1.00  0.00    -0.207 NA
HETATM   26  P1  UNL     1      23.188   5.237  50.643  1.00  0.00     0.020 P 
HETATM   27  C3  UNL     1      23.480   4.629  52.399  1.00  0.00     0.060 C 
HETATM   28  C4  UNL     1      23.255   3.146  52.503  1.00  0.00     0.040 C 
ENDBRANCH  21  22
ENDBRANCH   1  21
BRANCH   2  29
HETATM   29  O2  UNL     1      20.219   0.829  51.131  1.00  0.00    -0.358 OA
HETATM   30  H10 UNL     1      20.439   0.430  50.200  1.00  0.00     0.217 HD
ENDBRANCH   2  29
TORSDOF 5
ENDMDL
MODEL 2
REMARK VINA RESULT:      -9.0      2.293      5.060
REMARK  5 active torsions:
REMARK  status: ('A' for Active; 'I' for Inactive)
REMARK    1  A    between atoms: C5_7  and  O1_8 
REMARK    2  A    between atoms: O1_8  and  C6_9 
REMARK    3  A    between atoms: C7_10  and  O2_11 
REMARK    4  A    between atoms: C12_18  and  N4_19 
REMARK    5  A    between atoms: N4_19  and  C13_20 
ROOT
HETATM    1  C6  UNL     1      24.016   3.874  51.709  1.00  0.00     0.118 A 
HETATM    2  C7  UNL     1      23.216   5.013  51.957  1.00  0.00     0.100 A 
HETATM    3  C8  UNL     1      23.459   6.235  51.312  1.00  0.00     0.041 A 
HETATM    4  C9  UNL     1      24.514   6.362  50.394  1.00  0.00     0.035 A 
HETATM    5  C10 UNL     1      25.297   5.260  50.153  1.00  0.00     0.075 A 
HETATM    6  N2  UNL     1      26.344   5.241  49.306  1.00  0.00    -0.241 NA
HETATM    7  C11 UNL     1      27.110   4.164  49.079  1.00  0.00     0.236 A 
HETATM    8  N3  UNL     1      26.825   3.001  49.747  1.00  0.00    -0.223 NA
HETATM    9  C12 UNL     1      25.779   2.973  50.612  1.00  0.00     0.144 A 
HETATM   10  C19 UNL     1      25.026   4.084  50.806  1.00  0.00     0.075 A 
ENDROOT
BRANCH   9  11
HETATM   11  N4  UNL     1      25.678   1.731  51.276  1.00  0.00    -0.340 N 
HETATM   12  H14 UNL     1      25.053   0.923  51.422  1.00  0.00     0.167 HD
BRANCH  11  13
HETATM   13  C13 UNL     1      26.714   1.279  52.135  1.00  0.00     0.035 A 
HETATM   14  C14 UNL     1      26.741  -0.125  52.149  1.00  0.00     0.032 A 
HETATM   15  C15 UNL     1      27.671  -0.844  52.895  1.00  0.00     0.046 A 
HETATM   16  C16 UNL     1      28.586  -0.118  53.637  1.00  0.00     0.138 A 
HETATM   17  F1  UNL     1      29.525  -0.721  54.395  1.00  0.00    -0.204 F 
HETATM   18  C17 UNL     1      28.598   1.255  53.656  1.00  0.00     0.074 A 
HETATM   19 CL1  UNL     1      29.703   2.281  54.549  1.00  0.00    -0.081 Cl
HETATM   20  C18 UNL     1      27.662   1.920  52.905  1.00  0.00     0.056 A 
ENDBRANCH  11  13
ENDBRANCH   9  11
BRANCH   1  21
HETATM   21  O1  UNL     1      23.542   2.841  52.452  1.00  0.00    -0.340 OA
BRANCH  21  22
HETATM   22  C5  UNL     1      22.357   2.079  52.198  1.00  0.00     0.148 C 
HETATM   23  C2  UNL     1      22.135   0.985  53.234  1.00  0.00     0.105 C 
HETATM   24  C1  UNL     1      22.780  -0.311  52.947  1.00  0.00     0.031 C 
HETATM   25  N1  UNL     1      20.689   0.761  53.356  1.00  0.00    -0.207 NA
HETATM   26  P1  UNL     1      19.978   0.542  51.923  1.00  0.00     0.020 P 
HETATM   27  C3  UNL     1      21.197   0.637  50.493  1.00  0.00     0.060 C 
HETATM   28  C4  UNL     1      22.313   1.599  50.794  1.00  0.00     0.040 C 
ENDBRANCH  21  22
ENDBRANCH   1  21
BRANCH   2  29
HETATM   29  O2  UNL     1      22.105   5.290  52.787  1.00  0.00    -0.358 OA
HETATM   30  H10 UNL     1      21.505   6.044  52.406  1.00  0.00     0.217 HD
ENDBRANCH   2  29
TORSDOF 5
ENDMDL
MODEL 3
REMARK VINA RESULT:      -8.7      3.740      5.930
REMARK  5 active torsions:
REMARK  status: ('A' for Active; 'I' for Inactive)
REMARK    1  A    between atoms: C5_7  and  O1_8 
REMARK    2  A    between atoms: O1_8  and  C6_9 
REMARK    3  A    between atoms: C7_10  and  O2_11 
REMARK    4  A    between atoms: C12_18  and  N4_19 
REMARK    5  A    between atoms: N4_19  and  C13_20 
ROOT
HETATM    1  C6  UNL     1      23.479   1.447  52.218  1.00  0.00     0.118 A 
HETATM    2  C7  UNL     1      22.675   0.512  52.910  1.00  0.00     0.100 A 
HETATM    3  C8  UNL     1      21.555  -0.080  52.306  1.00  0.00     0.041 A 
HETATM    4  C9  UNL     1      21.198   0.244  50.987  1.00  0.00     0.035 A 
HETATM    5  C10 UNL     1      21.972   1.155  50.313  1.00  0.00     0.075 A 
HETATM    6  N2  UNL     1      21.743   1.563  49.050  1.00  0.00    -0.241 NA
HETATM    7  C11 UNL     1      22.498   2.459  48.399  1.00  0.00     0.236 A 
HETATM    8  N3  UNL     1      23.575   3.007  49.047  1.00  0.00    -0.223 NA
HETATM    9  C12 UNL     1      23.846   2.627  50.322  1.00  0.00     0.144 A 
HETATM   10  C19 UNL     1      23.059   1.712  50.940  1.00  0.00     0.075 A 
ENDROOT
BRANCH   9  11
HETATM   11  N4  UNL     1      24.931   3.347  50.867  1.00  0.00    -0.340 N 
HETATM   12  H14 UNL     1      25.508   3.450  51.716  1.00  0.00     0.167 HD
BRANCH  11  13
HETATM   13  C13 UNL     1      25.565   4.379  50.126  1.00  0.00     0.035 A 
HETATM   14  C14 UNL     1      26.727   3.881  49.517  1.00  0.00     0.032 A 
HETATM   15  C15 UNL     1      27.543   4.671  48.711  1.00  0.00     0.046 A 
HETATM   16  C16 UNL     1      27.164   5.988  48.526  1.00  0.00     0.138 A 
HETATM   17  F1  UNL     1      27.888   6.836  47.765  1.00  0.00    -0.204 F 
HETATM   18  C17 UNL     1      26.037   6.521  49.101  1.00  0.00     0.074 A 
HETATM   19 CL1  UNL     1      25.455   8.166  48.938  1.00  0.00    -0.081 Cl
HETATM   20  C18 UNL     1      25.265   5.704  49.887  1.00  0.00     0.056 A 
ENDBRANCH  11  13
ENDBRANCH   9  11
BRANCH   1  21
HETATM   21  O1  UNL     1      24.491   1.836  53.035  1.00  0.00    -0.340 OA
BRANCH  21  22
HETATM   22  C5  UNL     1      25.640   1.062  53.399  1.00  0.00     0.148 C 
HETATM   23  C2  UNL     1      26.806   1.930  53.854  1.00  0.00     0.105 C 
HETATM   24  C1  UNL     1      27.714   2.394  52.787  1.00  0.00     0.031 C 
HETATM   25  N1  UNL     1      27.594   1.160  54.824  1.00  0.00    -0.207 NA
HETATM   26  P1  UNL     1      27.970  -0.313  54.280  1.00  0.00     0.020 P 
HETATM   27  C3  UNL     1      27.292  -0.638  52.556  1.00  0.00     0.060 C 
HETATM   28  C4  UNL     1      25.992   0.085  52.338  1.00  0.00     0.040 C 
ENDBRANCH  21  22
ENDBRANCH   1  21
BRANCH   2  29
HETATM   29  O2  UNL     1      22.691  -0.052  54.206  1.00  0.00    -0.358 OA
HETATM   30  H10 UNL     1      23.644  -0.080  54.614  1.00  0.00     0.217 HD
ENDBRANCH   2  29
TORSDOF 5
ENDMDL
MODEL 4
REMARK VINA RESULT:      -8.7      3.549      5.312
REMARK  5 active torsions:
REMARK  status: ('A' for Active; 'I' for Inactive)
REMARK    1  A    between atoms: C5_7  and  O1_8 
REMARK    2  A    between atoms: O1_8  and  C6_9 
REMARK    3  A    between atoms: C7_10  and  O2_11 
REMARK    4  A    between atoms: C12_18  and  N4_19 
REMARK    5  A    between atoms: N4_19  and  C13_20 
ROOT
HETATM    1  C6  UNL     1      24.660   0.568  52.732  1.00  0.00     0.118 A 
HETATM    2  C7  UNL     1      24.118  -0.343  53.668  1.00  0.00     0.100 A 
HETATM    3  C8  UNL     1      24.810  -0.690  54.839  1.00  0.00     0.041 A 
HETATM    4  C9  UNL     1      26.072  -0.139  55.114  1.00  0.00     0.035 A 
HETATM    5  C10 UNL     1      26.605   0.741  54.205  1.00  0.00     0.075 A 
HETATM    6  N2  UNL     1      27.806   1.337  54.337  1.00  0.00    -0.241 NA
HETATM    7  C11 UNL     1      28.325   2.191  53.443  1.00  0.00     0.236 A 
HETATM    8  N3  UNL     1      27.602   2.484  52.316  1.00  0.00    -0.223 NA
HETATM    9  C12 UNL     1      26.386   1.906  52.139  1.00  0.00     0.144 A 
HETATM   10  C19 UNL     1      25.896   1.053  53.073  1.00  0.00     0.075 A 
ENDROOT
BRANCH   9  11
HETATM   11  N4  UNL     1      25.817   2.247  50.893  1.00  0.00    -0.340 N 
HETATM   12  H14 UNL     1      25.384   1.844  50.048  1.00  0.00     0.167 HD
BRANCH  11  13
HETATM   13  C13 UNL     1      25.773   3.598  50.458  1.00  0.00     0.035 A 
HETATM   14  C14 UNL     1      26.753   3.814  49.477  1.00  0.00     0.032 A 
HETATM   15  C15 UNL     1      26.927   5.048  48.857  1.00  0.00     0.046 A 
HETATM   16  C16 UNL     1      26.087   6.076  49.246  1.00  0.00     0.138 A 
HETATM   17  F1  UNL     1      26.177   7.310  48.708  1.00  0.00    -0.204 F 
HETATM   18  C17 UNL     1      25.114   5.914  50.202  1.00  0.00     0.074 A 
HETATM   19 CL1  UNL     1      23.992   7.133  50.773  1.00  0.00    -0.081 Cl
HETATM   20  C18 UNL     1      24.981   4.679  50.784  1.00  0.00     0.056 A 
ENDBRANCH  11  13
ENDBRANCH   9  11
BRANCH   1  21
HETATM   21  O1  UNL     1      23.772   0.725  51.717  1.00  0.00    -0.340 OA
BRANCH  21  22
HETATM   22  C5  UNL     1      22.420   1.186  51.829  1.00  0.00     0.148 C 
HETATM   23  C2  UNL     1      21.535   0.672  50.702  1.00  0.00     0.105 C 
HETATM   24  C1  UNL     1      21.499   1.505  49.484  1.00  0.00     0.031 C 
HETATM   25  N1  UNL     1      20.166   0.553  51.217  1.00  0.00    -0.207 NA
HETATM   26  P1  UNL     1      19.669   1.900  51.958  1.00  0.00     0.020 P 
HETATM   27  C3  UNL     1      20.982   3.247  51.959  1.00  0.00     0.060 C 
HETATM   28  C4  UNL     1      22.364   2.657  52.018  1.00  0.00     0.040 C 
ENDBRANCH  21  22
ENDBRANCH   1  21
BRANCH   2  29
HETATM   29  O2  UNL     1      22.924  -1.095  53.752  1.00  0.00    -0.358 OA
HETATM   30  H10 UNL     1      22.305  -0.948  52.935  1.00  0.00     0.217 HD
ENDBRANCH   2  29
TORSDOF 5
ENDMDL
MODEL 5
REMARK VINA RESULT:      -8.5      3.455      5.520
REMARK  5 active torsions:
REMARK  status: ('A' for Active; 'I' for Inactive)
REMARK    1  A    between atoms: C5_7  and  O1_8 
REMARK    2  A    between atoms: O1_8  and  C6_9 
REMARK    3  A    between atoms: C7_10  and  O2_11 
REMARK    4  A    between atoms: C12_18  and  N4_19 
REMARK    5  A    between atoms: N4_19  and  C13_20 
ROOT
HETATM    1  C6  UNL     1      23.216   0.516  52.716  1.00  0.00     0.118 A 
HETATM    2  C7  UNL     1      23.022  -0.275  53.871  1.00  0.00     0.100 A 
HETATM    3  C8  UNL     1      21.802  -0.274  54.565  1.00  0.00     0.041 A 
HETATM    4  C9  UNL     1      20.731   0.522  54.128  1.00  0.00     0.035 A 
HETATM    5  C10 UNL     1      20.916   1.296  53.010  1.00  0.00     0.075 A 
HETATM    6  N2  UNL     1      19.980   2.111  52.485  1.00  0.00    -0.241 NA
HETATM    7  C11 UNL     1      20.168   2.870  51.397  1.00  0.00     0.236 A 
HETATM    8  N3  UNL     1      21.385   2.830  50.768  1.00  0.00    -0.223 NA
HETATM    9  C12 UNL     1      22.360   2.024  51.261  1.00  0.00     0.144 A 
HETATM   10  C19 UNL     1      22.124   1.267  52.361  1.00  0.00     0.075 A 
ENDROOT
BRANCH   9  11
HETATM   11  N4  UNL     1      23.571   2.167  50.550  1.00  0.00    -0.340 N 
HETATM   12  H14 UNL     1      24.300   1.636  50.049  1.00  0.00     0.167 HD
BRANCH  11  13
HETATM   13  C13 UNL     1      24.180   3.441  50.399  1.00  0.00     0.035 A 
HETATM   14  C14 UNL     1      25.337   3.324  49.612  1.00  0.00     0.032 A 
HETATM   15  C15 UNL     1      26.129   4.421  49.285  1.00  0.00     0.046 A 
HETATM   16  C16 UNL     1      25.733   5.655  49.769  1.00  0.00     0.138 A 
HETATM   17  F1  UNL     1      26.433   6.779  49.510  1.00  0.00    -0.204 F 
HETATM   18  C17 UNL     1      24.610   5.819  50.542  1.00  0.00     0.074 A 
HETATM   19 CL1  UNL     1      24.006   7.324  51.208  1.00  0.00    -0.081 Cl
HETATM   20  C18 UNL     1      23.862   4.708  50.839  1.00  0.00     0.056 A 
ENDBRANCH  11  13
ENDBRANCH   9  11
BRANCH   1  21
HETATM   21  O1  UNL     1      24.473   0.303  52.250  1.00  0.00    -0.340 OA
BRANCH  21  22
HETATM   22  C5  UNL     1      25.671   0.222  53.031  1.00  0.00     0.148 C 
HETATM   23  C2  UNL     1      26.243   1.594  53.362  1.00  0.00     0.105 C 
HETATM   24  C1  UNL     1      27.177   2.156  52.367  1.00  0.00     0.031 C 
HETATM   25  N1  UNL     1      26.947   1.495  54.646  1.00  0.00    -0.207 NA
HETATM   26  P1  UNL     1      27.986   0.259  54.684  1.00  0.00     0.020 P 
HETATM   27  C3  UNL     1      28.006  -0.714  53.075  1.00  0.00     0.060 C 
HETATM   28  C4  UNL     1      26.652  -0.710  52.422  1.00  0.00     0.040 C 
ENDBRANCH  21  22
ENDBRANCH   1  21
BRANCH   2  29
HETATM   29  O2  UNL     1      23.826  -1.173  54.612  1.00  0.00    -0.358 OA
HETATM   30  H10 UNL     1      23.266  -1.780  55.238  1.00  0.00     0.217 HD
ENDBRANCH   2  29
TORSDOF 5
ENDMDL
MODEL 6
REMARK VINA RESULT:      -8.2      1.863      2.369
REMARK  5 active torsions:
REMARK  status: ('A' for Active; 'I' for Inactive)
REMARK    1  A    between atoms: C5_7  and  O1_8 
REMARK    2  A    between atoms: O1_8  and  C6_9 
REMARK    3  A    between atoms: C7_10  and  O2_11 
REMARK    4  A    between atoms: C12_18  and  N4_19 
REMARK    5  A    between atoms: N4_19  and  C13_20 
ROOT
HETATM    1  C6  UNL     1      21.676   1.224  50.786  1.00  0.00     0.118 A 
HETATM    2  C7  UNL     1      20.469   1.219  50.050  1.00  0.00     0.100 A 
HETATM    3  C8  UNL     1      19.305   0.617  50.554  1.00  0.00     0.041 A 
HETATM    4  C9  UNL     1      19.308  -0.003  51.814  1.00  0.00     0.035 A 
HETATM    5  C10 UNL     1      20.479  -0.005  52.530  1.00  0.00     0.075 A 
HETATM    6  N2  UNL     1      20.627  -0.569  53.745  1.00  0.00    -0.241 NA
HETATM    7  C11 UNL     1      21.775  -0.574  54.437  1.00  0.00     0.236 A 
HETATM    8  N3  UNL     1      22.879   0.024  53.887  1.00  0.00    -0.223 NA
HETATM    9  C12 UNL     1      22.778   0.605  52.664  1.00  0.00     0.144 A 
HETATM   10  C19 UNL     1      21.595   0.593  52.001  1.00  0.00     0.075 A 
ENDROOT
BRANCH   9  11
HETATM   11  N4  UNL     1      24.021   1.096  52.209  1.00  0.00    -0.340 N 
HETATM   12  H14 UNL     1      24.452   1.774  51.563  1.00  0.00     0.167 HD
BRANCH  11  13
HETATM   13  C13 UNL     1      25.239   0.542  52.684  1.00  0.00     0.035 A 
HETATM   14  C14 UNL     1      25.881   1.460  53.530  1.00  0.00     0.032 A 
HETATM   15  C15 UNL     1      27.092   1.176  54.155  1.00  0.00     0.046 A 
HETATM   16  C16 UNL     1      27.655  -0.064  53.911  1.00  0.00     0.138 A 
HETATM   17  F1  UNL     1      28.828  -0.434  54.467  1.00  0.00    -0.204 F 
HETATM   18  C17 UNL     1      27.066  -0.995  53.091  1.00  0.00     0.074 A 
HETATM   19 CL1  UNL     1      27.677  -2.592  52.710  1.00  0.00    -0.081 Cl
HETATM   20  C18 UNL     1      25.873  -0.669  52.497  1.00  0.00     0.056 A 
ENDBRANCH  11  13
ENDBRANCH   9  11
BRANCH   1  21
HETATM   21  O1  UNL     1      22.618   1.885  50.067  1.00  0.00    -0.340 OA
BRANCH  21  22
HETATM   22  C5  UNL     1      22.736   3.304  49.913  1.00  0.00     0.148 C 
HETATM   23  C2  UNL     1      24.062   3.713  49.287  1.00  0.00     0.105 C 
HETATM   24  C1  UNL     1      25.176   3.933  50.230  1.00  0.00     0.031 C 
HETATM   25  N1  UNL     1      23.846   4.956  48.535  1.00  0.00    -0.207 NA
HETATM   26  P1  UNL     1      23.093   6.082  49.414  1.00  0.00     0.020 P 
HETATM   27  C3  UNL     1      22.698   5.491  51.156  1.00  0.00     0.060 C 
HETATM   28  C4  UNL     1      22.421   4.013  51.177  1.00  0.00     0.040 C 
ENDBRANCH  21  22
ENDBRANCH   1  21
BRANCH   2  29
HETATM   29  O2  UNL     1      20.068   1.710  48.786  1.00  0.00    -0.358 OA
HETATM   30  H10 UNL     1      19.043   1.842  48.720  1.00  0.00     0.217 HD
ENDBRANCH   2  29
TORSDOF 5
ENDMDL
MODEL 7
REMARK VINA RESULT:      -8.2      3.516      5.264
REMARK  5 active torsions:
REMARK  status: ('A' for Active; 'I' for Inactive)
REMARK    1  A    between atoms: C5_7  and  O1_8 
REMARK    2  A    between atoms: O1_8  and  C6_9 
REMARK    3  A    between atoms: C7_10  and  O2_11 
REMARK    4  A    between atoms: C12_18  and  N4_19 
REMARK    5  A    between atoms: N4_19  and  C13_20 
ROOT
HETATM    1  C6  UNL     1      23.847   1.524  51.388  1.00  0.00     0.118 A 
HETATM    2  C7  UNL     1      22.978   0.683  52.121  1.00  0.00     0.100 A 
HETATM    3  C8  UNL     1      23.396   0.046  53.301  1.00  0.00     0.041 A 
HETATM    4  C9  UNL     1      24.700   0.227  53.789  1.00  0.00     0.035 A 
HETATM    5  C10 UNL     1      25.549   1.038  53.078  1.00  0.00     0.075 A 
HETATM    6  N2  UNL     1      26.825   1.294  53.425  1.00  0.00    -0.241 NA
HETATM    7  C11 UNL     1      27.652   2.082  52.723  1.00  0.00     0.236 A 
HETATM    8  N3  UNL     1      27.187   2.669  51.575  1.00  0.00    -0.223 NA
HETATM    9  C12 UNL     1      25.907   2.440  51.185  1.00  0.00     0.144 A 
HETATM   10  C19 UNL     1      25.102   1.642  51.929  1.00  0.00     0.075 A 
ENDROOT
BRANCH   9  11
HETATM   11  N4  UNL     1      25.618   3.047  49.944  1.00  0.00    -0.340 N 
HETATM   12  H14 UNL     1      25.231   2.861  49.007  1.00  0.00     0.167 HD
BRANCH  11  13
HETATM   13  C13 UNL     1      25.947   4.408  49.705  1.00  0.00     0.035 A 
HETATM   14  C14 UNL     1      27.081   4.484  48.881  1.00  0.00     0.032 A 
HETATM   15  C15 UNL     1      27.621   5.700  48.469  1.00  0.00     0.046 A 
HETATM   16  C16 UNL     1      26.992   6.852  48.904  1.00  0.00     0.138 A 
HETATM   17  F1  UNL     1      27.439   8.079  48.562  1.00  0.00    -0.204 F 
HETATM   18  C17 UNL     1      25.881   6.828  49.711  1.00  0.00     0.074 A 
HETATM   19 CL1  UNL     1      24.999   8.214  50.322  1.00  0.00    -0.081 Cl
HETATM   20  C18 UNL     1      25.387   5.607  50.092  1.00  0.00     0.056 A 
ENDBRANCH  11  13
ENDBRANCH   9  11
BRANCH   1  21
HETATM   21  O1  UNL     1      23.175   2.011  50.314  1.00  0.00    -0.340 OA
BRANCH  21  22
HETATM   22  C5  UNL     1      22.091   2.946  50.338  1.00  0.00     0.148 C 
HETATM   23  C2  UNL     1      21.645   3.355  48.940  1.00  0.00     0.105 C 
HETATM   24  C1  UNL     1      22.355   4.508  48.353  1.00  0.00     0.031 C 
HETATM   25  N1  UNL     1      20.214   3.676  48.995  1.00  0.00    -0.207 NA
HETATM   26  P1  UNL     1      19.861   4.706  50.188  1.00  0.00     0.020 P 
HETATM   27  C3  UNL     1      21.379   5.208  51.179  1.00  0.00     0.060 C 
HETATM   28  C4  UNL     1      22.382   4.090  51.237  1.00  0.00     0.040 C 
ENDBRANCH  21  22
ENDBRANCH   1  21
BRANCH   2  29
HETATM   29  O2  UNL     1      21.641   0.251  51.965  1.00  0.00    -0.358 OA
HETATM   30  H10 UNL     1      21.376  -0.473  52.657  1.00  0.00     0.217 HD
ENDBRANCH   2  29
TORSDOF 5
ENDMDL
MODEL 8
REMARK VINA RESULT:      -8.1      4.050      6.924
REMARK  5 active torsions:
REMARK  status: ('A' for Active; 'I' for Inactive)
REMARK    1  A    between atoms: C5_7  and  O1_8 
REMARK    2  A    between atoms: O1_8  and  C6_9 
REMARK    3  A    between atoms: C7_10  and  O2_11 
REMARK    4  A    between atoms: C12_18  and  N4_19 
REMARK    5  A    between atoms: N4_19  and  C13_20 
ROOT
HETATM    1  C6  UNL     1      25.143   2.749  50.898  1.00  0.00     0.118 A 
HETATM    2  C7  UNL     1      26.054   3.254  49.943  1.00  0.00     0.100 A 
HETATM    3  C8  UNL     1      25.909   4.540  49.398  1.00  0.00     0.041 A 
HETATM    4  C9  UNL     1      24.843   5.365  49.789  1.00  0.00     0.035 A 
HETATM    5  C10 UNL     1      23.952   4.877  50.712  1.00  0.00     0.075 A 
HETATM    6  N2  UNL     1      22.882   5.556  51.170  1.00  0.00    -0.241 NA
HETATM    7  C11 UNL     1      22.011   5.072  52.066  1.00  0.00     0.236 A 
HETATM    8  N3  UNL     1      22.204   3.806  52.555  1.00  0.00    -0.223 NA
HETATM    9  C12 UNL     1      23.268   3.083  52.122  1.00  0.00     0.144 A 
HETATM   10  C19 UNL     1      24.129   3.615  51.219  1.00  0.00     0.075 A 
ENDROOT
BRANCH   9  11
HETATM   11  N4  UNL     1      23.271   1.777  52.657  1.00  0.00    -0.340 N 
HETATM   12  H14 UNL     1      23.888   1.046  53.043  1.00  0.00     0.167 HD
BRANCH  11  13
HETATM   13  C13 UNL     1      22.071   1.022  52.738  1.00  0.00     0.035 A 
HETATM   14  C14 UNL     1      22.061   0.272  53.926  1.00  0.00     0.032 A 
HETATM   15  C15 UNL     1      20.995  -0.551  54.277  1.00  0.00     0.046 A 
HETATM   16  C16 UNL     1      19.924  -0.609  53.403  1.00  0.00     0.138 A 
HETATM   17  F1  UNL     1      18.844  -1.379  53.651  1.00  0.00    -0.204 F 
HETATM   18  C17 UNL     1      19.889   0.105  52.230  1.00  0.00     0.074 A 
HETATM   19 CL1  UNL     1      18.594   0.117  51.049  1.00  0.00    -0.081 Cl
HETATM   20  C18 UNL     1      20.963   0.902  51.926  1.00  0.00     0.056 A 
ENDBRANCH  11  13
ENDBRANCH   9  11
BRANCH   1  21
HETATM   21  O1  UNL     1      25.538   1.501  51.256  1.00  0.00    -0.340 OA
BRANCH  21  22
HETATM   22  C5  UNL     1      26.683   1.162  52.047  1.00  0.00     0.148 C 
HETATM   23  C2  UNL     1      26.519  -0.169  52.769  1.00  0.00     0.105 C 
HETATM   24  C1  UNL     1      25.880  -0.104  54.097  1.00  0.00     0.031 C 
HETATM   25  N1  UNL     1      27.850  -0.766  52.929  1.00  0.00    -0.207 NA
HETATM   26  P1  UNL     1      28.914   0.267  53.569  1.00  0.00     0.020 P 
HETATM   27  C3  UNL     1      28.155   1.950  53.929  1.00  0.00     0.060 C 
HETATM   28  C4  UNL     1      27.079   2.284  52.933  1.00  0.00     0.040 C 
ENDBRANCH  21  22
ENDBRANCH   1  21
BRANCH   2  29
HETATM   29  O2  UNL     1      27.212   2.751  49.304  1.00  0.00    -0.358 OA
HETATM   30  H10 UNL     1      28.055   3.317  49.511  1.00  0.00     0.217 HD
ENDBRANCH   2  29
TORSDOF 5
ENDMDL
MODEL 9
REMARK VINA RESULT:      -7.6      3.375      4.831
REMARK  5 active torsions:
REMARK  status: ('A' for Active; 'I' for Inactive)
REMARK    1  A    between atoms: C5_7  and  O1_8 
REMARK    2  A    between atoms: O1_8  and  C6_9 
REMARK    3  A    between atoms: C7_10  and  O2_11 
REMARK    4  A    between atoms: C12_18  and  N4_19 
REMARK    5  A    between atoms: N4_19  and  C13_20 
ROOT
HETATM    1  C6  UNL     1      21.561   0.303  52.318  1.00  0.00     0.118 A 
HETATM    2  C7  UNL     1      20.593  -0.432  53.040  1.00  0.00     0.100 A 
HETATM    3  C8  UNL     1      20.933  -1.160  54.191  1.00  0.00     0.041 A 
HETATM    4  C9  UNL     1      22.257  -1.181  54.660  1.00  0.00     0.035 A 
HETATM    5  C10 UNL     1      23.201  -0.473  53.959  1.00  0.00     0.075 A 
HETATM    6  N2  UNL     1      24.506  -0.411  54.290  1.00  0.00    -0.241 NA
HETATM    7  C11 UNL     1      25.426   0.276  53.598  1.00  0.00     0.236 A 
HETATM    8  N3  UNL     1      25.031   0.962  52.478  1.00  0.00    -0.223 NA
HETATM    9  C12 UNL     1      23.726   0.928  52.105  1.00  0.00     0.144 A 
HETATM   10  C19 UNL     1      22.828   0.226  52.839  1.00  0.00     0.075 A 
ENDROOT
BRANCH   9  11
HETATM   11  N4  UNL     1      23.508   1.612  50.890  1.00  0.00    -0.340 N 
HETATM   12  H14 UNL     1      23.006   1.553  49.991  1.00  0.00     0.167 HD
BRANCH  11  13
HETATM   13  C13 UNL     1      24.172   2.836  50.614  1.00  0.00     0.035 A 
HETATM   14  C14 UNL     1      23.497   3.895  51.243  1.00  0.00     0.032 A 
HETATM   15  C15 UNL     1      23.937   5.213  51.158  1.00  0.00     0.046 A 
HETATM   16  C16 UNL     1      25.083   5.452  50.420  1.00  0.00     0.138 A 
HETATM   17  F1  UNL     1      25.589   6.695  50.275  1.00  0.00    -0.204 F 
HETATM   18  C17 UNL     1      25.777   4.450  49.788  1.00  0.00     0.074 A 
HETATM   19 CL1  UNL     1      27.236   4.627  48.833  1.00  0.00    -0.081 Cl
HETATM   20  C18 UNL     1      25.304   3.167  49.900  1.00  0.00     0.056 A 
ENDBRANCH  11  13
ENDBRANCH   9  11
BRANCH   1  21
HETATM   21  O1  UNL     1      20.949   0.916  51.273  1.00  0.00    -0.340 OA
BRANCH  21  22
HETATM   22  C5  UNL     1      19.710   1.633  51.310  1.00  0.00     0.148 C 
HETATM   23  C2  UNL     1      18.884   1.433  50.046  1.00  0.00     0.105 C 
HETATM   24  C1  UNL     1      19.158   2.376  48.945  1.00  0.00     0.031 C 
HETATM   25  N1  UNL     1      17.466   1.548  50.407  1.00  0.00    -0.207 NA
HETATM   26  P1  UNL     1      17.156   2.885  51.259  1.00  0.00     0.020 P 
HETATM   27  C3  UNL     1      18.696   3.923  51.556  1.00  0.00     0.060 C 
HETATM   28  C4  UNL     1      19.919   3.056  51.675  1.00  0.00     0.040 C 
ENDBRANCH  21  22
ENDBRANCH   1  21
BRANCH   2  29
HETATM   29  O2  UNL     1      19.206  -0.666  52.896  1.00  0.00    -0.358 OA
HETATM   30  H10 UNL     1      18.971  -1.675  52.922  1.00  0.00     0.217 HD
ENDBRANCH   2  29
TORSDOF 5
ENDMDL
