MODEL 1
REMARK VINA RESULT:      -7.8      0.000      0.000
REMARK  5 active torsions:
REMARK  status: ('A' for Active; 'I' for Inactive)
REMARK    1  A    between atoms: C2_2  and  C3_3 
REMARK    2  A    between atoms: C7_9  and  N3_10 
REMARK    3  A    between atoms: N3_10  and  C8_11 
REMARK    4  A    between atoms: C10_13  and  C11_14 
REMARK    5  A    between atoms: C18_21  and  O1_22 
ROOT
HETATM    1  C3  UNL     1      27.874  -0.426  53.099  1.00  0.00    -0.023 C 
HETATM    2  C4  UNL     1      27.000  -0.564  52.081  1.00  0.00     0.042 C 
HETATM    3  C5  UNL     1      25.979   0.486  52.278  1.00  0.00     0.101 A 
HETATM    4  N1  UNL     1      25.432   1.294  51.387  1.00  0.00    -0.242 NA
HETATM    5  C6  UNL     1      24.503   2.160  52.027  1.00  0.00     0.231 A 
HETATM    6  N2  UNL     1      24.483   1.878  53.289  1.00  0.00    -0.231 NA
HETATM    7  C7  UNL     1      25.360   0.828  53.566  1.00  0.00     0.316 A 
HETATM    8  C17 UNL     1      26.406   0.971  54.569  1.00  0.00     0.082 C 
HETATM    9  C18 UNL     1      27.588   0.352  54.329  1.00  0.00     0.072 C 
ENDROOT
BRANCH   7  10
HETATM   10  N3  UNL     1      24.569  -0.410  53.879  1.00  0.00     0.130 N 
HETATM   11  H8  UNL     1      25.066  -0.840  54.673  1.00  0.00     0.320 HD
BRANCH  10  12
HETATM   12  C8  UNL     1      23.207  -0.199  54.119  1.00  0.00     0.233 A 
HETATM   13  C9  UNL     1      22.233  -1.027  54.789  1.00  0.00     0.048 A 
HETATM   14  C10 UNL     1      22.251  -1.069  53.287  1.00  0.00     0.054 A 
BRANCH  14  15
HETATM   15  C11 UNL     1      21.184  -0.405  52.501  1.00  0.00    -0.052 A 
HETATM   16  C12 UNL     1      19.879  -0.419  52.968  1.00  0.00     0.007 A 
HETATM   17  C13 UNL     1      18.924   0.214  52.200  1.00  0.00     0.001 A 
HETATM   18  C14 UNL     1      19.209   0.854  50.999  1.00  0.00     0.000 A 
HETATM   19  C15 UNL     1      20.511   0.861  50.546  1.00  0.00     0.001 A 
HETATM   20  C16 UNL     1      21.453   0.235  51.306  1.00  0.00     0.007 A 
ENDBRANCH  14  15
ENDBRANCH  10  12
ENDBRANCH   7  10
BRANCH   9  21
HETATM   21  O1  UNL     1      28.540   0.492  55.326  1.00  0.00    -0.360 OA
HETATM   22  H19 UNL     1      29.403   0.980  55.141  1.00  0.00     0.217 HD
ENDBRANCH   9  21
BRANCH   1  23
HETATM   23  C2  UNL     1      29.054  -1.286  53.220  1.00  0.00     0.037 C 
HETATM   24  C1  UNL     1      28.629  -2.727  53.146  1.00  0.00     0.010 C 
ENDBRANCH   1  23
TORSDOF 5
ENDMDL
MODEL 2
REMARK VINA RESULT:      -7.5      3.808      7.289
REMARK  5 active torsions:
REMARK  status: ('A' for Active; 'I' for Inactive)
REMARK    1  A    between atoms: C2_2  and  C3_3 
REMARK    2  A    between atoms: C7_9  and  N3_10 
REMARK    3  A    between atoms: N3_10  and  C8_11 
REMARK    4  A    between atoms: C10_13  and  C11_14 
REMARK    5  A    between atoms: C18_21  and  O1_22 
ROOT
HETATM    1  C3  UNL     1      23.414   4.834  50.338  1.00  0.00    -0.023 C 
HETATM    2  C4  UNL     1      24.377   5.710  50.691  1.00  0.00     0.042 C 
HETATM    3  C5  UNL     1      25.582   5.316  49.931  1.00  0.00     0.101 A 
HETATM    4  N1  UNL     1      26.447   6.079  49.286  1.00  0.00    -0.242 NA
HETATM    5  C6  UNL     1      27.448   5.270  48.681  1.00  0.00     0.231 A 
HETATM    6  N2  UNL     1      27.196   4.032  48.959  1.00  0.00    -0.231 NA
HETATM    7  C7  UNL     1      26.053   3.935  49.755  1.00  0.00     0.316 A 
HETATM    8  C17 UNL     1      24.930   3.101  49.354  1.00  0.00     0.082 C 
HETATM    9  C18 UNL     1      23.685   3.544  49.656  1.00  0.00     0.072 C 
ENDROOT
BRANCH   7  10
HETATM   10  N3  UNL     1      26.453   3.554  51.152  1.00  0.00     0.130 N 
HETATM   11  H8  UNL     1      25.897   4.176  51.758  1.00  0.00     0.320 HD
BRANCH  10  12
HETATM   12  C8  UNL     1      26.309   2.198  51.462  1.00  0.00     0.233 A 
HETATM   13  C9  UNL     1      25.358   1.524  52.312  1.00  0.00     0.048 A 
HETATM   14  C10 UNL     1      26.717   1.804  52.891  1.00  0.00     0.054 A 
BRANCH  14  15
HETATM   15  C11 UNL     1      27.697   0.708  53.077  1.00  0.00    -0.052 A 
HETATM   16  C12 UNL     1      28.990   1.005  53.477  1.00  0.00     0.007 A 
HETATM   17  C13 UNL     1      29.864  -0.051  53.636  1.00  0.00     0.001 A 
HETATM   18  C14 UNL     1      29.508  -1.377  53.416  1.00  0.00     0.000 A 
HETATM   19  C15 UNL     1      28.219  -1.660  53.018  1.00  0.00     0.001 A 
HETATM   20  C16 UNL     1      27.357  -0.614  52.861  1.00  0.00     0.007 A 
ENDBRANCH  14  15
ENDBRANCH  10  12
ENDBRANCH   7  10
BRANCH   9  21
HETATM   21  O1  UNL     1      22.652   2.702  49.282  1.00  0.00    -0.360 OA
HETATM   22  H19 UNL     1      22.843   1.748  49.016  1.00  0.00     0.217 HD
ENDBRANCH   9  21
BRANCH   1  23
HETATM   23  C2  UNL     1      22.054   4.930  50.874  1.00  0.00     0.037 C 
HETATM   24  C1  UNL     1      22.040   4.419  52.288  1.00  0.00     0.010 C 
ENDBRANCH   1  23
TORSDOF 5
ENDMDL
MODEL 3
REMARK VINA RESULT:      -7.3      3.707      5.755
REMARK  5 active torsions:
REMARK  status: ('A' for Active; 'I' for Inactive)
REMARK    1  A    between atoms: C2_2  and  C3_3 
REMARK    2  A    between atoms: C7_9  and  N3_10 
REMARK    3  A    between atoms: N3_10  and  C8_11 
REMARK    4  A    between atoms: C10_13  and  C11_14 
REMARK    5  A    between atoms: C18_21  and  O1_22 
ROOT
HETATM    1  C3  UNL     1      24.545   5.911  49.279  1.00  0.00    -0.023 C 
HETATM    2  C4  UNL     1      23.769   4.977  48.691  1.00  0.00     0.042 C 
HETATM    3  C5  UNL     1      22.689   4.681  49.656  1.00  0.00     0.101 A 
HETATM    4  N1  UNL     1      21.395   4.529  49.436  1.00  0.00    -0.242 NA
HETATM    5  C6  UNL     1      20.724   4.270  50.663  1.00  0.00     0.231 A 
HETATM    6  N2  UNL     1      21.601   4.260  51.614  1.00  0.00    -0.231 NA
HETATM    7  C7  UNL     1      22.879   4.491  51.100  1.00  0.00     0.316 A 
HETATM    8  C17 UNL     1      23.707   5.572  51.614  1.00  0.00     0.082 C 
HETATM    9  C18 UNL     1      24.502   6.222  50.729  1.00  0.00     0.072 C 
ENDROOT
BRANCH   7  10
HETATM   10  N3  UNL     1      23.672   3.217  51.153  1.00  0.00     0.130 N 
HETATM   11  H8  UNL     1      24.602   3.477  50.791  1.00  0.00     0.320 HD
BRANCH  10  12
HETATM   12  C8  UNL     1      23.715   2.595  52.405  1.00  0.00     0.233 A 
HETATM   13  C9  UNL     1      24.817   2.004  53.124  1.00  0.00     0.048 A 
HETATM   14  C10 UNL     1      23.909   1.070  52.375  1.00  0.00     0.054 A 
BRANCH  14  15
HETATM   15  C11 UNL     1      22.944   0.213  53.102  1.00  0.00    -0.052 A 
HETATM   16  C12 UNL     1      23.383  -0.572  54.156  1.00  0.00     0.007 A 
HETATM   17  C13 UNL     1      22.444  -1.351  54.801  1.00  0.00     0.001 A 
HETATM   18  C14 UNL     1      21.100  -1.382  54.444  1.00  0.00     0.000 A 
HETATM   19  C15 UNL     1      20.676  -0.596  53.394  1.00  0.00     0.001 A 
HETATM   20  C16 UNL     1      21.606   0.173  52.758  1.00  0.00     0.007 A 
ENDBRANCH  14  15
ENDBRANCH  10  12
ENDBRANCH   7  10
BRANCH   9  21
HETATM   21  O1  UNL     1      25.294   7.221  51.271  1.00  0.00    -0.360 OA
HETATM   22  H19 UNL     1      25.017   8.188  51.196  1.00  0.00     0.217 HD
ENDBRANCH   9  21
BRANCH   1  23
HETATM   23  C2  UNL     1      25.712   6.478  48.600  1.00  0.00     0.037 C 
HETATM   24  C1  UNL     1      26.865   5.518  48.707  1.00  0.00     0.010 C 
ENDBRANCH   1  23
TORSDOF 5
ENDMDL
MODEL 4
REMARK VINA RESULT:      -7.2      2.778      6.658
REMARK  5 active torsions:
REMARK  status: ('A' for Active; 'I' for Inactive)
REMARK    1  A    between atoms: C2_2  and  C3_3 
REMARK    2  A    between atoms: C7_9  and  N3_10 
REMARK    3  A    between atoms: N3_10  and  C8_11 
REMARK    4  A    between atoms: C10_13  and  C11_14 
REMARK    5  A    between atoms: C18_21  and  O1_22 
ROOT
HETATM    1  C3  UNL     1      23.393   4.318  49.931  1.00  0.00    -0.023 C 
HETATM    2  C4  UNL     1      23.345   3.102  49.347  1.00  0.00     0.042 C 
HETATM    3  C5  UNL     1      22.888   2.167  50.396  1.00  0.00     0.101 A 
HETATM    4  N1  UNL     1      21.999   1.193  50.315  1.00  0.00    -0.242 NA
HETATM    5  C6  UNL     1      21.861   0.557  51.579  1.00  0.00     0.231 A 
HETATM    6  N2  UNL     1      22.661   1.135  52.416  1.00  0.00    -0.231 NA
HETATM    7  C7  UNL     1      23.374   2.154  51.783  1.00  0.00     0.316 A 
HETATM    8  C17 UNL     1      23.355   3.515  52.302  1.00  0.00     0.082 C 
HETATM    9  C18 UNL     1      23.379   4.526  51.400  1.00  0.00     0.072 C 
ENDROOT
BRANCH   7  10
HETATM   10  N3  UNL     1      24.804   1.730  51.617  1.00  0.00     0.130 N 
HETATM   11  H8  UNL     1      25.299   2.591  51.342  1.00  0.00     0.320 HD
BRANCH  10  12
HETATM   12  C8  UNL     1      25.368   1.092  52.727  1.00  0.00     0.233 A 
HETATM   13  C9  UNL     1      26.020   1.637  53.893  1.00  0.00     0.048 A 
HETATM   14  C10 UNL     1      26.904   1.122  52.793  1.00  0.00     0.054 A 
BRANCH  14  15
HETATM   15  C11 UNL     1      27.636  -0.157  52.950  1.00  0.00    -0.052 A 
HETATM   16  C12 UNL     1      27.040  -1.342  52.549  1.00  0.00     0.007 A 
HETATM   17  C13 UNL     1      27.764  -2.505  52.716  1.00  0.00     0.001 A 
HETATM   18  C14 UNL     1      29.042  -2.538  53.261  1.00  0.00     0.000 A 
HETATM   19  C15 UNL     1      29.624  -1.352  53.657  1.00  0.00     0.001 A 
HETATM   20  C16 UNL     1      28.907  -0.205  53.491  1.00  0.00     0.007 A 
ENDBRANCH  14  15
ENDBRANCH  10  12
ENDBRANCH   7  10
BRANCH   9  21
HETATM   21  O1  UNL     1      23.391   5.800  51.942  1.00  0.00    -0.360 OA
HETATM   22  H19 UNL     1      22.541   6.341  51.993  1.00  0.00     0.217 HD
ENDBRANCH   9  21
BRANCH   1  23
HETATM   23  C2  UNL     1      23.779   5.515  49.180  1.00  0.00     0.037 C 
HETATM   24  C1  UNL     1      25.273   5.532  49.005  1.00  0.00     0.010 C 
ENDBRANCH   1  23
TORSDOF 5
ENDMDL
MODEL 5
REMARK VINA RESULT:      -7.1      3.412      7.018
REMARK  5 active torsions:
REMARK  status: ('A' for Active; 'I' for Inactive)
REMARK    1  A    between atoms: C2_2  and  C3_3 
REMARK    2  A    between atoms: C7_9  and  N3_10 
REMARK    3  A    between atoms: N3_10  and  C8_11 
REMARK    4  A    between atoms: C10_13  and  C11_14 
REMARK    5  A    between atoms: C18_21  and  O1_22 
ROOT
HETATM    1  C3  UNL     1      24.879   5.954  49.985  1.00  0.00    -0.023 C 
HETATM    2  C4  UNL     1      24.983   4.997  49.040  1.00  0.00     0.042 C 
HETATM    3  C5  UNL     1      24.137   3.877  49.503  1.00  0.00     0.101 A 
HETATM    4  N1  UNL     1      23.289   3.134  48.815  1.00  0.00    -0.242 NA
HETATM    5  C6  UNL     1      22.678   2.178  49.672  1.00  0.00     0.231 A 
HETATM    6  N2  UNL     1      23.153   2.336  50.865  1.00  0.00    -0.231 NA
HETATM    7  C7  UNL     1      24.094   3.367  50.881  1.00  0.00     0.316 A 
HETATM    8  C17 UNL     1      23.957   4.491  51.796  1.00  0.00     0.082 C 
HETATM    9  C18 UNL     1      24.352   5.709  51.350  1.00  0.00     0.072 C 
ENDROOT
BRANCH   7  10
HETATM   10  N3  UNL     1      25.467   2.783  51.048  1.00  0.00     0.130 N 
HETATM   11  H8  UNL     1      26.084   3.602  51.164  1.00  0.00     0.320 HD
BRANCH  10  12
HETATM   12  C8  UNL     1      25.592   1.840  52.074  1.00  0.00     0.233 A 
HETATM   13  C9  UNL     1      25.493   1.992  53.505  1.00  0.00     0.048 A 
HETATM   14  C10 UNL     1      26.875   1.949  52.914  1.00  0.00     0.054 A 
BRANCH  14  15
HETATM   15  C11 UNL     1      27.726   0.746  53.074  1.00  0.00    -0.052 A 
HETATM   16  C12 UNL     1      29.045   0.889  53.475  1.00  0.00     0.007 A 
HETATM   17  C13 UNL     1      29.795  -0.261  53.610  1.00  0.00     0.001 A 
HETATM   18  C14 UNL     1      29.292  -1.535  53.365  1.00  0.00     0.000 A 
HETATM   19  C15 UNL     1      27.979  -1.663  52.967  1.00  0.00     0.001 A 
HETATM   20  C16 UNL     1      27.240  -0.525  52.834  1.00  0.00     0.007 A 
ENDBRANCH  14  15
ENDBRANCH  10  12
ENDBRANCH   7  10
BRANCH   9  21
HETATM   21  O1  UNL     1      24.232   6.740  52.267  1.00  0.00    -0.360 OA
HETATM   22  H19 UNL     1      24.797   6.748  53.102  1.00  0.00     0.217 HD
ENDBRANCH   9  21
BRANCH   1  23
HETATM   23  C2  UNL     1      25.566   7.242  49.853  1.00  0.00     0.037 C 
HETATM   24  C1  UNL     1      26.621   7.136  48.788  1.00  0.00     0.010 C 
ENDBRANCH   1  23
TORSDOF 5
ENDMDL
MODEL 6
REMARK VINA RESULT:      -7.1      3.748      6.807
REMARK  5 active torsions:
REMARK  status: ('A' for Active; 'I' for Inactive)
REMARK    1  A    between atoms: C2_2  and  C3_3 
REMARK    2  A    between atoms: C7_9  and  N3_10 
REMARK    3  A    between atoms: N3_10  and  C8_11 
REMARK    4  A    between atoms: C10_13  and  C11_14 
REMARK    5  A    between atoms: C18_21  and  O1_22 
ROOT
HETATM    1  C3  UNL     1      22.635   1.001  52.353  1.00  0.00    -0.023 C 
HETATM    2  C4  UNL     1      23.659   0.123  52.366  1.00  0.00     0.042 C 
HETATM    3  C5  UNL     1      24.748   0.781  53.118  1.00  0.00     0.101 A 
HETATM    4  N1  UNL     1      25.547   0.275  54.041  1.00  0.00    -0.242 NA
HETATM    5  C6  UNL     1      26.441   1.277  54.508  1.00  0.00     0.231 A 
HETATM    6  N2  UNL     1      26.190   2.376  53.873  1.00  0.00    -0.231 NA
HETATM    7  C7  UNL     1      25.154   2.184  52.958  1.00  0.00     0.316 A 
HETATM    8  C17 UNL     1      23.966   3.025  52.985  1.00  0.00     0.082 C 
HETATM    9  C18 UNL     1      22.782   2.441  52.679  1.00  0.00     0.072 C 
ENDROOT
BRANCH   7  10
HETATM   10  N3  UNL     1      25.713   2.197  51.565  1.00  0.00     0.130 N 
HETATM   11  H8  UNL     1      25.480   1.268  51.184  1.00  0.00     0.320 HD
BRANCH  10  12
HETATM   12  C8  UNL     1      25.280   3.256  50.760  1.00  0.00     0.233 A 
HETATM   13  C9  UNL     1      24.506   3.254  49.542  1.00  0.00     0.048 A 
HETATM   14  C10 UNL     1      25.996   3.389  49.406  1.00  0.00     0.054 A 
BRANCH  14  15
HETATM   15  C11 UNL     1      26.606   4.691  49.046  1.00  0.00    -0.052 A 
HETATM   16  C12 UNL     1      27.916   4.733  48.596  1.00  0.00     0.007 A 
HETATM   17  C13 UNL     1      28.436   5.969  48.274  1.00  0.00     0.001 A 
HETATM   18  C14 UNL     1      27.715   7.154  48.380  1.00  0.00     0.000 A 
HETATM   19  C15 UNL     1      26.413   7.098  48.828  1.00  0.00     0.001 A 
HETATM   20  C16 UNL     1      25.901   5.875  49.147  1.00  0.00     0.007 A 
ENDBRANCH  14  15
ENDBRANCH  10  12
ENDBRANCH   7  10
BRANCH   9  21
HETATM   21  O1  UNL     1      21.686   3.289  52.688  1.00  0.00    -0.360 OA
HETATM   22  H19 UNL     1      21.298   3.610  53.561  1.00  0.00     0.217 HD
ENDBRANCH   9  21
BRANCH   1  23
HETATM   23  C2  UNL     1      21.355   0.680  51.715  1.00  0.00     0.037 C 
HETATM   24  C1  UNL     1      21.508   0.770  50.222  1.00  0.00     0.010 C 
ENDBRANCH   1  23
TORSDOF 5
ENDMDL
MODEL 7
REMARK VINA RESULT:      -6.9      3.418      6.494
REMARK  5 active torsions:
REMARK  status: ('A' for Active; 'I' for Inactive)
REMARK    1  A    between atoms: C2_2  and  C3_3 
REMARK    2  A    between atoms: C7_9  and  N3_10 
REMARK    3  A    between atoms: N3_10  and  C8_11 
REMARK    4  A    between atoms: C10_13  and  C11_14 
REMARK    5  A    between atoms: C18_21  and  O1_22 
ROOT
HETATM    1  C3  UNL     1      21.740   0.329  53.144  1.00  0.00    -0.023 C 
HETATM    2  C4  UNL     1      20.694   0.793  52.431  1.00  0.00     0.042 C 
HETATM    3  C5  UNL     1      21.224   1.100  51.086  1.00  0.00     0.101 A 
HETATM    4  N1  UNL     1      20.697   0.838  49.903  1.00  0.00    -0.242 NA
HETATM    5  C6  UNL     1      21.564   1.300  48.875  1.00  0.00     0.231 A 
HETATM    6  N2  UNL     1      22.602   1.839  49.427  1.00  0.00    -0.231 NA
HETATM    7  C7  UNL     1      22.494   1.788  50.818  1.00  0.00     0.316 A 
HETATM    8  C17 UNL     1      23.541   1.180  51.627  1.00  0.00     0.082 C 
HETATM    9  C18 UNL     1      23.156   0.504  52.737  1.00  0.00     0.072 C 
ENDROOT
BRANCH   7  10
HETATM   10  N3  UNL     1      22.227   3.168  51.346  1.00  0.00     0.130 N 
HETATM   11  H8  UNL     1      21.671   3.014  52.201  1.00  0.00     0.320 HD
BRANCH  10  12
HETATM   12  C8  UNL     1      23.364   3.956  51.554  1.00  0.00     0.233 A 
HETATM   13  C9  UNL     1      23.490   5.348  51.914  1.00  0.00     0.048 A 
HETATM   14  C10 UNL     1      23.650   4.999  50.461  1.00  0.00     0.054 A 
BRANCH  14  15
HETATM   15  C11 UNL     1      24.988   5.016  49.824  1.00  0.00    -0.052 A 
HETATM   16  C12 UNL     1      25.769   3.872  49.839  1.00  0.00     0.007 A 
HETATM   17  C13 UNL     1      27.006   3.940  49.232  1.00  0.00     0.001 A 
HETATM   18  C14 UNL     1      27.494   5.088  48.617  1.00  0.00     0.000 A 
HETATM   19  C15 UNL     1      26.707   6.219  48.608  1.00  0.00     0.001 A 
HETATM   20  C16 UNL     1      25.485   6.150  49.209  1.00  0.00     0.007 A 
ENDBRANCH  14  15
ENDBRANCH  10  12
ENDBRANCH   7  10
BRANCH   9  21
HETATM   21  O1  UNL     1      24.189  -0.029  53.490  1.00  0.00    -0.360 OA
HETATM   22  H19 UNL     1      24.932   0.563  53.828  1.00  0.00     0.217 HD
ENDBRANCH   9  21
BRANCH   1  23
HETATM   23  C2  UNL     1      21.588  -0.110  54.534  1.00  0.00     0.037 C 
HETATM   24  C1  UNL     1      21.286  -1.583  54.559  1.00  0.00     0.010 C 
ENDBRANCH   1  23
TORSDOF 5
ENDMDL
MODEL 8
REMARK VINA RESULT:      -6.9      2.747      6.363
REMARK  5 active torsions:
REMARK  status: ('A' for Active; 'I' for Inactive)
REMARK    1  A    between atoms: C2_2  and  C3_3 
REMARK    2  A    between atoms: C7_9  and  N3_10 
REMARK    3  A    between atoms: N3_10  and  C8_11 
REMARK    4  A    between atoms: C10_13  and  C11_14 
REMARK    5  A    between atoms: C18_21  and  O1_22 
ROOT
HETATM    1  C3  UNL     1      22.601   0.824  52.675  1.00  0.00    -0.023 C 
HETATM    2  C4  UNL     1      23.567   1.682  53.063  1.00  0.00     0.042 C 
HETATM    3  C5  UNL     1      23.260   2.965  52.398  1.00  0.00     0.101 A 
HETATM    4  N1  UNL     1      23.293   4.189  52.894  1.00  0.00    -0.242 NA
HETATM    5  C6  UNL     1      22.905   5.126  51.897  1.00  0.00     0.231 A 
HETATM    6  N2  UNL     1      22.645   4.478  50.808  1.00  0.00    -0.231 NA
HETATM    7  C7  UNL     1      22.849   3.110  50.995  1.00  0.00     0.316 A 
HETATM    8  C17 UNL     1      21.791   2.150  50.712  1.00  0.00     0.082 C 
HETATM    9  C18 UNL     1      21.704   1.063  51.517  1.00  0.00     0.072 C 
ENDROOT
BRANCH   7  10
HETATM   10  N3  UNL     1      24.085   2.686  50.254  1.00  0.00     0.130 N 
HETATM   11  H8  UNL     1      23.993   3.126  49.326  1.00  0.00     0.320 HD
BRANCH  10  12
HETATM   12  C8  UNL     1      25.292   2.982  50.896  1.00  0.00     0.233 A 
HETATM   13  C9  UNL     1      26.574   3.365  50.354  1.00  0.00     0.048 A 
HETATM   14  C10 UNL     1      26.396   1.923  50.740  1.00  0.00     0.054 A 
BRANCH  14  15
HETATM   15  C11 UNL     1      27.043   1.383  51.959  1.00  0.00    -0.052 A 
HETATM   16  C12 UNL     1      26.835   0.061  52.317  1.00  0.00     0.007 A 
HETATM   17  C13 UNL     1      27.461  -0.393  53.460  1.00  0.00     0.001 A 
HETATM   18  C14 UNL     1      28.277   0.406  54.254  1.00  0.00     0.000 A 
HETATM   19  C15 UNL     1      28.475   1.720  53.887  1.00  0.00     0.001 A 
HETATM   20  C16 UNL     1      27.856   2.166  52.757  1.00  0.00     0.007 A 
ENDBRANCH  14  15
ENDBRANCH  10  12
ENDBRANCH   7  10
BRANCH   9  21
HETATM   21  O1  UNL     1      20.703   0.165  51.190  1.00  0.00    -0.360 OA
HETATM   22  H19 UNL     1      20.886  -0.827  51.196  1.00  0.00     0.217 HD
ENDBRANCH   9  21
BRANCH   1  23
HETATM   23  C2  UNL     1      22.557  -0.557  53.164  1.00  0.00     0.037 C 
HETATM   24  C1  UNL     1      21.905  -0.584  54.519  1.00  0.00     0.010 C 
ENDBRANCH   1  23
TORSDOF 5
ENDMDL
MODEL 9
REMARK VINA RESULT:      -6.9      4.259      7.686
REMARK  5 active torsions:
REMARK  status: ('A' for Active; 'I' for Inactive)
REMARK    1  A    between atoms: C2_2  and  C3_3 
REMARK    2  A    between atoms: C7_9  and  N3_10 
REMARK    3  A    between atoms: N3_10  and  C8_11 
REMARK    4  A    between atoms: C10_13  and  C11_14 
REMARK    5  A    between atoms: C18_21  and  O1_22 
ROOT
HETATM    1  C3  UNL     1      20.900   1.596  51.216  1.00  0.00    -0.023 C 
HETATM    2  C4  UNL     1      22.032   0.938  50.894  1.00  0.00     0.042 C 
HETATM    3  C5  UNL     1      23.097   1.530  51.730  1.00  0.00     0.101 A 
HETATM    4  N1  UNL     1      24.062   0.927  52.401  1.00  0.00    -0.242 NA
HETATM    5  C6  UNL     1      24.853   1.892  53.083  1.00  0.00     0.231 A 
HETATM    6  N2  UNL     1      24.377   3.066  52.824  1.00  0.00    -0.231 NA
HETATM    7  C7  UNL     1      23.279   2.969  51.968  1.00  0.00     0.316 A 
HETATM    8  C17 UNL     1      21.995   3.553  52.328  1.00  0.00     0.082 C 
HETATM    9  C18 UNL     1      20.878   2.888  51.945  1.00  0.00     0.072 C 
ENDROOT
BRANCH   7  10
HETATM   10  N3  UNL     1      23.665   3.471  50.607  1.00  0.00     0.130 N 
HETATM   11  H8  UNL     1      22.776   3.510  50.085  1.00  0.00     0.320 HD
BRANCH  10  12
HETATM   12  C8  UNL     1      24.372   4.678  50.597  1.00  0.00     0.233 A 
HETATM   13  C9  UNL     1      23.927   6.026  50.335  1.00  0.00     0.048 A 
HETATM   14  C10 UNL     1      24.600   5.295  49.207  1.00  0.00     0.054 A 
BRANCH  14  15
HETATM   15  C11 UNL     1      25.982   5.645  48.801  1.00  0.00    -0.052 A 
HETATM   16  C12 UNL     1      26.259   6.924  48.345  1.00  0.00     0.007 A 
HETATM   17  C13 UNL     1      27.560   7.199  47.980  1.00  0.00     0.001 A 
HETATM   18  C14 UNL     1      28.588   6.265  48.049  1.00  0.00     0.000 A 
HETATM   19  C15 UNL     1      28.300   4.997  48.505  1.00  0.00     0.001 A 
HETATM   20  C16 UNL     1      27.012   4.726  48.864  1.00  0.00     0.007 A 
ENDBRANCH  14  15
ENDBRANCH  10  12
ENDBRANCH   7  10
BRANCH   9  21
HETATM   21  O1  UNL     1      19.682   3.499  52.283  1.00  0.00    -0.360 OA
HETATM   22  H19 UNL     1      19.658   4.212  52.997  1.00  0.00     0.217 HD
ENDBRANCH   9  21
BRANCH   1  23
HETATM   23  C2  UNL     1      19.613   1.257  50.602  1.00  0.00     0.037 C 
HETATM   24  C1  UNL     1      18.920   0.220  51.442  1.00  0.00     0.010 C 
ENDBRANCH   1  23
TORSDOF 5
ENDMDL
