MODEL 1
REMARK VINA RESULT:      -6.2      0.000      0.000
REMARK  6 active torsions:
REMARK  status: ('A' for Active; 'I' for Inactive)
REMARK    1  A    between atoms: O1_2  and  C2_3 
REMARK    2  A    between atoms: C3_4  and  C4_5 
REMARK    3  A    between atoms: C6_9  and  C7_10 
REMARK    4  A    between atoms: C7_10  and  N3_11 
REMARK    5  A    between atoms: C7_10  and  O2_19 
REMARK    6  A    between atoms: N3_11  and  C8_12 
ROOT
HETATM    1  C7  UNL     1      24.811   1.858  51.983  1.00  0.00     0.390 C 
ENDROOT
BRANCH   1   2
HETATM    2  C6  UNL     1      24.484   3.227  51.407  1.00  0.00     0.220 A 
HETATM    3  C4  UNL     1      25.059   3.375  50.065  1.00  0.00     0.067 A 
HETATM    4  N1  UNL     1      24.078   3.440  49.202  1.00  0.00    -0.244 NA
HETATM    5  C5  UNL     1      22.842   3.340  49.926  1.00  0.00     0.228 A 
HETATM    6  N2  UNL     1      23.062   3.218  51.180  1.00  0.00    -0.267 NA
BRANCH   3   7
HETATM    7  C3  UNL     1      26.422   3.459  49.554  1.00  0.00     0.053 C 
HETATM    8  C2  UNL     1      26.890   4.567  49.038  1.00  0.00     0.136 C 
BRANCH   8   9
HETATM    9  O1  UNL     1      28.184   4.675  48.545  1.00  0.00    -0.368 OA
HETATM   10  C1  UNL     1      28.743   5.921  48.212  1.00  0.00     0.208 C 
ENDBRANCH   8   9
ENDBRANCH   3   7
ENDBRANCH   1   2
BRANCH   1  11
HETATM   11  N3  UNL     1      23.855   1.562  53.048  1.00  0.00     0.141 N 
HETATM   12  H9  UNL     1      24.309   1.720  53.952  1.00  0.00     0.322 HD
BRANCH  11  13
HETATM   13  C8  UNL     1      23.356   0.224  52.818  1.00  0.00     0.352 A 
HETATM   14  N4  UNL     1      21.973   0.348  52.401  1.00  0.00    -0.367 N 
HETATM   15  C9  UNL     1      20.891  -0.247  53.133  1.00  0.00     0.085 A 
HETATM   16  H11 UNL     1      21.567   0.832  51.591  1.00  0.00     0.161 HD
HETATM   17  C10 UNL     1      21.061  -0.962  54.244  1.00  0.00     0.017 A 
HETATM   18  C11 UNL     1      22.413  -1.154  54.750  1.00  0.00     0.008 A 
HETATM   19  C12 UNL     1      23.399  -0.596  54.065  1.00  0.00    -0.032 A 
HETATM   20  C13 UNL     1      24.789  -0.817  54.615  1.00  0.00     0.048 C 
ENDBRANCH  11  13
ENDBRANCH   1  11
BRANCH   1  21
HETATM   21  O2  UNL     1      26.051   1.774  52.546  1.00  0.00    -0.360 OA
HETATM   22  C14 UNL     1      26.897   0.809  52.082  1.00  0.00     0.204 C 
ENDBRANCH   1  21
TORSDOF 6
ENDMDL
MODEL 2
REMARK VINA RESULT:      -6.1      2.023      5.992
REMARK  6 active torsions:
REMARK  status: ('A' for Active; 'I' for Inactive)
REMARK    1  A    between atoms: O1_2  and  C2_3 
REMARK    2  A    between atoms: C3_4  and  C4_5 
REMARK    3  A    between atoms: C6_9  and  C7_10 
REMARK    4  A    between atoms: C7_10  and  N3_11 
REMARK    5  A    between atoms: C7_10  and  O2_19 
REMARK    6  A    between atoms: N3_11  and  C8_12 
ROOT
HETATM    1  C7  UNL     1      25.524   2.147  52.545  1.00  0.00     0.390 C 
ENDROOT
BRANCH   1   2
HETATM    2  C6  UNL     1      24.745   0.879  52.230  1.00  0.00     0.220 A 
HETATM    3  C4  UNL     1      25.008  -0.154  53.238  1.00  0.00     0.067 A 
HETATM    4  N1  UNL     1      23.906  -0.361  53.912  1.00  0.00    -0.244 NA
HETATM    5  C5  UNL     1      22.893   0.511  53.387  1.00  0.00     0.228 A 
HETATM    6  N2  UNL     1      23.361   1.220  52.431  1.00  0.00    -0.267 NA
BRANCH   3   7
HETATM    7  C3  UNL     1      26.183  -0.938  53.599  1.00  0.00     0.053 C 
HETATM    8  C2  UNL     1      26.864  -1.601  52.698  1.00  0.00     0.136 C 
BRANCH   8   9
HETATM    9  O1  UNL     1      27.988  -2.354  53.014  1.00  0.00    -0.368 OA
HETATM   10  C1  UNL     1      29.219  -1.748  53.317  1.00  0.00     0.208 C 
ENDBRANCH   8   9
ENDBRANCH   3   7
ENDBRANCH   1   2
BRANCH   1  11
HETATM   11  N3  UNL     1      24.856   3.275  51.900  1.00  0.00     0.141 N 
HETATM   12  H9  UNL     1      23.846   3.177  52.029  1.00  0.00     0.322 HD
BRANCH  11  13
HETATM   13  C8  UNL     1      25.315   3.319  50.529  1.00  0.00     0.352 A 
HETATM   14  N4  UNL     1      26.334   4.348  50.451  1.00  0.00    -0.367 N 
HETATM   15  C9  UNL     1      26.209   5.493  49.594  1.00  0.00     0.085 A 
HETATM   16  H11 UNL     1      27.232   4.428  50.943  1.00  0.00     0.161 HD
HETATM   17  C10 UNL     1      25.160   5.706  48.801  1.00  0.00     0.017 A 
HETATM   18  C11 UNL     1      24.079   4.731  48.797  1.00  0.00     0.008 A 
HETATM   19  C12 UNL     1      24.209   3.682  49.594  1.00  0.00    -0.032 A 
HETATM   20  C13 UNL     1      23.071   2.688  49.564  1.00  0.00     0.048 C 
ENDBRANCH  11  13
ENDBRANCH   1  11
BRANCH   1  21
HETATM   21  O2  UNL     1      26.805   2.142  52.077  1.00  0.00    -0.360 OA
HETATM   22  C14 UNL     1      27.817   2.211  52.990  1.00  0.00     0.204 C 
ENDBRANCH   1  21
TORSDOF 6
ENDMDL
MODEL 3
REMARK VINA RESULT:      -6.1      2.301      3.076
REMARK  6 active torsions:
REMARK  status: ('A' for Active; 'I' for Inactive)
REMARK    1  A    between atoms: O1_2  and  C2_3 
REMARK    2  A    between atoms: C3_4  and  C4_5 
REMARK    3  A    between atoms: C6_9  and  C7_10 
REMARK    4  A    between atoms: C7_10  and  N3_11 
REMARK    5  A    between atoms: C7_10  and  O2_19 
REMARK    6  A    between atoms: N3_11  and  C8_12 
ROOT
HETATM    1  C7  UNL     1      23.937   1.028  52.828  1.00  0.00     0.390 C 
ENDROOT
BRANCH   1   2
HETATM    2  C6  UNL     1      24.369   2.454  52.526  1.00  0.00     0.220 A 
HETATM    3  C4  UNL     1      25.517   2.466  51.612  1.00  0.00     0.067 A 
HETATM    4  N1  UNL     1      25.130   2.977  50.471  1.00  0.00    -0.244 NA
HETATM    5  C5  UNL     1      23.740   3.317  50.585  1.00  0.00     0.228 A 
HETATM    6  N2  UNL     1      23.298   3.023  51.749  1.00  0.00    -0.267 NA
BRANCH   3   7
HETATM    7  C3  UNL     1      26.908   2.045  51.732  1.00  0.00     0.053 C 
HETATM    8  C2  UNL     1      27.565   2.175  52.856  1.00  0.00     0.136 C 
BRANCH   8   9
HETATM    9  O1  UNL     1      28.890   1.782  52.998  1.00  0.00    -0.368 OA
HETATM   10  C1  UNL     1      29.250   0.684  53.800  1.00  0.00     0.208 C 
ENDBRANCH   8   9
ENDBRANCH   3   7
ENDBRANCH   1   2
BRANCH   1  11
HETATM   11  N3  UNL     1      22.547   1.049  53.278  1.00  0.00     0.141 N 
HETATM   12  H9  UNL     1      22.531   1.005  54.300  1.00  0.00     0.322 HD
BRANCH  11  13
HETATM   13  C8  UNL     1      21.856  -0.018  52.589  1.00  0.00     0.352 A 
HETATM   14  N4  UNL     1      21.157   0.577  51.466  1.00  0.00    -0.367 N 
HETATM   15  C9  UNL     1      19.731   0.501  51.319  1.00  0.00     0.085 A 
HETATM   16  H11 UNL     1      21.521   1.101  50.663  1.00  0.00     0.161 HD
HETATM   17  C10 UNL     1      18.935  -0.121  52.187  1.00  0.00     0.017 A 
HETATM   18  C11 UNL     1      19.535  -0.759  53.351  1.00  0.00     0.008 A 
HETATM   19  C12 UNL     1      20.850  -0.678  53.473  1.00  0.00    -0.032 A 
HETATM   20  C13 UNL     1      21.441  -1.352  54.690  1.00  0.00     0.048 C 
ENDBRANCH  11  13
ENDBRANCH   1  11
BRANCH   1  21
HETATM   21  O2  UNL     1      24.653   0.430  53.823  1.00  0.00    -0.360 OA
HETATM   22  C14 UNL     1      25.302  -0.734  53.530  1.00  0.00     0.204 C 
ENDBRANCH   1  21
TORSDOF 6
ENDMDL
MODEL 4
REMARK VINA RESULT:      -6.1      2.615      6.228
REMARK  6 active torsions:
REMARK  status: ('A' for Active; 'I' for Inactive)
REMARK    1  A    between atoms: O1_2  and  C2_3 
REMARK    2  A    between atoms: C3_4  and  C4_5 
REMARK    3  A    between atoms: C6_9  and  C7_10 
REMARK    4  A    between atoms: C7_10  and  N3_11 
REMARK    5  A    between atoms: C7_10  and  O2_19 
REMARK    6  A    between atoms: N3_11  and  C8_12 
ROOT
HETATM    1  C7  UNL     1      25.859   2.111  53.276  1.00  0.00     0.390 C 
ENDROOT
BRANCH   1   2
HETATM    2  C6  UNL     1      26.258   1.284  54.489  1.00  0.00     0.220 A 
HETATM    3  C4  UNL     1      25.771  -0.094  54.360  1.00  0.00     0.067 A 
HETATM    4  N1  UNL     1      26.804  -0.886  54.229  1.00  0.00    -0.244 NA
HETATM    5  C5  UNL     1      27.991  -0.078  54.265  1.00  0.00     0.228 A 
HETATM    6  N2  UNL     1      27.691   1.157  54.412  1.00  0.00    -0.267 NA
BRANCH   3   7
HETATM    7  C3  UNL     1      24.444  -0.700  54.353  1.00  0.00     0.053 C 
HETATM    8  C2  UNL     1      23.916  -1.197  55.443  1.00  0.00     0.136 C 
BRANCH   8   9
HETATM    9  O1  UNL     1      22.655  -1.779  55.465  1.00  0.00    -0.368 OA
HETATM   10  C1  UNL     1      21.759  -1.637  54.391  1.00  0.00     0.208 C 
ENDBRANCH   8   9
ENDBRANCH   3   7
ENDBRANCH   1   2
BRANCH   1  11
HETATM   11  N3  UNL     1      24.548   2.704  53.530  1.00  0.00     0.141 N 
HETATM   12  H9  UNL     1      24.009   2.070  54.124  1.00  0.00     0.322 HD
BRANCH  11  13
HETATM   13  C8  UNL     1      23.962   3.016  52.245  1.00  0.00     0.352 A 
HETATM   14  N4  UNL     1      24.366   4.367  51.906  1.00  0.00    -0.367 N 
HETATM   15  C9  UNL     1      23.417   5.422  51.686  1.00  0.00     0.085 A 
HETATM   16  H11 UNL     1      25.303   4.765  51.776  1.00  0.00     0.161 HD
HETATM   17  C10 UNL     1      22.098   5.254  51.768  1.00  0.00     0.017 A 
HETATM   18  C11 UNL     1      21.583   3.932  52.098  1.00  0.00     0.008 A 
HETATM   19  C12 UNL     1      22.471   2.971  52.300  1.00  0.00    -0.032 A 
HETATM   20  C13 UNL     1      21.903   1.612  52.638  1.00  0.00     0.048 C 
ENDBRANCH  11  13
ENDBRANCH   1  11
BRANCH   1  21
HETATM   21  O2  UNL     1      25.737   1.387  52.127  1.00  0.00    -0.360 OA
HETATM   22  C14 UNL     1      26.666   1.584  51.148  1.00  0.00     0.204 C 
ENDBRANCH   1  21
TORSDOF 6
ENDMDL
MODEL 5
REMARK VINA RESULT:      -6.1      3.168      4.858
REMARK  6 active torsions:
REMARK  status: ('A' for Active; 'I' for Inactive)
REMARK    1  A    between atoms: O1_2  and  C2_3 
REMARK    2  A    between atoms: C3_4  and  C4_5 
REMARK    3  A    between atoms: C6_9  and  C7_10 
REMARK    4  A    between atoms: C7_10  and  N3_11 
REMARK    5  A    between atoms: C7_10  and  O2_19 
REMARK    6  A    between atoms: N3_11  and  C8_12 
ROOT
HETATM    1  C7  UNL     1      25.739   3.060  51.378  1.00  0.00     0.390 C 
ENDROOT
BRANCH   1   2
HETATM    2  C6  UNL     1      25.587   3.457  49.918  1.00  0.00     0.220 A 
HETATM    3  C4  UNL     1      25.272   4.885  49.800  1.00  0.00     0.067 A 
HETATM    4  N1  UNL     1      26.288   5.486  49.235  1.00  0.00    -0.244 NA
HETATM    5  C5  UNL     1      27.294   4.498  48.965  1.00  0.00     0.228 A 
HETATM    6  N2  UNL     1      26.905   3.342  49.349  1.00  0.00    -0.267 NA
BRANCH   3   7
HETATM    7  C3  UNL     1      24.119   5.699  50.166  1.00  0.00     0.053 C 
HETATM    8  C2  UNL     1      24.260   6.926  50.598  1.00  0.00     0.136 C 
BRANCH   8   9
HETATM    9  O1  UNL     1      23.179   7.724  50.953  1.00  0.00    -0.368 OA
HETATM   10  C1  UNL     1      21.854   7.309  50.733  1.00  0.00     0.208 C 
ENDBRANCH   8   9
ENDBRANCH   3   7
ENDBRANCH   1   2
BRANCH   1  11
HETATM   11  N3  UNL     1      26.831   2.094  51.485  1.00  0.00     0.141 N 
HETATM   12  H9  UNL     1      26.673   1.342  50.809  1.00  0.00     0.322 HD
BRANCH  11  13
HETATM   13  C8  UNL     1      26.913   1.690  52.871  1.00  0.00     0.352 A 
HETATM   14  N4  UNL     1      27.874   2.562  53.517  1.00  0.00    -0.367 N 
HETATM   15  C9  UNL     1      29.066   2.065  54.144  1.00  0.00     0.085 A 
HETATM   16  H11 UNL     1      27.871   3.582  53.629  1.00  0.00     0.161 HD
HETATM   17  C10 UNL     1      29.387   0.773  54.192  1.00  0.00     0.017 A 
HETATM   18  C11 UNL     1      28.486  -0.193  53.578  1.00  0.00     0.008 A 
HETATM   19  C12 UNL     1      27.393   0.282  53.002  1.00  0.00    -0.032 A 
HETATM   20  C13 UNL     1      26.480  -0.746  52.376  1.00  0.00     0.048 C 
ENDBRANCH  11  13
ENDBRANCH   1  11
BRANCH   1  21
HETATM   21  O2  UNL     1      24.638   2.453  51.906  1.00  0.00    -0.360 OA
HETATM   22  C14 UNL     1      23.759   1.866  51.044  1.00  0.00     0.204 C 
ENDBRANCH   1  21
TORSDOF 6
ENDMDL
MODEL 6
REMARK VINA RESULT:      -6.1      2.859      5.410
REMARK  6 active torsions:
REMARK  status: ('A' for Active; 'I' for Inactive)
REMARK    1  A    between atoms: O1_2  and  C2_3 
REMARK    2  A    between atoms: C3_4  and  C4_5 
REMARK    3  A    between atoms: C6_9  and  C7_10 
REMARK    4  A    between atoms: C7_10  and  N3_11 
REMARK    5  A    between atoms: C7_10  and  O2_19 
REMARK    6  A    between atoms: N3_11  and  C8_12 
ROOT
HETATM    1  C7  UNL     1      23.998   1.855  52.937  1.00  0.00     0.390 C 
ENDROOT
BRANCH   1   2
HETATM    2  C6  UNL     1      23.633   2.353  51.547  1.00  0.00     0.220 A 
HETATM    3  C4  UNL     1      22.856   3.595  51.628  1.00  0.00     0.067 A 
HETATM    4  N1  UNL     1      23.580   4.566  51.133  1.00  0.00    -0.244 NA
HETATM    5  C5  UNL     1      24.838   4.015  50.714  1.00  0.00     0.228 A 
HETATM    6  N2  UNL     1      24.878   2.757  50.945  1.00  0.00    -0.267 NA
BRANCH   3   7
HETATM    7  C3  UNL     1      21.523   3.922  52.120  1.00  0.00     0.053 C 
HETATM    8  C2  UNL     1      20.495   3.153  51.867  1.00  0.00     0.136 C 
BRANCH   8   9
HETATM    9  O1  UNL     1      19.215   3.441  52.324  1.00  0.00    -0.368 OA
HETATM   10  C1  UNL     1      18.108   3.447  51.458  1.00  0.00     0.208 C 
ENDBRANCH   8   9
ENDBRANCH   3   7
ENDBRANCH   1   2
BRANCH   1  11
HETATM   11  N3  UNL     1      25.277   1.153  52.858  1.00  0.00     0.141 N 
HETATM   12  H9  UNL     1      25.099   0.146  52.828  1.00  0.00     0.322 HD
BRANCH  11  13
HETATM   13  C8  UNL     1      26.091   1.617  53.960  1.00  0.00     0.352 A 
HETATM   14  N4  UNL     1      27.078   2.526  53.411  1.00  0.00    -0.367 N 
HETATM   15  C9  UNL     1      28.490   2.292  53.527  1.00  0.00     0.085 A 
HETATM   16  H11 UNL     1      26.954   3.406  52.897  1.00  0.00     0.161 HD
HETATM   17  C10 UNL     1      29.011   1.234  54.147  1.00  0.00     0.017 A 
HETATM   18  C11 UNL     1      28.107   0.258  54.741  1.00  0.00     0.008 A 
HETATM   19  C12 UNL     1      26.808   0.488  54.623  1.00  0.00    -0.032 A 
HETATM   20  C13 UNL     1      25.898  -0.542  55.251  1.00  0.00     0.048 C 
ENDBRANCH  11  13
ENDBRANCH   1  11
BRANCH   1  21
HETATM   21  O2  UNL     1      23.105   0.968  53.461  1.00  0.00    -0.360 OA
HETATM   22  C14 UNL     1      23.001  -0.256  52.868  1.00  0.00     0.204 C 
ENDBRANCH   1  21
TORSDOF 6
ENDMDL
MODEL 7
REMARK VINA RESULT:      -6.1      2.237      7.249
REMARK  6 active torsions:
REMARK  status: ('A' for Active; 'I' for Inactive)
REMARK    1  A    between atoms: O1_2  and  C2_3 
REMARK    2  A    between atoms: C3_4  and  C4_5 
REMARK    3  A    between atoms: C6_9  and  C7_10 
REMARK    4  A    between atoms: C7_10  and  N3_11 
REMARK    5  A    between atoms: C7_10  and  O2_19 
REMARK    6  A    between atoms: N3_11  and  C8_12 
ROOT
HETATM    1  C7  UNL     1      24.821   3.268  51.127  1.00  0.00     0.390 C 
ENDROOT
BRANCH   1   2
HETATM    2  C6  UNL     1      25.451   2.547  52.309  1.00  0.00     0.220 A 
HETATM    3  C4  UNL     1      24.908   1.190  52.438  1.00  0.00     0.067 A 
HETATM    4  N1  UNL     1      25.865   0.337  52.176  1.00  0.00    -0.244 NA
HETATM    5  C5  UNL     1      27.053   1.083  51.869  1.00  0.00     0.228 A 
HETATM    6  N2  UNL     1      26.828   2.340  51.942  1.00  0.00    -0.267 NA
BRANCH   3   7
HETATM    7  C3  UNL     1      23.596   0.656  52.781  1.00  0.00     0.053 C 
HETATM    8  C2  UNL     1      23.467  -0.491  53.400  1.00  0.00     0.136 C 
BRANCH   8   9
HETATM    9  O1  UNL     1      22.229  -1.023  53.740  1.00  0.00    -0.368 OA
HETATM   10  C1  UNL     1      21.419  -0.432  54.725  1.00  0.00     0.208 C 
ENDBRANCH   8   9
ENDBRANCH   3   7
ENDBRANCH   1   2
BRANCH   1  11
HETATM   11  N3  UNL     1      25.589   4.482  50.860  1.00  0.00     0.141 N 
HETATM   12  H9  UNL     1      25.097   5.280  51.270  1.00  0.00     0.322 HD
BRANCH  11  13
HETATM   13  C8  UNL     1      25.811   4.544  49.432  1.00  0.00     0.352 A 
HETATM   14  N4  UNL     1      27.212   4.248  49.203  1.00  0.00    -0.367 N 
HETATM   15  C9  UNL     1      28.101   5.177  48.564  1.00  0.00     0.085 A 
HETATM   16  H11 UNL     1      27.757   3.409  49.432  1.00  0.00     0.161 HD
HETATM   17  C10 UNL     1      27.720   6.377  48.126  1.00  0.00     0.017 A 
HETATM   18  C11 UNL     1      26.329   6.774  48.301  1.00  0.00     0.008 A 
HETATM   19  C12 UNL     1      25.524   5.907  48.894  1.00  0.00    -0.032 A 
HETATM   20  C13 UNL     1      24.088   6.349  49.058  1.00  0.00     0.048 C 
ENDBRANCH  11  13
ENDBRANCH   1  11
BRANCH   1  21
HETATM   21  O2  UNL     1      23.534   3.667  51.342  1.00  0.00    -0.360 OA
HETATM   22  C14 UNL     1      23.306   4.571  52.338  1.00  0.00     0.204 C 
ENDBRANCH   1  21
TORSDOF 6
ENDMDL
MODEL 8
REMARK VINA RESULT:      -6.0      2.588      5.749
REMARK  6 active torsions:
REMARK  status: ('A' for Active; 'I' for Inactive)
REMARK    1  A    between atoms: O1_2  and  C2_3 
REMARK    2  A    between atoms: C3_4  and  C4_5 
REMARK    3  A    between atoms: C6_9  and  C7_10 
REMARK    4  A    between atoms: C7_10  and  N3_11 
REMARK    5  A    between atoms: C7_10  and  O2_19 
REMARK    6  A    between atoms: N3_11  and  C8_12 
ROOT
HETATM    1  C7  UNL     1      24.887   2.577  51.745  1.00  0.00     0.390 C 
ENDROOT
BRANCH   1   2
HETATM    2  C6  UNL     1      23.880   1.712  51.004  1.00  0.00     0.220 A 
HETATM    3  C4  UNL     1      22.879   1.171  51.930  1.00  0.00     0.067 A 
HETATM    4  N1  UNL     1      21.721   1.712  51.647  1.00  0.00    -0.244 NA
HETATM    5  C5  UNL     1      21.909   2.612  50.545  1.00  0.00     0.228 A 
HETATM    6  N2  UNL     1      23.132   2.619  50.172  1.00  0.00    -0.267 NA
BRANCH   3   7
HETATM    7  C3  UNL     1      22.932   0.212  53.027  1.00  0.00     0.053 C 
HETATM    8  C2  UNL     1      21.985   0.154  53.929  1.00  0.00     0.136 C 
BRANCH   8   9
HETATM    9  O1  UNL     1      22.009  -0.750  54.984  1.00  0.00    -0.368 OA
HETATM   10  C1  UNL     1      23.208  -1.342  55.418  1.00  0.00     0.208 C 
ENDBRANCH   8   9
ENDBRANCH   3   7
ENDBRANCH   1   2
BRANCH   1  11
HETATM   11  N3  UNL     1      26.190   1.918  51.695  1.00  0.00     0.141 N 
HETATM   12  H9  UNL     1      26.149   1.156  51.014  1.00  0.00     0.322 HD
BRANCH  11  13
HETATM   13  C8  UNL     1      26.530   1.536  53.048  1.00  0.00     0.352 A 
HETATM   14  N4  UNL     1      27.453   2.533  53.556  1.00  0.00    -0.367 N 
HETATM   15  C9  UNL     1      28.780   2.203  53.993  1.00  0.00     0.085 A 
HETATM   16  H11 UNL     1      27.330   3.545  53.682  1.00  0.00     0.161 HD
HETATM   17  C10 UNL     1      29.273   0.966  53.975  1.00  0.00     0.017 A 
HETATM   18  C11 UNL     1      28.428  -0.115  53.487  1.00  0.00     0.008 A 
HETATM   19  C12 UNL     1      27.208   0.206  53.086  1.00  0.00    -0.032 A 
HETATM   20  C13 UNL     1      26.356  -0.938  52.588  1.00  0.00     0.048 C 
ENDBRANCH  11  13
ENDBRANCH   1  11
BRANCH   1  21
HETATM   21  O2  UNL     1      24.598   2.757  53.066  1.00  0.00    -0.360 OA
HETATM   22  C14 UNL     1      24.043   3.946  53.440  1.00  0.00     0.204 C 
ENDBRANCH   1  21
TORSDOF 6
ENDMDL
MODEL 9
REMARK VINA RESULT:      -6.0      2.020      3.087
REMARK  6 active torsions:
REMARK  status: ('A' for Active; 'I' for Inactive)
REMARK    1  A    between atoms: O1_2  and  C2_3 
REMARK    2  A    between atoms: C3_4  and  C4_5 
REMARK    3  A    between atoms: C6_9  and  C7_10 
REMARK    4  A    between atoms: C7_10  and  N3_11 
REMARK    5  A    between atoms: C7_10  and  O2_19 
REMARK    6  A    between atoms: N3_11  and  C8_12 
ROOT
HETATM    1  C7  UNL     1      23.510   2.670  51.652  1.00  0.00     0.390 C 
ENDROOT
BRANCH   1   2
HETATM    2  C6  UNL     1      24.727   3.578  51.570  1.00  0.00     0.220 A 
HETATM    3  C4  UNL     1      25.883   2.849  51.037  1.00  0.00     0.067 A 
HETATM    4  N1  UNL     1      26.178   3.347  49.863  1.00  0.00    -0.244 NA
HETATM    5  C5  UNL     1      25.247   4.404  49.582  1.00  0.00     0.228 A 
HETATM    6  N2  UNL     1      24.418   4.542  50.546  1.00  0.00    -0.267 NA
BRANCH   3   7
HETATM    7  C3  UNL     1      26.704   1.753  51.537  1.00  0.00     0.053 C 
HETATM    8  C2  UNL     1      27.442   1.888  52.610  1.00  0.00     0.136 C 
BRANCH   8   9
HETATM    9  O1  UNL     1      28.233   0.861  53.108  1.00  0.00    -0.368 OA
HETATM   10  C1  UNL     1      28.334   0.614  54.488  1.00  0.00     0.208 C 
ENDBRANCH   8   9
ENDBRANCH   3   7
ENDBRANCH   1   2
BRANCH   1  11
HETATM   11  N3  UNL     1      23.544   1.962  52.930  1.00  0.00     0.141 N 
HETATM   12  H9  UNL     1      24.508   1.947  53.272  1.00  0.00     0.322 HD
BRANCH  11  13
HETATM   13  C8  UNL     1      22.930   0.669  52.721  1.00  0.00     0.352 A 
HETATM   14  N4  UNL     1      21.502   0.838  52.911  1.00  0.00    -0.367 N 
HETATM   15  C9  UNL     1      20.769   0.120  53.916  1.00  0.00     0.085 A 
HETATM   16  H11 UNL     1      20.834   1.435  52.411  1.00  0.00     0.161 HD
HETATM   17  C10 UNL     1      21.328  -0.757  54.748  1.00  0.00     0.017 A 
HETATM   18  C11 UNL     1      22.759  -1.006  54.641  1.00  0.00     0.008 A 
HETATM   19  C12 UNL     1      23.421  -0.335  53.711  1.00  0.00    -0.032 A 
HETATM   20  C13 UNL     1      24.902  -0.619  53.624  1.00  0.00     0.048 C 
ENDBRANCH  11  13
ENDBRANCH   1  11
BRANCH   1  21
HETATM   21  O2  UNL     1      23.466   1.712  50.683  1.00  0.00    -0.360 OA
HETATM   22  C14 UNL     1      22.533   1.846  49.696  1.00  0.00     0.204 C 
ENDBRANCH   1  21
TORSDOF 6
ENDMDL
