MODEL 1
REMARK VINA RESULT:      -8.5      0.000      0.000
REMARK  5 active torsions:
REMARK  status: ('A' for Active; 'I' for Inactive)
REMARK    1  A    between atoms: C1_2  and  C2_3 
REMARK    2  A    between atoms: C2_3  and  O2_4 
REMARK    3  A    between atoms: O2_4  and  C3_5 
REMARK    4  A    between atoms: C5_7  and  O3_8 
REMARK    5  A    between atoms: C9_13  and  C10_14 
ROOT
HETATM    1  C3  UNL     1      26.078   0.461  53.172  1.00  0.00     0.074 A 
HETATM    2  C4  UNL     1      26.196  -0.236  54.331  1.00  0.00     0.074 A 
HETATM    3  C5  UNL     1      25.045  -0.787  54.865  1.00  0.00     0.085 A 
HETATM    4  C6  UNL     1      23.860  -0.613  54.222  1.00  0.00     0.081 A 
HETATM    5  C7  UNL     1      22.645  -1.128  54.679  1.00  0.00     0.190 A 
HETATM    6  O4  UNL     1      22.642  -1.788  55.742  1.00  0.00    -0.287 OA
HETATM    7  C8  UNL     1      21.521  -0.876  53.929  1.00  0.00     0.094 A 
HETATM    8  C9  UNL     1      21.490  -0.153  52.755  1.00  0.00     0.090 A 
HETATM    9  O5  UNL     1      22.652   0.321  52.348  1.00  0.00    -0.309 OA
HETATM   10  C16 UNL     1      23.745   0.098  53.040  1.00  0.00     0.095 A 
HETATM   11  C17 UNL     1      24.897   0.662  52.487  1.00  0.00     0.075 A 
ENDROOT
BRANCH   8  12
HETATM   12  C10 UNL     1      20.255   0.071  52.015  1.00  0.00    -0.002 A 
HETATM   13  C11 UNL     1      18.993  -0.293  52.424  1.00  0.00     0.014 A 
HETATM   14  C12 UNL     1      17.868  -0.046  51.663  1.00  0.00     0.001 A 
HETATM   15  C13 UNL     1      17.997   0.594  50.441  1.00  0.00     0.000 A 
HETATM   16  C14 UNL     1      19.242   0.968  50.009  1.00  0.00     0.001 A 
HETATM   17  C15 UNL     1      20.353   0.709  50.788  1.00  0.00     0.014 A 
ENDBRANCH   8  12
BRANCH   3  18
HETATM   18  O3  UNL     1      25.080  -1.503  56.030  1.00  0.00    -0.360 OA
HETATM   19  H5  UNL     1      25.993  -1.757  56.439  1.00  0.00     0.217 HD
ENDBRANCH   3  18
BRANCH   1  20
HETATM   20  O2  UNL     1      27.240   1.008  52.648  1.00  0.00    -0.344 OA
BRANCH  20  21
HETATM   21  C2  UNL     1      28.478   0.990  53.308  1.00  0.00     0.244 C 
BRANCH  21  22
HETATM   22  C1  UNL     1      28.792   2.383  53.731  1.00  0.00     0.257 C 
HETATM   23  O1  UNL     1      29.389   2.399  54.805  1.00  0.00    -0.305 OA
ENDBRANCH  21  22
ENDBRANCH  20  21
ENDBRANCH   1  20
TORSDOF 5
ENDMDL
MODEL 2
REMARK VINA RESULT:      -8.3      2.015      3.712
REMARK  5 active torsions:
REMARK  status: ('A' for Active; 'I' for Inactive)
REMARK    1  A    between atoms: C1_2  and  C2_3 
REMARK    2  A    between atoms: C2_3  and  O2_4 
REMARK    3  A    between atoms: O2_4  and  C3_5 
REMARK    4  A    between atoms: C5_7  and  O3_8 
REMARK    5  A    between atoms: C9_13  and  C10_14 
ROOT
HETATM    1  C3  UNL     1      27.374   0.235  53.735  1.00  0.00     0.074 A 
HETATM    2  C4  UNL     1      27.850   1.278  53.008  1.00  0.00     0.074 A 
HETATM    3  C5  UNL     1      26.943   1.995  52.249  1.00  0.00     0.085 A 
HETATM    4  C6  UNL     1      25.632   1.635  52.259  1.00  0.00     0.081 A 
HETATM    5  C7  UNL     1      24.640   2.293  51.529  1.00  0.00     0.190 A 
HETATM    6  O4  UNL     1      24.972   3.271  50.823  1.00  0.00    -0.287 OA
HETATM    7  C8  UNL     1      23.352   1.823  51.631  1.00  0.00     0.094 A 
HETATM    8  C9  UNL     1      22.953   0.749  52.398  1.00  0.00     0.090 A 
HETATM    9  O5  UNL     1      23.911   0.147  53.077  1.00  0.00    -0.309 OA
HETATM   10  C16 UNL     1      25.151   0.571  53.002  1.00  0.00     0.095 A 
HETATM   11  C17 UNL     1      26.054  -0.164  53.774  1.00  0.00     0.075 A 
ENDROOT
BRANCH   8  12
HETATM   12  C10 UNL     1      21.565   0.309  52.456  1.00  0.00    -0.002 A 
HETATM   13  C11 UNL     1      20.593   0.585  51.521  1.00  0.00     0.014 A 
HETATM   14  C12 UNL     1      19.296   0.132  51.646  1.00  0.00     0.001 A 
HETATM   15  C13 UNL     1      18.942  -0.631  52.747  1.00  0.00     0.000 A 
HETATM   16  C14 UNL     1      19.889  -0.921  53.693  1.00  0.00     0.001 A 
HETATM   17  C15 UNL     1      21.182  -0.456  53.546  1.00  0.00     0.014 A 
ENDBRANCH   8  12
BRANCH   3  18
HETATM   18  O3  UNL     1      27.343   3.059  51.489  1.00  0.00    -0.360 OA
HETATM   19  H5  UNL     1      26.726   3.883  51.410  1.00  0.00     0.217 HD
ENDBRANCH   3  18
BRANCH   1  20
HETATM   20  O2  UNL     1      28.296  -0.474  54.491  1.00  0.00    -0.344 OA
BRANCH  20  21
HETATM   21  C2  UNL     1      29.461  -1.050  53.963  1.00  0.00     0.244 C 
BRANCH  21  22
HETATM   22  C1  UNL     1      29.053  -2.155  53.050  1.00  0.00     0.257 C 
HETATM   23  O1  UNL     1      29.004  -3.229  53.644  1.00  0.00    -0.305 OA
ENDBRANCH  21  22
ENDBRANCH  20  21
ENDBRANCH   1  20
TORSDOF 5
ENDMDL
MODEL 3
REMARK VINA RESULT:      -8.0      1.941      2.590
REMARK  5 active torsions:
REMARK  status: ('A' for Active; 'I' for Inactive)
REMARK    1  A    between atoms: C1_2  and  C2_3 
REMARK    2  A    between atoms: C2_3  and  O2_4 
REMARK    3  A    between atoms: O2_4  and  C3_5 
REMARK    4  A    between atoms: C5_7  and  O3_8 
REMARK    5  A    between atoms: C9_13  and  C10_14 
ROOT
HETATM    1  C3  UNL     1      26.122  -0.207  54.594  1.00  0.00     0.074 A 
HETATM    2  C4  UNL     1      25.313  -0.920  55.420  1.00  0.00     0.074 A 
HETATM    3  C5  UNL     1      23.983  -1.041  55.064  1.00  0.00     0.085 A 
HETATM    4  C6  UNL     1      23.540  -0.452  53.920  1.00  0.00     0.081 A 
HETATM    5  C7  UNL     1      22.219  -0.515  53.474  1.00  0.00     0.190 A 
HETATM    6  O4  UNL     1      21.389  -1.150  54.163  1.00  0.00    -0.287 OA
HETATM    7  C8  UNL     1      21.909   0.127  52.299  1.00  0.00     0.094 A 
HETATM    8  C9  UNL     1      22.798   0.834  51.517  1.00  0.00     0.090 A 
HETATM    9  O5  UNL     1      24.039   0.876  51.963  1.00  0.00    -0.309 OA
HETATM   10  C16 UNL     1      24.369   0.273  53.082  1.00  0.00     0.095 A 
HETATM   11  C17 UNL     1      25.715   0.406  53.427  1.00  0.00     0.075 A 
ENDROOT
BRANCH   8  12
HETATM   12  C10 UNL     1      22.392   1.488  50.280  1.00  0.00    -0.002 A 
HETATM   13  C11 UNL     1      21.318   1.135  49.496  1.00  0.00     0.014 A 
HETATM   14  C12 UNL     1      20.997   1.806  48.334  1.00  0.00     0.001 A 
HETATM   15  C13 UNL     1      21.773   2.879  47.928  1.00  0.00     0.000 A 
HETATM   16  C14 UNL     1      22.849   3.253  48.690  1.00  0.00     0.001 A 
HETATM   17  C15 UNL     1      23.150   2.566  49.849  1.00  0.00     0.014 A 
ENDBRANCH   8  12
BRANCH   3  18
HETATM   18  O3  UNL     1      23.104  -1.742  55.842  1.00  0.00    -0.360 OA
HETATM   19  H5  UNL     1      22.277  -2.177  55.404  1.00  0.00     0.217 HD
ENDBRANCH   3  18
BRANCH   1  20
HETATM   20  O2  UNL     1      27.454  -0.095  54.964  1.00  0.00    -0.344 OA
BRANCH  20  21
HETATM   21  C2  UNL     1      28.483   0.262  54.081  1.00  0.00     0.244 C 
BRANCH  21  22
HETATM   22  C1  UNL     1      29.143   1.486  54.616  1.00  0.00     0.257 C 
HETATM   23  O1  UNL     1      28.576   2.504  54.229  1.00  0.00    -0.305 OA
ENDBRANCH  21  22
ENDBRANCH  20  21
ENDBRANCH   1  20
TORSDOF 5
ENDMDL
MODEL 4
REMARK VINA RESULT:      -8.0      3.819      6.204
REMARK  5 active torsions:
REMARK  status: ('A' for Active; 'I' for Inactive)
REMARK    1  A    between atoms: C1_2  and  C2_3 
REMARK    2  A    between atoms: C2_3  and  O2_4 
REMARK    3  A    between atoms: O2_4  and  C3_5 
REMARK    4  A    between atoms: C5_7  and  O3_8 
REMARK    5  A    between atoms: C9_13  and  C10_14 
ROOT
HETATM    1  C3  UNL     1      26.578   0.018  53.332  1.00  0.00     0.074 A 
HETATM    2  C4  UNL     1      25.275  -0.354  53.415  1.00  0.00     0.074 A 
HETATM    3  C5  UNL     1      24.358   0.356  52.662  1.00  0.00     0.085 A 
HETATM    4  C6  UNL     1      24.788   1.383  51.880  1.00  0.00     0.081 A 
HETATM    5  C7  UNL     1      23.943   2.159  51.084  1.00  0.00     0.190 A 
HETATM    6  O4  UNL     1      22.719   1.899  51.087  1.00  0.00    -0.287 OA
HETATM    7  C8  UNL     1      24.512   3.167  50.343  1.00  0.00     0.094 A 
HETATM    8  C9  UNL     1      25.855   3.480  50.318  1.00  0.00     0.090 A 
HETATM    9  O5  UNL     1      26.628   2.729  51.079  1.00  0.00    -0.309 OA
HETATM   10  C16 UNL     1      26.117   1.758  51.799  1.00  0.00     0.095 A 
HETATM   11  C17 UNL     1      27.056   1.052  52.554  1.00  0.00     0.075 A 
ENDROOT
BRANCH   8  12
HETATM   12  C10 UNL     1      26.383   4.567  49.503  1.00  0.00    -0.002 A 
HETATM   13  C11 UNL     1      27.652   4.636  48.978  1.00  0.00     0.014 A 
HETATM   14  C12 UNL     1      28.080   5.702  48.213  1.00  0.00     0.001 A 
HETATM   15  C13 UNL     1      27.210   6.749  47.953  1.00  0.00     0.000 A 
HETATM   16  C14 UNL     1      25.940   6.705  48.463  1.00  0.00     0.001 A 
HETATM   17  C15 UNL     1      25.535   5.628  49.226  1.00  0.00     0.014 A 
ENDBRANCH   8  12
BRANCH   3  18
HETATM   18  O3  UNL     1      23.028   0.043  52.690  1.00  0.00    -0.360 OA
HETATM   19  H5  UNL     1      22.711  -0.854  52.290  1.00  0.00     0.217 HD
ENDBRANCH   3  18
BRANCH   1  20
HETATM   20  O2  UNL     1      27.486  -0.704  54.094  1.00  0.00    -0.344 OA
BRANCH  20  21
HETATM   21  C2  UNL     1      28.843  -0.372  54.213  1.00  0.00     0.244 C 
BRANCH  21  22
HETATM   22  C1  UNL     1      29.622  -1.318  53.366  1.00  0.00     0.257 C 
HETATM   23  O1  UNL     1      29.203  -2.467  53.479  1.00  0.00    -0.305 OA
ENDBRANCH  21  22
ENDBRANCH  20  21
ENDBRANCH   1  20
TORSDOF 5
ENDMDL
MODEL 5
REMARK VINA RESULT:      -8.0      2.296      3.075
REMARK  5 active torsions:
REMARK  status: ('A' for Active; 'I' for Inactive)
REMARK    1  A    between atoms: C1_2  and  C2_3 
REMARK    2  A    between atoms: C2_3  and  O2_4 
REMARK    3  A    between atoms: O2_4  and  C3_5 
REMARK    4  A    between atoms: C5_7  and  O3_8 
REMARK    5  A    between atoms: C9_13  and  C10_14 
ROOT
HETATM    1  C3  UNL     1      26.426   2.217  51.565  1.00  0.00     0.074 A 
HETATM    2  C4  UNL     1      27.227   1.592  52.466  1.00  0.00     0.074 A 
HETATM    3  C5  UNL     1      26.639   0.671  53.313  1.00  0.00     0.085 A 
HETATM    4  C6  UNL     1      25.304   0.430  53.216  1.00  0.00     0.081 A 
HETATM    5  C7  UNL     1      24.618  -0.479  54.024  1.00  0.00     0.190 A 
HETATM    6  O4  UNL     1      25.264  -1.111  54.889  1.00  0.00    -0.287 OA
HETATM    7  C8  UNL     1      23.266  -0.624  53.818  1.00  0.00     0.094 A 
HETATM    8  C9  UNL     1      22.525   0.056  52.874  1.00  0.00     0.090 A 
HETATM    9  O5  UNL     1      23.200   0.908  52.126  1.00  0.00    -0.309 OA
HETATM   10  C16 UNL     1      24.492   1.070  52.296  1.00  0.00     0.095 A 
HETATM   11  C17 UNL     1      25.069   2.003  51.433  1.00  0.00     0.075 A 
ENDROOT
BRANCH   8  12
HETATM   12  C10 UNL     1      21.092  -0.153  52.716  1.00  0.00    -0.002 A 
HETATM   13  C11 UNL     1      20.314   0.339  51.693  1.00  0.00     0.014 A 
HETATM   14  C12 UNL     1      18.958   0.096  51.612  1.00  0.00     0.001 A 
HETATM   15  C13 UNL     1      18.342  -0.671  52.587  1.00  0.00     0.000 A 
HETATM   16  C14 UNL     1      19.092  -1.175  53.616  1.00  0.00     0.001 A 
HETATM   17  C15 UNL     1      20.448  -0.917  53.676  1.00  0.00     0.014 A 
ENDBRANCH   8  12
BRANCH   3  18
HETATM   18  O3  UNL     1      27.377  -0.001  54.247  1.00  0.00    -0.360 OA
HETATM   19  H5  UNL     1      27.450  -1.029  54.190  1.00  0.00     0.217 HD
ENDBRANCH   3  18
BRANCH   1  20
HETATM   20  O2  UNL     1      27.030   3.138  50.722  1.00  0.00    -0.344 OA
BRANCH  20  21
HETATM   21  C2  UNL     1      26.594   3.404  49.415  1.00  0.00     0.244 C 
BRANCH  21  22
HETATM   22  C1  UNL     1      27.102   4.751  49.029  1.00  0.00     0.257 C 
HETATM   23  O1  UNL     1      28.213   4.676  48.510  1.00  0.00    -0.305 OA
ENDBRANCH  21  22
ENDBRANCH  20  21
ENDBRANCH   1  20
TORSDOF 5
ENDMDL
MODEL 6
REMARK VINA RESULT:      -8.0      2.086      6.828
REMARK  5 active torsions:
REMARK  status: ('A' for Active; 'I' for Inactive)
REMARK    1  A    between atoms: C1_2  and  C2_3 
REMARK    2  A    between atoms: C2_3  and  O2_4 
REMARK    3  A    between atoms: O2_4  and  C3_5 
REMARK    4  A    between atoms: C5_7  and  O3_8 
REMARK    5  A    between atoms: C9_13  and  C10_14 
ROOT
HETATM    1  C3  UNL     1      21.374   1.064  52.170  1.00  0.00     0.074 A 
HETATM    2  C4  UNL     1      20.651   0.352  53.073  1.00  0.00     0.074 A 
HETATM    3  C5  UNL     1      21.349  -0.397  54.002  1.00  0.00     0.085 A 
HETATM    4  C6  UNL     1      22.708  -0.395  53.978  1.00  0.00     0.081 A 
HETATM    5  C7  UNL     1      23.502  -1.117  54.871  1.00  0.00     0.190 A 
HETATM    6  O4  UNL     1      22.935  -1.808  55.746  1.00  0.00    -0.287 OA
HETATM    7  C8  UNL     1      24.867  -1.023  54.733  1.00  0.00     0.094 A 
HETATM    8  C9  UNL     1      25.524  -0.272  53.781  1.00  0.00     0.090 A 
HETATM    9  O5  UNL     1      24.747   0.399  52.952  1.00  0.00    -0.309 OA
HETATM   10  C16 UNL     1      23.441   0.333  53.056  1.00  0.00     0.095 A 
HETATM   11  C17 UNL     1      22.752   1.095  52.110  1.00  0.00     0.075 A 
ENDROOT
BRANCH   8  12
HETATM   12  C10 UNL     1      26.978  -0.223  53.699  1.00  0.00    -0.002 A 
HETATM   13  C11 UNL     1      27.797  -1.253  53.300  1.00  0.00     0.014 A 
HETATM   14  C12 UNL     1      29.171  -1.129  53.248  1.00  0.00     0.001 A 
HETATM   15  C13 UNL     1      29.762   0.070  53.607  1.00  0.00     0.000 A 
HETATM   16  C14 UNL     1      28.970   1.113  54.009  1.00  0.00     0.001 A 
HETATM   17  C15 UNL     1      27.597   0.965  54.053  1.00  0.00     0.014 A 
ENDBRANCH   8  12
BRANCH   3  18
HETATM   18  O3  UNL     1      20.694  -1.142  54.944  1.00  0.00    -0.360 OA
HETATM   19  H5  UNL     1      20.596  -0.771  55.902  1.00  0.00     0.217 HD
ENDBRANCH   3  18
BRANCH   1  20
HETATM   20  O2  UNL     1      20.660   1.811  51.245  1.00  0.00    -0.344 OA
BRANCH  20  21
HETATM   21  C2  UNL     1      21.040   3.091  50.813  1.00  0.00     0.244 C 
BRANCH  21  22
HETATM   22  C1  UNL     1      19.938   4.034  51.151  1.00  0.00     0.257 C 
HETATM   23  O1  UNL     1      19.231   3.590  52.052  1.00  0.00    -0.305 OA
ENDBRANCH  21  22
ENDBRANCH  20  21
ENDBRANCH   1  20
TORSDOF 5
ENDMDL
MODEL 7
REMARK VINA RESULT:      -7.7      2.590      6.370
REMARK  5 active torsions:
REMARK  status: ('A' for Active; 'I' for Inactive)
REMARK    1  A    between atoms: C1_2  and  C2_3 
REMARK    2  A    between atoms: C2_3  and  O2_4 
REMARK    3  A    between atoms: O2_4  and  C3_5 
REMARK    4  A    between atoms: C5_7  and  O3_8 
REMARK    5  A    between atoms: C9_13  and  C10_14 
ROOT
HETATM    1  C3  UNL     1      21.369  -1.110  53.987  1.00  0.00     0.074 A 
HETATM    2  C4  UNL     1      22.193  -1.664  54.914  1.00  0.00     0.074 A 
HETATM    3  C5  UNL     1      23.517  -1.265  54.912  1.00  0.00     0.085 A 
HETATM    4  C6  UNL     1      23.938  -0.351  53.997  1.00  0.00     0.081 A 
HETATM    5  C7  UNL     1      25.251   0.116  53.913  1.00  0.00     0.190 A 
HETATM    6  O4  UNL     1      26.094  -0.331  54.723  1.00  0.00    -0.287 OA
HETATM    7  C8  UNL     1      25.540   1.041  52.938  1.00  0.00     0.094 A 
HETATM    8  C9  UNL     1      24.637   1.553  52.031  1.00  0.00     0.090 A 
HETATM    9  O5  UNL     1      23.404   1.094  52.135  1.00  0.00    -0.309 OA
HETATM   10  C16 UNL     1      23.094   0.210  53.054  1.00  0.00     0.095 A 
HETATM   11  C17 UNL     1      21.754  -0.182  53.043  1.00  0.00     0.075 A 
ENDROOT
BRANCH   8  12
HETATM   12  C10 UNL     1      25.020   2.535  51.025  1.00  0.00    -0.002 A 
HETATM   13  C11 UNL     1      24.159   3.339  50.315  1.00  0.00     0.014 A 
HETATM   14  C12 UNL     1      24.600   4.249  49.375  1.00  0.00     0.001 A 
HETATM   15  C13 UNL     1      25.957   4.370  49.126  1.00  0.00     0.000 A 
HETATM   16  C14 UNL     1      26.837   3.581  49.819  1.00  0.00     0.001 A 
HETATM   17  C15 UNL     1      26.372   2.678  50.754  1.00  0.00     0.014 A 
ENDBRANCH   8  12
BRANCH   3  18
HETATM   18  O3  UNL     1      24.410  -1.775  55.813  1.00  0.00    -0.360 OA
HETATM   19  H5  UNL     1      24.094  -1.986  56.773  1.00  0.00     0.217 HD
ENDBRANCH   3  18
BRANCH   1  20
HETATM   20  O2  UNL     1      20.044  -1.520  54.002  1.00  0.00    -0.344 OA
BRANCH  20  21
HETATM   21  C2  UNL     1      19.019  -0.877  53.293  1.00  0.00     0.244 C 
BRANCH  21  22
HETATM   22  C1  UNL     1      17.777  -1.684  53.450  1.00  0.00     0.257 C 
HETATM   23  O1  UNL     1      18.019  -2.785  53.937  1.00  0.00    -0.305 OA
ENDBRANCH  21  22
ENDBRANCH  20  21
ENDBRANCH   1  20
TORSDOF 5
ENDMDL
MODEL 8
REMARK VINA RESULT:      -7.6      1.832      3.086
REMARK  5 active torsions:
REMARK  status: ('A' for Active; 'I' for Inactive)
REMARK    1  A    between atoms: C1_2  and  C2_3 
REMARK    2  A    between atoms: C2_3  and  O2_4 
REMARK    3  A    between atoms: O2_4  and  C3_5 
REMARK    4  A    between atoms: C5_7  and  O3_8 
REMARK    5  A    between atoms: C9_13  and  C10_14 
ROOT
HETATM    1  C3  UNL     1      25.275   0.320  53.483  1.00  0.00     0.074 A 
HETATM    2  C4  UNL     1      25.517   1.633  53.235  1.00  0.00     0.074 A 
HETATM    3  C5  UNL     1      24.442   2.423  52.870  1.00  0.00     0.085 A 
HETATM    4  C6  UNL     1      23.205   1.865  52.773  1.00  0.00     0.081 A 
HETATM    5  C7  UNL     1      22.059   2.576  52.412  1.00  0.00     0.190 A 
HETATM    6  O4  UNL     1      22.170   3.797  52.162  1.00  0.00    -0.287 OA
HETATM    7  C8  UNL     1      20.871   1.886  52.354  1.00  0.00     0.094 A 
HETATM    8  C9  UNL     1      20.713   0.543  52.622  1.00  0.00     0.090 A 
HETATM    9  O5  UNL     1      21.814  -0.102  52.961  1.00  0.00    -0.309 OA
HETATM   10  C16 UNL     1      22.964   0.526  53.027  1.00  0.00     0.095 A 
HETATM   11  C17 UNL     1      24.038  -0.286  53.397  1.00  0.00     0.075 A 
ENDROOT
BRANCH   8  12
HETATM   12  C10 UNL     1      19.417  -0.118  52.539  1.00  0.00    -0.002 A 
HETATM   13  C11 UNL     1      18.449   0.125  51.593  1.00  0.00     0.014 A 
HETATM   14  C12 UNL     1      17.242  -0.545  51.580  1.00  0.00     0.001 A 
HETATM   15  C13 UNL     1      16.981  -1.501  52.547  1.00  0.00     0.000 A 
HETATM   16  C14 UNL     1      17.928  -1.763  53.502  1.00  0.00     0.001 A 
HETATM   17  C15 UNL     1      19.128  -1.079  53.494  1.00  0.00     0.014 A 
ENDBRANCH   8  12
BRANCH   3  18
HETATM   18  O3  UNL     1      24.602   3.754  52.604  1.00  0.00    -0.360 OA
HETATM   19  H5  UNL     1      25.533   4.106  52.328  1.00  0.00     0.217 HD
ENDBRANCH   3  18
BRANCH   1  20
HETATM   20  O2  UNL     1      26.362  -0.459  53.849  1.00  0.00    -0.344 OA
BRANCH  20  21
HETATM   21  C2  UNL     1      27.697  -0.101  53.607  1.00  0.00     0.244 C 
BRANCH  21  22
HETATM   22  C1  UNL     1      28.374   0.059  54.924  1.00  0.00     0.257 C 
HETATM   23  O1  UNL     1      28.936   1.148  55.008  1.00  0.00    -0.305 OA
ENDBRANCH  21  22
ENDBRANCH  20  21
ENDBRANCH   1  20
TORSDOF 5
ENDMDL
MODEL 9
REMARK VINA RESULT:      -7.5      3.401      6.755
REMARK  5 active torsions:
REMARK  status: ('A' for Active; 'I' for Inactive)
REMARK    1  A    between atoms: C1_2  and  C2_3 
REMARK    2  A    between atoms: C2_3  and  O2_4 
REMARK    3  A    between atoms: O2_4  and  C3_5 
REMARK    4  A    between atoms: C5_7  and  O3_8 
REMARK    5  A    between atoms: C9_13  and  C10_14 
ROOT
HETATM    1  C3  UNL     1      22.772  -0.060  53.063  1.00  0.00     0.074 A 
HETATM    2  C4  UNL     1      23.739  -0.834  53.620  1.00  0.00     0.074 A 
HETATM    3  C5  UNL     1      25.055  -0.485  53.378  1.00  0.00     0.085 A 
HETATM    4  C6  UNL     1      25.328   0.599  52.603  1.00  0.00     0.081 A 
HETATM    5  C7  UNL     1      26.620   1.032  52.300  1.00  0.00     0.190 A 
HETATM    6  O4  UNL     1      27.587   0.389  52.765  1.00  0.00    -0.287 OA
HETATM    7  C8  UNL     1      26.751   2.145  51.504  1.00  0.00     0.094 A 
HETATM    8  C9  UNL     1      25.708   2.876  50.975  1.00  0.00     0.090 A 
HETATM    9  O5  UNL     1      24.499   2.443  51.279  1.00  0.00    -0.309 OA
HETATM   10  C16 UNL     1      24.338   1.384  52.037  1.00  0.00     0.095 A 
HETATM   11  C17 UNL     1      23.004   1.046  52.272  1.00  0.00     0.075 A 
ENDROOT
BRANCH   8  12
HETATM   12  C10 UNL     1      25.928   4.048  50.138  1.00  0.00    -0.002 A 
HETATM   13  C11 UNL     1      25.091   5.135  50.038  1.00  0.00     0.014 A 
HETATM   14  C12 UNL     1      25.370   6.211  49.220  1.00  0.00     0.001 A 
HETATM   15  C13 UNL     1      26.532   6.214  48.467  1.00  0.00     0.000 A 
HETATM   16  C14 UNL     1      27.385   5.144  48.548  1.00  0.00     0.001 A 
HETATM   17  C15 UNL     1      27.084   4.079  49.373  1.00  0.00     0.014 A 
ENDBRANCH   8  12
BRANCH   3  18
HETATM   18  O3  UNL     1      26.087  -1.213  53.903  1.00  0.00    -0.360 OA
HETATM   19  H5  UNL     1      26.179  -2.210  53.655  1.00  0.00     0.217 HD
ENDBRANCH   3  18
BRANCH   1  20
HETATM   20  O2  UNL     1      21.457  -0.422  53.315  1.00  0.00    -0.344 OA
BRANCH  20  21
HETATM   21  C2  UNL     1      20.346   0.316  52.880  1.00  0.00     0.244 C 
BRANCH  21  22
HETATM   22  C1  UNL     1      19.134  -0.532  53.060  1.00  0.00     0.257 C 
HETATM   23  O1  UNL     1      18.455  -0.560  52.037  1.00  0.00    -0.305 OA
ENDBRANCH  21  22
ENDBRANCH  20  21
ENDBRANCH   1  20
TORSDOF 5
ENDMDL
