MODEL 1
REMARK VINA RESULT:      -7.7      0.000      0.000
REMARK  5 active torsions:
REMARK  status: ('A' for Active; 'I' for Inactive)
REMARK    1  A    between atoms: C2_2  and  C3_3 
REMARK    2  A    between atoms: C3_3  and  N1_4 
REMARK    3  A    between atoms: N1_4  and  C4_5 
REMARK    4  A    between atoms: C10_11  and  N2_12 
REMARK    5  A    between atoms: N2_12  and  C11_13 
ROOT
HETATM    1  C4  UNL     1      24.191  -0.463  53.510  1.00  0.00     0.029 A 
HETATM    2  C5  UNL     1      24.705  -0.778  54.749  1.00  0.00     0.031 A 
HETATM    3  C6  UNL     1      25.920  -0.218  55.110  1.00  0.00     0.033 A 
HETATM    4  C7  UNL     1      26.566   0.627  54.230  1.00  0.00     0.046 A 
HETATM    5  C8  UNL     1      26.096   0.970  52.991  1.00  0.00     0.039 A 
HETATM    6  C9  UNL     1      24.888   0.388  52.679  1.00  0.00     0.046 A 
HETATM    7  C10 UNL     1      26.773   1.843  52.082  1.00  0.00     0.141 A 
HETATM    8  N3  UNL     1      27.896   2.446  52.243  1.00  0.00    -0.224 NA
HETATM    9  P1  UNL     1      28.810   2.222  53.775  1.00  0.00     0.102 P 
HETATM   10  N4  UNL     1      27.796   1.109  54.754  1.00  0.00    -0.348 N 
HETATM   11  H15 UNL     1      28.982   3.504  54.403  1.00  0.00     0.106 HD
HETATM   12  H16 UNL     1      28.285   0.966  55.637  1.00  0.00     0.166 HD
ENDROOT
BRANCH   7  13
HETATM   13  N2  UNL     1      26.144   2.072  50.815  1.00  0.00    -0.340 N 
HETATM   14  H10 UNL     1      25.814   1.381  50.118  1.00  0.00     0.167 HD
BRANCH  13  15
HETATM   15  C11 UNL     1      25.920   3.441  50.410  1.00  0.00     0.035 A 
HETATM   16  C12 UNL     1      26.842   3.728  49.416  1.00  0.00     0.029 A 
HETATM   17  C13 UNL     1      26.895   4.970  48.815  1.00  0.00     0.004 A 
HETATM   18  C14 UNL     1      25.977   5.899  49.265  1.00  0.00     0.019 A 
HETATM   19  C15 UNL     1      25.068   5.616  50.244  1.00  0.00     0.013 A 
HETATM   20 BR1  UNL     1      23.774   6.875  50.903  1.00  0.00    -0.051 Br
HETATM   21  C16 UNL     1      25.012   4.381  50.847  1.00  0.00     0.048 A 
ENDBRANCH  13  15
ENDBRANCH   7  13
BRANCH   1  22
HETATM   22  N1  UNL     1      22.944  -1.053  53.121  1.00  0.00    -0.386 N 
HETATM   23  H6  UNL     1      22.704  -1.158  52.113  1.00  0.00     0.160 HD
BRANCH  22  24
HETATM   24  C3  UNL     1      22.054  -1.483  54.168  1.00  0.00     0.146 C 
BRANCH  24  25
HETATM   25  C2  UNL     1      20.769  -0.790  54.170  1.00  0.00    -0.018 C 
HETATM   26  C1  UNL     1      20.679   0.525  54.320  1.00  0.00     0.008 C 
ENDBRANCH  24  25
ENDBRANCH  22  24
ENDBRANCH   1  22
TORSDOF 5
ENDMDL
MODEL 2
REMARK VINA RESULT:      -7.6      2.134      4.094
REMARK  5 active torsions:
REMARK  status: ('A' for Active; 'I' for Inactive)
REMARK    1  A    between atoms: C2_2  and  C3_3 
REMARK    2  A    between atoms: C3_3  and  N1_4 
REMARK    3  A    between atoms: N1_4  and  C4_5 
REMARK    4  A    between atoms: C10_11  and  N2_12 
REMARK    5  A    between atoms: N2_12  and  C11_13 
ROOT
HETATM    1  C4  UNL     1      26.301  -0.024  54.179  1.00  0.00     0.029 A 
HETATM    2  C5  UNL     1      25.215  -0.686  54.707  1.00  0.00     0.031 A 
HETATM    3  C6  UNL     1      23.985  -0.510  54.097  1.00  0.00     0.033 A 
HETATM    4  C7  UNL     1      23.888   0.313  52.992  1.00  0.00     0.046 A 
HETATM    5  C8  UNL     1      24.935   0.991  52.430  1.00  0.00     0.039 A 
HETATM    6  C9  UNL     1      26.135   0.783  53.073  1.00  0.00     0.046 A 
HETATM    7  C10 UNL     1      24.827   1.845  51.287  1.00  0.00     0.141 A 
HETATM    8  N3  UNL     1      23.780   2.127  50.600  1.00  0.00    -0.224 NA
HETATM    9  P1  UNL     1      22.197   1.405  51.058  1.00  0.00     0.102 P 
HETATM   10  N4  UNL     1      22.559   0.385  52.492  1.00  0.00    -0.348 N 
HETATM   11  H15 UNL     1      21.701   0.637  49.949  1.00  0.00     0.106 HD
HETATM   12  H16 UNL     1      21.680  -0.046  52.774  1.00  0.00     0.166 HD
ENDROOT
BRANCH   7  13
HETATM   13  N2  UNL     1      26.027   2.496  50.850  1.00  0.00    -0.340 N 
HETATM   14  H10 UNL     1      26.996   2.134  50.841  1.00  0.00     0.167 HD
BRANCH  13  15
HETATM   15  C11 UNL     1      25.917   3.846  50.346  1.00  0.00     0.035 A 
HETATM   16  C12 UNL     1      26.890   3.996  49.370  1.00  0.00     0.029 A 
HETATM   17  C13 UNL     1      27.053   5.186  48.689  1.00  0.00     0.004 A 
HETATM   18  C14 UNL     1      26.191   6.208  49.041  1.00  0.00     0.019 A 
HETATM   19  C15 UNL     1      25.233   6.059  50.002  1.00  0.00     0.013 A 
HETATM   20 BR1  UNL     1      24.015   7.450  50.526  1.00  0.00    -0.051 Br
HETATM   21  C16 UNL     1      25.067   4.876  50.684  1.00  0.00     0.048 A 
ENDBRANCH  13  15
ENDBRANCH   7  13
BRANCH   1  22
HETATM   22  N1  UNL     1      27.574  -0.186  54.816  1.00  0.00    -0.386 N 
HETATM   23  H6  UNL     1      27.664  -0.775  55.670  1.00  0.00     0.160 HD
BRANCH  22  24
HETATM   24  C3  UNL     1      28.703   0.493  54.234  1.00  0.00     0.146 C 
BRANCH  24  25
HETATM   25  C2  UNL     1      29.700  -0.407  53.661  1.00  0.00    -0.018 C 
HETATM   26  C1  UNL     1      29.416  -1.664  53.347  1.00  0.00     0.008 C 
ENDBRANCH  24  25
ENDBRANCH  22  24
ENDBRANCH   1  22
TORSDOF 5
ENDMDL
MODEL 3
REMARK VINA RESULT:      -7.5      1.972      2.808
REMARK  5 active torsions:
REMARK  status: ('A' for Active; 'I' for Inactive)
REMARK    1  A    between atoms: C2_2  and  C3_3 
REMARK    2  A    between atoms: C3_3  and  N1_4 
REMARK    3  A    between atoms: N1_4  and  C4_5 
REMARK    4  A    between atoms: C10_11  and  N2_12 
REMARK    5  A    between atoms: N2_12  and  C11_13 
ROOT
HETATM    1  C4  UNL     1      21.838  -0.605  54.387  1.00  0.00     0.029 A 
HETATM    2  C5  UNL     1      22.508  -1.331  55.345  1.00  0.00     0.031 A 
HETATM    3  C6  UNL     1      23.892  -1.356  55.293  1.00  0.00     0.033 A 
HETATM    4  C7  UNL     1      24.546  -0.659  54.296  1.00  0.00     0.046 A 
HETATM    5  C8  UNL     1      23.925   0.076  53.323  1.00  0.00     0.039 A 
HETATM    6  C9  UNL     1      22.552   0.069  53.419  1.00  0.00     0.046 A 
HETATM    7  C10 UNL     1      24.609   0.793  52.290  1.00  0.00     0.141 A 
HETATM    8  N3  UNL     1      25.873   0.882  52.085  1.00  0.00    -0.224 NA
HETATM    9  P1  UNL     1      27.012   0.028  53.185  1.00  0.00     0.102 P 
HETATM   10  N4  UNL     1      25.958  -0.792  54.386  1.00  0.00    -0.348 N 
HETATM   11  H15 UNL     1      27.885   0.996  53.790  1.00  0.00     0.106 HD
HETATM   12  H16 UNL     1      26.576  -1.283  55.032  1.00  0.00     0.166 HD
ENDROOT
BRANCH   7  13
HETATM   13  N2  UNL     1      23.794   1.491  51.340  1.00  0.00    -0.340 N 
HETATM   14  H10 UNL     1      23.036   1.123  50.739  1.00  0.00     0.167 HD
BRANCH  13  15
HETATM   15  C11 UNL     1      24.030   2.905  51.159  1.00  0.00     0.035 A 
HETATM   16  C12 UNL     1      23.316   3.565  52.148  1.00  0.00     0.029 A 
HETATM   17  C13 UNL     1      23.327   4.943  52.250  1.00  0.00     0.004 A 
HETATM   18  C14 UNL     1      24.089   5.612  51.311  1.00  0.00     0.019 A 
HETATM   19  C15 UNL     1      24.792   4.962  50.339  1.00  0.00     0.013 A 
HETATM   20 BR1  UNL     1      25.863   5.850  49.013  1.00  0.00    -0.051 Br
HETATM   21  C16 UNL     1      24.784   3.590  50.232  1.00  0.00     0.048 A 
ENDBRANCH  13  15
ENDBRANCH   7  13
BRANCH   1  22
HETATM   22  N1  UNL     1      20.405  -0.590  54.422  1.00  0.00    -0.386 N 
HETATM   23  H6  UNL     1      19.900  -0.688  55.328  1.00  0.00     0.160 HD
BRANCH  22  24
HETATM   24  C3  UNL     1      19.708  -0.439  53.171  1.00  0.00     0.146 C 
BRANCH  24  25
HETATM   25  C2  UNL     1      18.372  -1.027  53.166  1.00  0.00    -0.018 C 
HETATM   26  C1  UNL     1      18.140  -2.252  53.620  1.00  0.00     0.008 C 
ENDBRANCH  24  25
ENDBRANCH  22  24
ENDBRANCH   1  22
TORSDOF 5
ENDMDL
MODEL 4
REMARK VINA RESULT:      -7.5      3.734      6.284
REMARK  5 active torsions:
REMARK  status: ('A' for Active; 'I' for Inactive)
REMARK    1  A    between atoms: C2_2  and  C3_3 
REMARK    2  A    between atoms: C3_3  and  N1_4 
REMARK    3  A    between atoms: N1_4  and  C4_5 
REMARK    4  A    between atoms: C10_11  and  N2_12 
REMARK    5  A    between atoms: N2_12  and  C11_13 
ROOT
HETATM    1  C4  UNL     1      25.856   0.080  53.543  1.00  0.00     0.029 A 
HETATM    2  C5  UNL     1      26.538   1.138  54.103  1.00  0.00     0.031 A 
HETATM    3  C6  UNL     1      26.020   2.411  53.929  1.00  0.00     0.033 A 
HETATM    4  C7  UNL     1      24.852   2.576  53.211  1.00  0.00     0.046 A 
HETATM    5  C8  UNL     1      24.139   1.558  52.637  1.00  0.00     0.039 A 
HETATM    6  C9  UNL     1      24.694   0.315  52.838  1.00  0.00     0.046 A 
HETATM    7  C10 UNL     1      22.931   1.737  51.891  1.00  0.00     0.141 A 
HETATM    8  N3  UNL     1      22.312   2.830  51.629  1.00  0.00    -0.224 NA
HETATM    9  P1  UNL     1      22.972   4.391  52.231  1.00  0.00     0.102 P 
HETATM   10  N4  UNL     1      24.463   3.940  53.126  1.00  0.00    -0.348 N 
HETATM   11  H15 UNL     1      21.991   5.013  53.078  1.00  0.00     0.106 HD
HETATM   12  H16 UNL     1      24.861   4.806  53.488  1.00  0.00     0.166 HD
ENDROOT
BRANCH   7  13
HETATM   13  N2  UNL     1      22.331   0.558  51.341  1.00  0.00    -0.340 N 
HETATM   14  H10 UNL     1      22.708  -0.094  50.631  1.00  0.00     0.167 HD
BRANCH  13  15
HETATM   15  C11 UNL     1      21.014   0.189  51.810  1.00  0.00     0.035 A 
HETATM   16  C12 UNL     1      21.181  -0.439  53.035  1.00  0.00     0.029 A 
HETATM   17  C13 UNL     1      20.104  -0.920  53.753  1.00  0.00     0.004 A 
HETATM   18  C14 UNL     1      18.861  -0.737  53.175  1.00  0.00     0.019 A 
HETATM   19  C15 UNL     1      18.699  -0.119  51.970  1.00  0.00     0.013 A 
HETATM   20 BR1  UNL     1      16.993   0.157  51.128  1.00  0.00    -0.051 Br
HETATM   21  C16 UNL     1      19.768   0.362  51.250  1.00  0.00     0.048 A 
ENDBRANCH  13  15
ENDBRANCH   7  13
BRANCH   1  22
HETATM   22  N1  UNL     1      26.395  -1.238  53.702  1.00  0.00    -0.386 N 
HETATM   23  H6  UNL     1      26.180  -1.795  54.555  1.00  0.00     0.160 HD
BRANCH  22  24
HETATM   24  C3  UNL     1      27.235  -1.747  52.649  1.00  0.00     0.146 C 
BRANCH  24  25
HETATM   25  C2  UNL     1      28.598  -2.049  53.076  1.00  0.00    -0.018 C 
HETATM   26  C1  UNL     1      29.429  -1.105  53.497  1.00  0.00     0.008 C 
ENDBRANCH  24  25
ENDBRANCH  22  24
ENDBRANCH   1  22
TORSDOF 5
ENDMDL
MODEL 5
REMARK VINA RESULT:      -7.2      3.030      4.709
REMARK  5 active torsions:
REMARK  status: ('A' for Active; 'I' for Inactive)
REMARK    1  A    between atoms: C2_2  and  C3_3 
REMARK    2  A    between atoms: C3_3  and  N1_4 
REMARK    3  A    between atoms: N1_4  and  C4_5 
REMARK    4  A    between atoms: C10_11  and  N2_12 
REMARK    5  A    between atoms: N2_12  and  C11_13 
ROOT
HETATM    1  C4  UNL     1      24.247  -0.760  54.625  1.00  0.00     0.029 A 
HETATM    2  C5  UNL     1      23.235  -1.365  55.335  1.00  0.00     0.031 A 
HETATM    3  C6  UNL     1      21.937  -1.217  54.873  1.00  0.00     0.033 A 
HETATM    4  C7  UNL     1      21.705  -0.478  53.730  1.00  0.00     0.046 A 
HETATM    5  C8  UNL     1      22.676   0.141  52.991  1.00  0.00     0.039 A 
HETATM    6  C9  UNL     1      23.946  -0.036  53.490  1.00  0.00     0.046 A 
HETATM    7  C10 UNL     1      22.427   0.908  51.808  1.00  0.00     0.141 A 
HETATM    8  N3  UNL     1      21.303   1.152  51.239  1.00  0.00    -0.224 NA
HETATM    9  P1  UNL     1      19.788   0.490  51.948  1.00  0.00     0.102 P 
HETATM   10  N4  UNL     1      20.324  -0.424  53.398  1.00  0.00    -0.348 N 
HETATM   11  H15 UNL     1      19.150  -0.352  50.972  1.00  0.00     0.106 HD
HETATM   12  H16 UNL     1      19.486  -0.820  53.821  1.00  0.00     0.166 HD
ENDROOT
BRANCH   7  13
HETATM   13  N2  UNL     1      23.565   1.506  51.175  1.00  0.00    -0.340 N 
HETATM   14  H10 UNL     1      24.425   1.053  50.820  1.00  0.00     0.167 HD
BRANCH  13  15
HETATM   15  C11 UNL     1      23.556   2.939  50.985  1.00  0.00     0.035 A 
HETATM   16  C12 UNL     1      23.577   3.516  52.245  1.00  0.00     0.029 A 
HETATM   17  C13 UNL     1      23.571   4.887  52.413  1.00  0.00     0.004 A 
HETATM   18  C14 UNL     1      23.541   5.637  51.253  1.00  0.00     0.019 A 
HETATM   19  C15 UNL     1      23.521   5.068  50.012  1.00  0.00     0.013 A 
HETATM   20 BR1  UNL     1      23.478   6.071  48.373  1.00  0.00    -0.051 Br
HETATM   21  C16 UNL     1      23.526   3.703  49.840  1.00  0.00     0.048 A 
ENDBRANCH  13  15
ENDBRANCH   7  13
BRANCH   1  22
HETATM   22  N1  UNL     1      25.591  -0.893  55.107  1.00  0.00    -0.386 N 
HETATM   23  H6  UNL     1      25.897  -1.771  55.575  1.00  0.00     0.160 HD
BRANCH  22  24
HETATM   24  C3  UNL     1      26.480   0.225  54.920  1.00  0.00     0.146 C 
BRANCH  24  25
HETATM   25  C2  UNL     1      27.694  -0.106  54.180  1.00  0.00    -0.018 C 
HETATM   26  C1  UNL     1      27.657  -0.570  52.938  1.00  0.00     0.008 C 
ENDBRANCH  24  25
ENDBRANCH  22  24
ENDBRANCH   1  22
TORSDOF 5
ENDMDL
MODEL 6
REMARK VINA RESULT:      -7.2      2.861      4.339
REMARK  5 active torsions:
REMARK  status: ('A' for Active; 'I' for Inactive)
REMARK    1  A    between atoms: C2_2  and  C3_3 
REMARK    2  A    between atoms: C3_3  and  N1_4 
REMARK    3  A    between atoms: N1_4  and  C4_5 
REMARK    4  A    between atoms: C10_11  and  N2_12 
REMARK    5  A    between atoms: N2_12  and  C11_13 
ROOT
HETATM    1  C4  UNL     1      23.857  -0.119  53.523  1.00  0.00     0.029 A 
HETATM    2  C5  UNL     1      22.672  -0.816  53.449  1.00  0.00     0.031 A 
HETATM    3  C6  UNL     1      21.556  -0.153  52.964  1.00  0.00     0.033 A 
HETATM    4  C7  UNL     1      21.668   1.167  52.575  1.00  0.00     0.046 A 
HETATM    5  C8  UNL     1      22.821   1.901  52.630  1.00  0.00     0.039 A 
HETATM    6  C9  UNL     1      23.899   1.198  53.118  1.00  0.00     0.046 A 
HETATM    7  C10 UNL     1      22.928   3.271  52.229  1.00  0.00     0.141 A 
HETATM    8  N3  UNL     1      22.011   4.038  51.762  1.00  0.00    -0.224 NA
HETATM    9  P1  UNL     1      20.343   3.400  51.553  1.00  0.00     0.102 P 
HETATM   10  N4  UNL     1      20.434   1.694  52.107  1.00  0.00    -0.348 N 
HETATM   11  H15 UNL     1      19.976   3.509  50.167  1.00  0.00     0.106 HD
HETATM   12  H16 UNL     1      19.501   1.299  51.994  1.00  0.00     0.166 HD
ENDROOT
BRANCH   7  13
HETATM   13  N2  UNL     1      24.213   3.889  52.379  1.00  0.00    -0.340 N 
HETATM   14  H10 UNL     1      24.728   4.118  53.247  1.00  0.00     0.167 HD
BRANCH  13  15
HETATM   15  C11 UNL     1      24.923   4.267  51.178  1.00  0.00     0.035 A 
HETATM   16  C12 UNL     1      25.758   3.209  50.850  1.00  0.00     0.029 A 
HETATM   17  C13 UNL     1      26.584   3.256  49.744  1.00  0.00     0.004 A 
HETATM   18  C14 UNL     1      26.525   4.416  48.994  1.00  0.00     0.019 A 
HETATM   19  C15 UNL     1      25.703   5.456  49.317  1.00  0.00     0.013 A 
HETATM   20 BR1  UNL     1      25.588   7.086  48.306  1.00  0.00    -0.051 Br
HETATM   21  C16 UNL     1      24.878   5.415  50.418  1.00  0.00     0.048 A 
ENDBRANCH  13  15
ENDBRANCH   7  13
BRANCH   1  22
HETATM   22  N1  UNL     1      25.011  -0.792  54.042  1.00  0.00    -0.386 N 
HETATM   23  H6  UNL     1      24.912  -1.708  54.527  1.00  0.00     0.160 HD
BRANCH  22  24
HETATM   24  C3  UNL     1      26.290  -0.153  53.868  1.00  0.00     0.146 C 
BRANCH  24  25
HETATM   25  C2  UNL     1      27.188  -0.869  52.966  1.00  0.00    -0.018 C 
HETATM   26  C1  UNL     1      26.833  -2.000  52.370  1.00  0.00     0.008 C 
ENDBRANCH  24  25
ENDBRANCH  22  24
ENDBRANCH   1  22
TORSDOF 5
ENDMDL
MODEL 7
REMARK VINA RESULT:      -7.2      3.381      5.138
REMARK  5 active torsions:
REMARK  status: ('A' for Active; 'I' for Inactive)
REMARK    1  A    between atoms: C2_2  and  C3_3 
REMARK    2  A    between atoms: C3_3  and  N1_4 
REMARK    3  A    between atoms: N1_4  and  C4_5 
REMARK    4  A    between atoms: C10_11  and  N2_12 
REMARK    5  A    between atoms: N2_12  and  C11_13 
ROOT
HETATM    1  C4  UNL     1      21.768   0.686  51.685  1.00  0.00     0.029 A 
HETATM    2  C5  UNL     1      21.216   0.922  50.445  1.00  0.00     0.031 A 
HETATM    3  C6  UNL     1      21.880   1.786  49.591  1.00  0.00     0.033 A 
HETATM    4  C7  UNL     1      23.059   2.374  50.004  1.00  0.00     0.046 A 
HETATM    5  C8  UNL     1      23.647   2.171  51.224  1.00  0.00     0.039 A 
HETATM    6  C9  UNL     1      22.948   1.306  52.034  1.00  0.00     0.046 A 
HETATM    7  C10 UNL     1      24.867   2.788  51.646  1.00  0.00     0.141 A 
HETATM    8  N3  UNL     1      25.612   3.608  50.998  1.00  0.00    -0.224 NA
HETATM    9  P1  UNL     1      25.141   4.109  49.336  1.00  0.00     0.102 P 
HETATM   10  N4  UNL     1      23.607   3.232  49.012  1.00  0.00    -0.348 N 
HETATM   11  H15 UNL     1      26.189   3.737  48.425  1.00  0.00     0.106 HD
HETATM   12  H16 UNL     1      23.315   3.490  48.070  1.00  0.00     0.166 HD
ENDROOT
BRANCH   7  13
HETATM   13  N2  UNL     1      25.323   2.478  52.969  1.00  0.00    -0.340 N 
HETATM   14  H10 UNL     1      25.004   2.863  53.875  1.00  0.00     0.167 HD
BRANCH  13  15
HETATM   15  C11 UNL     1      26.377   1.497  53.107  1.00  0.00     0.035 A 
HETATM   16  C12 UNL     1      27.495   2.167  53.580  1.00  0.00     0.029 A 
HETATM   17  C13 UNL     1      28.686   1.508  53.817  1.00  0.00     0.004 A 
HETATM   18  C14 UNL     1      28.688   0.151  53.554  1.00  0.00     0.019 A 
HETATM   19  C15 UNL     1      27.587  -0.507  53.089  1.00  0.00     0.013 A 
HETATM   20 BR1  UNL     1      27.544  -2.390  52.708  1.00  0.00    -0.051 Br
HETATM   21  C16 UNL     1      26.399   0.145  52.850  1.00  0.00     0.048 A 
ENDBRANCH  13  15
ENDBRANCH   7  13
BRANCH   1  22
HETATM   22  N1  UNL     1      21.076  -0.193  52.582  1.00  0.00    -0.386 N 
HETATM   23  H6  UNL     1      20.774  -1.137  52.265  1.00  0.00     0.160 HD
BRANCH  22  24
HETATM   24  C3  UNL     1      20.821   0.283  53.917  1.00  0.00     0.146 C 
BRANCH  24  25
HETATM   25  C2  UNL     1      21.555  -0.440  54.951  1.00  0.00    -0.018 C 
HETATM   26  C1  UNL     1      21.978  -1.684  54.774  1.00  0.00     0.008 C 
ENDBRANCH  24  25
ENDBRANCH  22  24
ENDBRANCH   1  22
TORSDOF 5
ENDMDL
MODEL 8
REMARK VINA RESULT:      -7.2      2.063      2.396
REMARK  5 active torsions:
REMARK  status: ('A' for Active; 'I' for Inactive)
REMARK    1  A    between atoms: C2_2  and  C3_3 
REMARK    2  A    between atoms: C3_3  and  N1_4 
REMARK    3  A    between atoms: N1_4  and  C4_5 
REMARK    4  A    between atoms: C10_11  and  N2_12 
REMARK    5  A    between atoms: N2_12  and  C11_13 
ROOT
HETATM    1  C4  UNL     1      22.977   0.659  52.117  1.00  0.00     0.029 A 
HETATM    2  C5  UNL     1      23.168   0.132  53.375  1.00  0.00     0.031 A 
HETATM    3  C6  UNL     1      24.401   0.317  53.978  1.00  0.00     0.033 A 
HETATM    4  C7  UNL     1      25.385   1.016  53.309  1.00  0.00     0.046 A 
HETATM    5  C8  UNL     1      25.244   1.559  52.060  1.00  0.00     0.039 A 
HETATM    6  C9  UNL     1      24.003   1.348  51.505  1.00  0.00     0.046 A 
HETATM    7  C10 UNL     1      26.270   2.280  51.371  1.00  0.00     0.141 A 
HETATM    8  N3  UNL     1      27.462   2.545  51.768  1.00  0.00    -0.224 NA
HETATM    9  P1  UNL     1      28.005   1.977  53.385  1.00  0.00     0.102 P 
HETATM   10  N4  UNL     1      26.585   1.112  54.065  1.00  0.00    -0.348 N 
HETATM   11  H15 UNL     1      28.382   3.118  54.174  1.00  0.00     0.106 HD
HETATM   12  H16 UNL     1      26.858   0.781  54.990  1.00  0.00     0.166 HD
ENDROOT
BRANCH   7  13
HETATM   13  N2  UNL     1      25.953   2.757  50.057  1.00  0.00    -0.340 N 
HETATM   14  H10 UNL     1      25.739   2.216  49.201  1.00  0.00     0.167 HD
BRANCH  13  15
HETATM   15  C11 UNL     1      25.918   4.188  49.850  1.00  0.00     0.035 A 
HETATM   16  C12 UNL     1      26.979   4.504  49.015  1.00  0.00     0.029 A 
HETATM   17  C13 UNL     1      27.228   5.805  48.624  1.00  0.00     0.004 A 
HETATM   18  C14 UNL     1      26.359   6.761  49.115  1.00  0.00     0.019 A 
HETATM   19  C15 UNL     1      25.314   6.448  49.936  1.00  0.00     0.013 A 
HETATM   20 BR1  UNL     1      24.082   7.743  50.643  1.00  0.00    -0.051 Br
HETATM   21  C16 UNL     1      25.062   5.154  50.329  1.00  0.00     0.048 A 
ENDBRANCH  13  15
ENDBRANCH   7  13
BRANCH   1  22
HETATM   22  N1  UNL     1      21.711   0.455  51.478  1.00  0.00    -0.386 N 
HETATM   23  H6  UNL     1      21.208  -0.450  51.584  1.00  0.00     0.160 HD
BRANCH  22  24
HETATM   24  C3  UNL     1      21.177   1.539  50.695  1.00  0.00     0.146 C 
BRANCH  24  25
HETATM   25  C2  UNL     1      20.937   1.193  49.297  1.00  0.00    -0.018 C 
HETATM   26  C1  UNL     1      21.845   1.407  48.354  1.00  0.00     0.008 C 
ENDBRANCH  24  25
ENDBRANCH  22  24
ENDBRANCH   1  22
TORSDOF 5
ENDMDL
MODEL 9
REMARK VINA RESULT:      -7.0      3.337      6.685
REMARK  5 active torsions:
REMARK  status: ('A' for Active; 'I' for Inactive)
REMARK    1  A    between atoms: C2_2  and  C3_3 
REMARK    2  A    between atoms: C3_3  and  N1_4 
REMARK    3  A    between atoms: N1_4  and  C4_5 
REMARK    4  A    between atoms: C10_11  and  N2_12 
REMARK    5  A    between atoms: N2_12  and  C11_13 
ROOT
HETATM    1  C4  UNL     1      26.383   1.961  53.202  1.00  0.00     0.029 A 
HETATM    2  C5  UNL     1      27.108   2.191  52.055  1.00  0.00     0.031 A 
HETATM    3  C6  UNL     1      26.413   2.496  50.896  1.00  0.00     0.033 A 
HETATM    4  C7  UNL     1      25.034   2.561  50.930  1.00  0.00     0.046 A 
HETATM    5  C8  UNL     1      24.270   2.342  52.044  1.00  0.00     0.039 A 
HETATM    6  C9  UNL     1      25.007   2.042  53.167  1.00  0.00     0.046 A 
HETATM    7  C10 UNL     1      22.841   2.407  52.070  1.00  0.00     0.141 A 
HETATM    8  N3  UNL     1      22.037   2.671  51.105  1.00  0.00    -0.224 NA
HETATM    9  P1  UNL     1      22.700   3.015  49.468  1.00  0.00     0.102 P 
HETATM   10  N4  UNL     1      24.481   2.882  49.660  1.00  0.00    -0.348 N 
HETATM   11  H15 UNL     1      22.287   4.332  49.068  1.00  0.00     0.106 HD
HETATM   12  H16 UNL     1      24.890   3.079  48.748  1.00  0.00     0.166 HD
ENDROOT
BRANCH   7  13
HETATM   13  N2  UNL     1      22.204   2.124  53.323  1.00  0.00    -0.340 N 
HETATM   14  H10 UNL     1      22.228   2.668  54.203  1.00  0.00     0.167 HD
BRANCH  13  15
HETATM   15  C11 UNL     1      21.410   0.921  53.418  1.00  0.00     0.035 A 
HETATM   16  C12 UNL     1      22.191  -0.033  54.052  1.00  0.00     0.029 A 
HETATM   17  C13 UNL     1      21.720  -1.308  54.296  1.00  0.00     0.004 A 
HETATM   18  C14 UNL     1      20.432  -1.569  53.870  1.00  0.00     0.019 A 
HETATM   19  C15 UNL     1      19.663  -0.629  53.246  1.00  0.00     0.013 A 
HETATM   20 BR1  UNL     1      17.868  -0.945  52.636  1.00  0.00    -0.051 Br
HETATM   21  C16 UNL     1      20.127   0.643  53.000  1.00  0.00     0.048 A 
ENDBRANCH  13  15
ENDBRANCH   7  13
BRANCH   1  22
HETATM   22  N1  UNL     1      27.094   1.626  54.401  1.00  0.00    -0.386 N 
HETATM   23  H6  UNL     1      27.203   2.328  55.162  1.00  0.00     0.160 HD
BRANCH  22  24
HETATM   24  C3  UNL     1      27.642   0.298  54.502  1.00  0.00     0.146 C 
BRANCH  24  25
HETATM   25  C2  UNL     1      29.081   0.235  54.263  1.00  0.00    -0.018 C 
HETATM   26  C1  UNL     1      29.661  -0.835  53.737  1.00  0.00     0.008 C 
ENDBRANCH  24  25
ENDBRANCH  22  24
ENDBRANCH   1  22
TORSDOF 5
ENDMDL
