MODEL 1
REMARK VINA RESULT:      -7.8      0.000      0.000
REMARK  7 active torsions:
REMARK  status: ('A' for Active; 'I' for Inactive)
REMARK    1  A    between atoms: C2_2  and  O1_3 
REMARK    2  A    between atoms: O1_3  and  C3_4 
REMARK    3  A    between atoms: C3_4  and  C4_5 
REMARK    4  A    between atoms: C4_5  and  C5_6 
REMARK    5  A    between atoms: C10_13  and  O3_14 
REMARK    6  A    between atoms: C15_20  and  S1_23 
REMARK    7  A    between atoms: S1_23  and  C17_24 
ROOT
HETATM    1  C5  UNL     1      23.335   4.393  48.767  1.00  0.00     0.042 C 
HETATM    2  C6  UNL     1      22.787   5.394  47.827  1.00  0.00    -0.012 C 
HETATM    3  C7  UNL     1      23.437   6.461  47.383  1.00  0.00     0.071 C 
HETATM    4  C8  UNL     1      24.754   6.491  47.959  1.00  0.00     0.241 C 
HETATM    5  O2  UNL     1      25.283   7.603  47.776  1.00  0.00    -0.269 OA
HETATM    6  N1  UNL     1      25.960   6.197  48.611  1.00  0.00    -0.351 N 
HETATM    7  C9  UNL     1      26.960   7.216  48.885  1.00  0.00     0.187 C 
HETATM    8  C10 UNL     1      26.160   8.024  49.966  1.00  0.00     0.065 C 
HETATM    9  C12 UNL     1      24.957   7.937  50.581  1.00  0.00     0.065 C 
HETATM   10  C13 UNL     1      23.818   7.051  50.537  1.00  0.00     0.053 C 
HETATM   11  N2  UNL     1      22.568   7.189  50.553  1.00  0.00    -0.287 NA
HETATM   12  C14 UNL     1      21.739   6.407  51.521  1.00  0.00     0.190 C 
HETATM   13  C15 UNL     1      22.139   4.918  51.461  1.00  0.00     0.143 C 
HETATM   14  C16 UNL     1      20.922   4.139  51.715  1.00  0.00     0.087 C 
HETATM   15  N3  UNL     1      19.977   3.534  51.926  1.00  0.00    -0.195 NA
HETATM   16  C24 UNL     1      22.698   4.616  50.121  1.00  0.00    -0.035 C 
HETATM   17  C25 UNL     1      23.533   5.664  50.310  1.00  0.00     0.037 C 
HETATM   18  H13 UNL     1      26.328   5.301  48.960  1.00  0.00     0.163 HD
ENDROOT
BRANCH  13  19
HETATM   19  S1  UNL     1      23.402   4.618  52.701  1.00  0.00    -0.098 SA
BRANCH  19  20
HETATM   20  C17 UNL     1      24.225   3.067  52.490  1.00  0.00     0.003 A 
HETATM   21  C18 UNL     1      25.426   2.946  51.824  1.00  0.00     0.021 A 
HETATM   22  C19 UNL     1      26.089   1.760  51.644  1.00  0.00     0.044 A 
HETATM   23  C20 UNL     1      25.507   0.618  52.166  1.00  0.00     0.122 A 
HETATM   24  F1  UNL     1      26.164  -0.559  51.988  1.00  0.00    -0.206 F 
HETATM   25  C21 UNL     1      24.307   0.715  52.835  1.00  0.00    -0.022 A 
HETATM   26  C22 UNL     1      23.706  -0.533  53.386  1.00  0.00     0.051 C 
HETATM   27  C23 UNL     1      23.664   1.909  53.003  1.00  0.00     0.028 A 
ENDBRANCH  19  20
ENDBRANCH  13  19
BRANCH   1  28
HETATM   28  C4  UNL     1      22.774   3.033  48.292  1.00  0.00     0.039 C 
BRANCH  28  29
HETATM   29  C3  UNL     1      21.288   3.119  48.101  1.00  0.00     0.168 C 
BRANCH  29  30
HETATM   30  O1  UNL     1      20.649   2.108  48.779  1.00  0.00    -0.391 OA
BRANCH  30  31
HETATM   31  C2  UNL     1      21.497   1.049  49.091  1.00  0.00     0.163 C 
HETATM   32  C1  UNL     1      21.281   0.527  50.486  1.00  0.00     0.033 C 
ENDBRANCH  30  31
ENDBRANCH  29  30
ENDBRANCH  28  29
ENDBRANCH   1  28
BRANCH   8  33
HETATM   33  O3  UNL     1      26.994   9.074  50.305  1.00  0.00    -0.358 OA
HETATM   34  C11 UNL     1      28.189   9.187  49.530  1.00  0.00     0.209 C 
ENDBRANCH   8  33
TORSDOF 7
ENDMDL
MODEL 2
REMARK VINA RESULT:      -7.7      2.839      4.173
REMARK  7 active torsions:
REMARK  status: ('A' for Active; 'I' for Inactive)
REMARK    1  A    between atoms: C2_2  and  O1_3 
REMARK    2  A    between atoms: O1_3  and  C3_4 
REMARK    3  A    between atoms: C3_4  and  C4_5 
REMARK    4  A    between atoms: C4_5  and  C5_6 
REMARK    5  A    between atoms: C10_13  and  O3_14 
REMARK    6  A    between atoms: C15_20  and  S1_23 
REMARK    7  A    between atoms: S1_23  and  C17_24 
ROOT
HETATM    1  C5  UNL     1      21.874   1.923  50.752  1.00  0.00     0.042 C 
HETATM    2  C6  UNL     1      21.005   2.927  51.401  1.00  0.00    -0.012 C 
HETATM    3  C7  UNL     1      20.907   4.199  51.040  1.00  0.00     0.071 C 
HETATM    4  C8  UNL     1      21.778   4.447  49.924  1.00  0.00     0.241 C 
HETATM    5  O2  UNL     1      21.908   5.671  49.738  1.00  0.00    -0.269 OA
HETATM    6  N1  UNL     1      22.642   4.345  48.824  1.00  0.00    -0.351 N 
HETATM    7  C9  UNL     1      23.308   5.503  48.253  1.00  0.00     0.187 C 
HETATM    8  C10 UNL     1      24.283   5.808  49.444  1.00  0.00     0.065 C 
HETATM    9  C12 UNL     1      24.571   5.269  50.652  1.00  0.00     0.065 C 
HETATM   10  C13 UNL     1      24.114   4.147  51.436  1.00  0.00     0.053 C 
HETATM   11  N2  UNL     1      23.853   3.943  52.649  1.00  0.00    -0.287 NA
HETATM   12  C14 UNL     1      24.456   2.772  53.360  1.00  0.00     0.190 C 
HETATM   13  C15 UNL     1      24.254   1.495  52.518  1.00  0.00     0.143 C 
HETATM   14  C16 UNL     1      24.081   0.386  53.463  1.00  0.00     0.087 C 
HETATM   15  N3  UNL     1      23.960  -0.480  54.197  1.00  0.00    -0.195 NA
HETATM   16  C24 UNL     1      23.056   1.659  51.660  1.00  0.00    -0.035 C 
HETATM   17  C25 UNL     1      23.605   2.821  51.236  1.00  0.00     0.037 C 
HETATM   18  H13 UNL     1      22.919   3.523  48.269  1.00  0.00     0.163 HD
ENDROOT
BRANCH  13  19
HETATM   19  S1  UNL     1      25.694   1.270  51.470  1.00  0.00    -0.098 SA
BRANCH  19  20
HETATM   20  C17 UNL     1      27.079   0.590  52.333  1.00  0.00     0.003 A 
HETATM   21  C18 UNL     1      28.007   1.374  52.984  1.00  0.00     0.021 A 
HETATM   22  C19 UNL     1      29.091   0.880  53.662  1.00  0.00     0.044 A 
HETATM   23  C20 UNL     1      29.256  -0.494  53.686  1.00  0.00     0.122 A 
HETATM   24  F1  UNL     1      30.331  -0.986  54.358  1.00  0.00    -0.206 F 
HETATM   25  C21 UNL     1      28.341  -1.297  53.042  1.00  0.00    -0.022 A 
HETATM   26  C22 UNL     1      28.545  -2.774  53.086  1.00  0.00     0.051 C 
HETATM   27  C23 UNL     1      27.267  -0.782  52.372  1.00  0.00     0.028 A 
ENDBRANCH  19  20
ENDBRANCH  13  19
BRANCH   1  28
HETATM   28  C4  UNL     1      21.066   0.605  50.773  1.00  0.00     0.039 C 
BRANCH  28  29
HETATM   29  C3  UNL     1      19.910   0.716  51.723  1.00  0.00     0.168 C 
BRANCH  29  30
HETATM   30  O1  UNL     1      19.663  -0.490  52.335  1.00  0.00    -0.391 OA
BRANCH  30  31
HETATM   31  C2  UNL     1      20.396  -0.660  53.506  1.00  0.00     0.163 C 
HETATM   32  C1  UNL     1      20.499   0.605  54.313  1.00  0.00     0.033 C 
ENDBRANCH  30  31
ENDBRANCH  29  30
ENDBRANCH  28  29
ENDBRANCH   1  28
BRANCH   8  33
HETATM   33  O3  UNL     1      24.976   6.937  49.048  1.00  0.00    -0.358 OA
HETATM   34  C11 UNL     1      25.806   7.533  50.046  1.00  0.00     0.209 C 
ENDBRANCH   8  33
TORSDOF 7
ENDMDL
MODEL 3
REMARK VINA RESULT:      -7.6      3.661      7.283
REMARK  7 active torsions:
REMARK  status: ('A' for Active; 'I' for Inactive)
REMARK    1  A    between atoms: C2_2  and  O1_3 
REMARK    2  A    between atoms: O1_3  and  C3_4 
REMARK    3  A    between atoms: C3_4  and  C4_5 
REMARK    4  A    between atoms: C4_5  and  C5_6 
REMARK    5  A    between atoms: C10_13  and  O3_14 
REMARK    6  A    between atoms: C15_20  and  S1_23 
REMARK    7  A    between atoms: S1_23  and  C17_24 
ROOT
HETATM    1  C5  UNL     1      23.806  -0.013  52.558  1.00  0.00     0.042 C 
HETATM    2  C6  UNL     1      23.091   0.289  53.815  1.00  0.00    -0.012 C 
HETATM    3  C7  UNL     1      21.792   0.535  53.915  1.00  0.00     0.071 C 
HETATM    4  C8  UNL     1      21.191   0.462  52.611  1.00  0.00     0.241 C 
HETATM    5  O2  UNL     1      20.044   0.944  52.634  1.00  0.00    -0.269 OA
HETATM    6  N1  UNL     1      20.907   0.248  51.255  1.00  0.00    -0.351 N 
HETATM    7  C9  UNL     1      19.717   0.788  50.618  1.00  0.00     0.187 C 
HETATM    8  C10 UNL     1      20.113   2.306  50.663  1.00  0.00     0.065 C 
HETATM    9  C12 UNL     1      21.169   3.043  51.081  1.00  0.00     0.065 C 
HETATM   10  C13 UNL     1      22.450   2.788  51.695  1.00  0.00     0.053 C 
HETATM   11  N2  UNL     1      23.138   3.326  52.600  1.00  0.00    -0.287 NA
HETATM   12  C14 UNL     1      24.572   3.669  52.348  1.00  0.00     0.190 C 
HETATM   13  C15 UNL     1      25.297   2.451  51.739  1.00  0.00     0.143 C 
HETATM   14  C16 UNL     1      26.677   2.484  52.237  1.00  0.00     0.087 C 
HETATM   15  N3  UNL     1      27.754   2.518  52.613  1.00  0.00    -0.195 NA
HETATM   16  C24 UNL     1      24.605   1.209  52.161  1.00  0.00    -0.035 C 
HETATM   17  C25 UNL     1      23.463   1.773  51.705  1.00  0.00     0.037 C 
HETATM   18  H13 UNL     1      21.423  -0.289  50.543  1.00  0.00     0.163 HD
ENDROOT
BRANCH  13  19
HETATM   19  S1  UNL     1      25.222   2.580  49.950  1.00  0.00    -0.098 SA
BRANCH  19  20
HETATM   20  C17 UNL     1      25.829   4.125  49.341  1.00  0.00     0.003 A 
HETATM   21  C18 UNL     1      25.014   5.219  49.147  1.00  0.00     0.021 A 
HETATM   22  C19 UNL     1      25.451   6.430  48.677  1.00  0.00     0.044 A 
HETATM   23  C20 UNL     1      26.798   6.551  48.380  1.00  0.00     0.122 A 
HETATM   24  F1  UNL     1      27.234   7.752  47.914  1.00  0.00    -0.206 F 
HETATM   25  C21 UNL     1      27.631   5.470  48.566  1.00  0.00    -0.022 A 
HETATM   26  C22 UNL     1      29.077   5.631  48.239  1.00  0.00     0.051 C 
HETATM   27  C23 UNL     1      27.172   4.272  49.037  1.00  0.00     0.028 A 
ENDBRANCH  19  20
ENDBRANCH  13  19
BRANCH   1  28
HETATM   28  C4  UNL     1      24.871  -1.069  52.934  1.00  0.00     0.039 C 
BRANCH  28  29
HETATM   29  C3  UNL     1      25.379  -0.826  54.325  1.00  0.00     0.168 C 
BRANCH  29  30
HETATM   30  O1  UNL     1      26.720  -0.524  54.310  1.00  0.00    -0.391 OA
BRANCH  30  31
HETATM   31  C2  UNL     1      27.384  -1.077  53.219  1.00  0.00     0.163 C 
HETATM   32  C1  UNL     1      28.877  -0.910  53.304  1.00  0.00     0.033 C 
ENDBRANCH  30  31
ENDBRANCH  29  30
ENDBRANCH  28  29
ENDBRANCH   1  28
BRANCH   8  33
HETATM   33  O3  UNL     1      19.032   2.965  50.108  1.00  0.00    -0.358 OA
HETATM   34  C11 UNL     1      18.412   3.945  50.942  1.00  0.00     0.209 C 
ENDBRANCH   8  33
TORSDOF 7
ENDMDL
MODEL 4
REMARK VINA RESULT:      -7.4      3.302      5.966
REMARK  7 active torsions:
REMARK  status: ('A' for Active; 'I' for Inactive)
REMARK    1  A    between atoms: C2_2  and  O1_3 
REMARK    2  A    between atoms: O1_3  and  C3_4 
REMARK    3  A    between atoms: C3_4  and  C4_5 
REMARK    4  A    between atoms: C4_5  and  C5_6 
REMARK    5  A    between atoms: C10_13  and  O3_14 
REMARK    6  A    between atoms: C15_20  and  S1_23 
REMARK    7  A    between atoms: S1_23  and  C17_24 
ROOT
HETATM    1  C5  UNL     1      22.252   3.217  52.217  1.00  0.00     0.042 C 
HETATM    2  C6  UNL     1      22.193   1.808  51.774  1.00  0.00    -0.012 C 
HETATM    3  C7  UNL     1      23.113   0.888  52.029  1.00  0.00     0.071 C 
HETATM    4  C8  UNL     1      24.174   1.475  52.800  1.00  0.00     0.241 C 
HETATM    5  O2  UNL     1      25.162   0.719  52.825  1.00  0.00    -0.269 OA
HETATM    6  N1  UNL     1      24.983   2.305  53.589  1.00  0.00    -0.351 N 
HETATM    7  C9  UNL     1      26.389   2.020  53.823  1.00  0.00     0.187 C 
HETATM    8  C10 UNL     1      26.913   2.291  52.369  1.00  0.00     0.065 C 
HETATM    9  C12 UNL     1      26.392   2.691  51.185  1.00  0.00     0.065 C 
HETATM   10  C13 UNL     1      25.090   3.061  50.683  1.00  0.00     0.053 C 
HETATM   11  N2  UNL     1      24.436   2.846  49.631  1.00  0.00    -0.287 NA
HETATM   12  C14 UNL     1      23.824   3.987  48.882  1.00  0.00     0.190 C 
HETATM   13  C15 UNL     1      23.038   4.886  49.859  1.00  0.00     0.143 C 
HETATM   14  C16 UNL     1      21.888   5.417  49.117  1.00  0.00     0.087 C 
HETATM   15  N3  UNL     1      21.002   5.841  48.537  1.00  0.00    -0.195 NA
HETATM   16  C24 UNL     1      22.598   4.077  51.021  1.00  0.00    -0.035 C 
HETATM   17  C25 UNL     1      23.887   3.688  51.150  1.00  0.00     0.037 C 
HETATM   18  H13 UNL     1      24.751   3.165  54.107  1.00  0.00     0.163 HD
ENDROOT
BRANCH  13  19
HETATM   19  S1  UNL     1      24.129   6.190  50.436  1.00  0.00    -0.098 SA
BRANCH  19  20
HETATM   20  C17 UNL     1      25.357   6.642  49.248  1.00  0.00     0.003 A 
HETATM   21  C18 UNL     1      25.165   7.647  48.324  1.00  0.00     0.021 A 
HETATM   22  C19 UNL     1      26.095   8.022  47.391  1.00  0.00     0.044 A 
HETATM   23  C20 UNL     1      27.300   7.341  47.382  1.00  0.00     0.122 A 
HETATM   24  F1  UNL     1      28.225   7.712  46.456  1.00  0.00    -0.206 F 
HETATM   25  C21 UNL     1      27.515   6.332  48.295  1.00  0.00    -0.022 A 
HETATM   26  C22 UNL     1      28.823   5.618  48.261  1.00  0.00     0.051 C 
HETATM   27  C23 UNL     1      26.572   5.976  49.218  1.00  0.00     0.028 A 
ENDBRANCH  19  20
ENDBRANCH  13  19
BRANCH   1  28
HETATM   28  C4  UNL     1      20.795   3.601  52.564  1.00  0.00     0.039 C 
BRANCH  28  29
HETATM   29  C3  UNL     1      19.871   3.200  51.452  1.00  0.00     0.168 C 
BRANCH  29  30
HETATM   30  O1  UNL     1      18.633   2.861  51.945  1.00  0.00    -0.391 OA
BRANCH  30  31
HETATM   31  C2  UNL     1      18.114   1.711  51.357  1.00  0.00     0.163 C 
HETATM   32  C1  UNL     1      18.790   0.458  51.843  1.00  0.00     0.033 C 
ENDBRANCH  30  31
ENDBRANCH  29  30
ENDBRANCH  28  29
ENDBRANCH   1  28
BRANCH   8  33
HETATM   33  O3  UNL     1      28.268   2.020  52.430  1.00  0.00    -0.358 OA
HETATM   34  C11 UNL     1      28.713   1.368  53.621  1.00  0.00     0.209 C 
ENDBRANCH   8  33
TORSDOF 7
ENDMDL
MODEL 5
REMARK VINA RESULT:      -7.2      3.626      5.911
REMARK  7 active torsions:
REMARK  status: ('A' for Active; 'I' for Inactive)
REMARK    1  A    between atoms: C2_2  and  O1_3 
REMARK    2  A    between atoms: O1_3  and  C3_4 
REMARK    3  A    between atoms: C3_4  and  C4_5 
REMARK    4  A    between atoms: C4_5  and  C5_6 
REMARK    5  A    between atoms: C10_13  and  O3_14 
REMARK    6  A    between atoms: C15_20  and  S1_23 
REMARK    7  A    between atoms: S1_23  and  C17_24 
ROOT
HETATM    1  C5  UNL     1      24.435   2.942  52.579  1.00  0.00     0.042 C 
HETATM    2  C6  UNL     1      25.328   2.877  51.402  1.00  0.00    -0.012 C 
HETATM    3  C7  UNL     1      25.352   3.757  50.411  1.00  0.00     0.071 C 
HETATM    4  C8  UNL     1      24.375   4.782  50.660  1.00  0.00     0.241 C 
HETATM    5  O2  UNL     1      24.190   5.463  49.635  1.00  0.00    -0.269 OA
HETATM    6  N1  UNL     1      23.416   5.641  51.217  1.00  0.00    -0.351 N 
HETATM    7  C9  UNL     1      22.665   6.588  50.411  1.00  0.00     0.187 C 
HETATM    8  C10 UNL     1      21.795   5.556  49.611  1.00  0.00     0.065 C 
HETATM    9  C12 UNL     1      21.636   4.212  49.572  1.00  0.00     0.065 C 
HETATM   10  C13 UNL     1      22.198   3.069  50.252  1.00  0.00     0.053 C 
HETATM   11  N2  UNL     1      22.576   1.918  49.915  1.00  0.00    -0.287 NA
HETATM   12  C14 UNL     1      22.078   0.718  50.658  1.00  0.00     0.190 C 
HETATM   13  C15 UNL     1      22.243   0.944  52.175  1.00  0.00     0.143 C 
HETATM   14  C16 UNL     1      22.537  -0.365  52.770  1.00  0.00     0.087 C 
HETATM   15  N3  UNL     1      22.751  -1.386  53.235  1.00  0.00    -0.195 NA
HETATM   16  C24 UNL     1      23.351   1.900  52.411  1.00  0.00    -0.035 C 
HETATM   17  C25 UNL     1      22.729   2.728  51.540  1.00  0.00     0.037 C 
HETATM   18  H13 UNL     1      23.116   5.759  52.195  1.00  0.00     0.163 HD
ENDROOT
BRANCH  13  19
HETATM   19  S1  UNL     1      20.720   1.648  52.814  1.00  0.00    -0.098 SA
BRANCH  19  20
HETATM   20  C17 UNL     1      19.303   0.643  52.490  1.00  0.00     0.003 A 
HETATM   21  C18 UNL     1      18.351   0.980  51.552  1.00  0.00     0.021 A 
HETATM   22  C19 UNL     1      17.241   0.224  51.277  1.00  0.00     0.044 A 
HETATM   23  C20 UNL     1      17.074  -0.949  51.992  1.00  0.00     0.122 A 
HETATM   24  F1  UNL     1      15.974  -1.701  51.720  1.00  0.00    -0.206 F 
HETATM   25  C21 UNL     1      18.013  -1.306  52.935  1.00  0.00    -0.022 A 
HETATM   26  C22 UNL     1      17.806  -2.576  53.690  1.00  0.00     0.051 C 
HETATM   27  C23 UNL     1      19.112  -0.536  53.193  1.00  0.00     0.028 A 
ENDBRANCH  19  20
ENDBRANCH  13  19
BRANCH   1  28
HETATM   28  C4  UNL     1      25.283   2.434  53.767  1.00  0.00     0.039 C 
BRANCH  28  29
HETATM   29  C3  UNL     1      26.639   2.000  53.294  1.00  0.00     0.168 C 
BRANCH  29  30
HETATM   30  O1  UNL     1      27.084   0.918  54.015  1.00  0.00    -0.391 OA
BRANCH  30  31
HETATM   31  C2  UNL     1      26.307  -0.220  53.814  1.00  0.00     0.163 C 
HETATM   32  C1  UNL     1      26.438  -0.772  52.421  1.00  0.00     0.033 C 
ENDBRANCH  30  31
ENDBRANCH  29  30
ENDBRANCH  28  29
ENDBRANCH   1  28
BRANCH   8  33
HETATM   33  O3  UNL     1      21.033   6.331  48.756  1.00  0.00    -0.358 OA
HETATM   34  C11 UNL     1      21.422   7.702  48.654  1.00  0.00     0.209 C 
ENDBRANCH   8  33
TORSDOF 7
ENDMDL
MODEL 6
REMARK VINA RESULT:      -7.2      3.437      5.860
REMARK  7 active torsions:
REMARK  status: ('A' for Active; 'I' for Inactive)
REMARK    1  A    between atoms: C2_2  and  O1_3 
REMARK    2  A    between atoms: O1_3  and  C3_4 
REMARK    3  A    between atoms: C3_4  and  C4_5 
REMARK    4  A    between atoms: C4_5  and  C5_6 
REMARK    5  A    between atoms: C10_13  and  O3_14 
REMARK    6  A    between atoms: C15_20  and  S1_23 
REMARK    7  A    between atoms: S1_23  and  C17_24 
ROOT
HETATM    1  C5  UNL     1      25.223   2.852  52.176  1.00  0.00     0.042 C 
HETATM    2  C6  UNL     1      25.946   2.138  51.102  1.00  0.00    -0.012 C 
HETATM    3  C7  UNL     1      26.462   2.706  50.021  1.00  0.00     0.071 C 
HETATM    4  C8  UNL     1      26.209   4.120  50.058  1.00  0.00     0.241 C 
HETATM    5  O2  UNL     1      26.442   4.632  48.947  1.00  0.00    -0.269 OA
HETATM    6  N1  UNL     1      25.876   5.433  50.420  1.00  0.00    -0.351 N 
HETATM    7  C9  UNL     1      25.781   6.505  49.444  1.00  0.00     0.187 C 
HETATM    8  C10 UNL     1      24.495   6.007  48.694  1.00  0.00     0.065 C 
HETATM    9  C12 UNL     1      23.623   4.977  48.799  1.00  0.00     0.065 C 
HETATM   10  C13 UNL     1      23.454   3.828  49.656  1.00  0.00     0.053 C 
HETATM   11  N2  UNL     1      23.139   2.622  49.492  1.00  0.00    -0.287 NA
HETATM   12  C14 UNL     1      22.054   2.011  50.321  1.00  0.00     0.190 C 
HETATM   13  C15 UNL     1      22.297   2.333  51.811  1.00  0.00     0.143 C 
HETATM   14  C16 UNL     1      21.814   1.179  52.579  1.00  0.00     0.087 C 
HETATM   15  N3  UNL     1      21.425   0.288  53.178  1.00  0.00    -0.195 NA
HETATM   16  C24 UNL     1      23.746   2.555  52.033  1.00  0.00    -0.035 C 
HETATM   17  C25 UNL     1      23.693   3.448  51.018  1.00  0.00     0.037 C 
HETATM   18  H13 UNL     1      25.679   5.839  51.346  1.00  0.00     0.163 HD
ENDROOT
BRANCH  13  19
HETATM   19  S1  UNL     1      21.407   3.837  52.221  1.00  0.00    -0.098 SA
BRANCH  19  20
HETATM   20  C17 UNL     1      19.926   4.044  51.280  1.00  0.00     0.003 A 
HETATM   21  C18 UNL     1      18.775   3.330  51.537  1.00  0.00     0.021 A 
HETATM   22  C19 UNL     1      17.610   3.467  50.827  1.00  0.00     0.044 A 
HETATM   23  C20 UNL     1      17.600   4.381  49.788  1.00  0.00     0.122 A 
HETATM   24  F1  UNL     1      16.445   4.518  49.083  1.00  0.00    -0.206 F 
HETATM   25  C21 UNL     1      18.738   5.106  49.513  1.00  0.00    -0.022 A 
HETATM   26  C22 UNL     1      18.696   6.084  48.388  1.00  0.00     0.051 C 
HETATM   27  C23 UNL     1      19.889   4.953  50.235  1.00  0.00     0.028 A 
ENDBRANCH  19  20
ENDBRANCH  13  19
BRANCH   1  28
HETATM   28  C4  UNL     1      25.636   2.147  53.488  1.00  0.00     0.039 C 
BRANCH  28  29
HETATM   29  C3  UNL     1      27.127   1.985  53.547  1.00  0.00     0.168 C 
BRANCH  29  30
HETATM   30  O1  UNL     1      27.499   1.303  54.681  1.00  0.00    -0.391 OA
BRANCH  30  31
HETATM   31  C2  UNL     1      28.648   0.539  54.499  1.00  0.00     0.163 C 
HETATM   32  C1  UNL     1      28.496  -0.482  53.404  1.00  0.00     0.033 C 
ENDBRANCH  30  31
ENDBRANCH  29  30
ENDBRANCH  28  29
ENDBRANCH   1  28
BRANCH   8  33
HETATM   33  O3  UNL     1      24.297   6.935  47.688  1.00  0.00    -0.358 OA
HETATM   34  C11 UNL     1      25.443   7.707  47.326  1.00  0.00     0.209 C 
ENDBRANCH   8  33
TORSDOF 7
ENDMDL
MODEL 7
REMARK VINA RESULT:      -7.2      6.530     10.648
REMARK  7 active torsions:
REMARK  status: ('A' for Active; 'I' for Inactive)
REMARK    1  A    between atoms: C2_2  and  O1_3 
REMARK    2  A    between atoms: O1_3  and  C3_4 
REMARK    3  A    between atoms: C3_4  and  C4_5 
REMARK    4  A    between atoms: C4_5  and  C5_6 
REMARK    5  A    between atoms: C10_13  and  O3_14 
REMARK    6  A    between atoms: C15_20  and  S1_23 
REMARK    7  A    between atoms: S1_23  and  C17_24 
ROOT
HETATM    1  C5  UNL     1      34.051   8.077  47.304  1.00  0.00     0.042 C 
HETATM    2  C6  UNL     1      34.911   7.701  48.446  1.00  0.00    -0.012 C 
HETATM    3  C7  UNL     1      35.436   6.500  48.644  1.00  0.00     0.071 C 
HETATM    4  C8  UNL     1      35.038   5.623  47.577  1.00  0.00     0.241 C 
HETATM    5  O2  UNL     1      35.289   4.440  47.871  1.00  0.00    -0.269 OA
HETATM    6  N1  UNL     1      34.550   5.062  46.388  1.00  0.00    -0.351 N 
HETATM    7  C9  UNL     1      34.409   3.627  46.209  1.00  0.00     0.187 C 
HETATM    8  C10 UNL     1      33.233   3.394  47.221  1.00  0.00     0.065 C 
HETATM    9  C12 UNL     1      32.465   4.149  48.041  1.00  0.00     0.065 C 
HETATM   10  C13 UNL     1      32.359   5.547  48.386  1.00  0.00     0.053 C 
HETATM   11  N2  UNL     1      32.180   6.202  49.445  1.00  0.00    -0.287 NA
HETATM   12  C14 UNL     1      31.111   7.247  49.509  1.00  0.00     0.190 C 
HETATM   13  C15 UNL     1      31.223   8.177  48.283  1.00  0.00     0.143 C 
HETATM   14  C16 UNL     1      30.811   9.514  48.725  1.00  0.00     0.087 C 
HETATM   15  N3  UNL     1      30.477  10.552  49.065  1.00  0.00    -0.195 NA
HETATM   16  C24 UNL     1      32.624   8.181  47.798  1.00  0.00    -0.035 C 
HETATM   17  C25 UNL     1      32.547   6.831  47.775  1.00  0.00     0.037 C 
HETATM   18  H13 UNL     1      34.252   5.514  45.512  1.00  0.00     0.163 HD
ENDROOT
BRANCH  13  19
HETATM   19  S1  UNL     1      30.160   7.539  46.985  1.00  0.00    -0.098 SA
BRANCH  19  20
HETATM   20  C17 UNL     1      28.565   7.052  47.572  1.00  0.00     0.003 A 
HETATM   21  C18 UNL     1      27.454   7.861  47.466  1.00  0.00     0.021 A 
HETATM   22  C19 UNL     1      26.205   7.514  47.911  1.00  0.00     0.044 A 
HETATM   23  C20 UNL     1      26.061   6.272  48.503  1.00  0.00     0.122 A 
HETATM   24  F1  UNL     1      24.822   5.926  48.945  1.00  0.00    -0.206 F 
HETATM   25  C21 UNL     1      27.157   5.447  48.620  1.00  0.00    -0.022 A 
HETATM   26  C22 UNL     1      26.970   4.114  49.263  1.00  0.00     0.051 C 
HETATM   27  C23 UNL     1      28.394   5.814  48.169  1.00  0.00     0.028 A 
ENDBRANCH  19  20
ENDBRANCH  13  19
BRANCH   1  28
HETATM   28  C4  UNL     1      34.447   9.528  46.951  1.00  0.00     0.039 C 
BRANCH  28  29
HETATM   29  C3  UNL     1      33.552  10.067  45.873  1.00  0.00     0.168 C 
BRANCH  29  30
HETATM   30  O1  UNL     1      33.716   9.361  44.705  1.00  0.00    -0.391 OA
BRANCH  30  31
HETATM   31  C2  UNL     1      34.651   9.941  43.852  1.00  0.00     0.163 C 
HETATM   32  C1  UNL     1      35.741   8.985  43.452  1.00  0.00     0.033 C 
ENDBRANCH  30  31
ENDBRANCH  29  30
ENDBRANCH  28  29
ENDBRANCH   1  28
BRANCH   8  33
HETATM   33  O3  UNL     1      33.006   2.030  47.184  1.00  0.00    -0.358 OA
HETATM   34  C11 UNL     1      31.783   1.624  46.568  1.00  0.00     0.209 C 
ENDBRANCH   8  33
TORSDOF 7
ENDMDL
MODEL 8
REMARK VINA RESULT:      -7.2      3.725      6.667
REMARK  7 active torsions:
REMARK  status: ('A' for Active; 'I' for Inactive)
REMARK    1  A    between atoms: C2_2  and  O1_3 
REMARK    2  A    between atoms: O1_3  and  C3_4 
REMARK    3  A    between atoms: C3_4  and  C4_5 
REMARK    4  A    between atoms: C4_5  and  C5_6 
REMARK    5  A    between atoms: C10_13  and  O3_14 
REMARK    6  A    between atoms: C15_20  and  S1_23 
REMARK    7  A    between atoms: S1_23  and  C17_24 
ROOT
HETATM    1  C5  UNL     1      22.621   4.123  50.265  1.00  0.00     0.042 C 
HETATM    2  C6  UNL     1      22.889   4.911  51.487  1.00  0.00    -0.012 C 
HETATM    3  C7  UNL     1      23.550   4.471  52.549  1.00  0.00     0.071 C 
HETATM    4  C8  UNL     1      23.962   3.112  52.326  1.00  0.00     0.241 C 
HETATM    5  O2  UNL     1      24.343   2.593  53.392  1.00  0.00    -0.269 OA
HETATM    6  N1  UNL     1      24.275   1.857  51.783  1.00  0.00    -0.351 N 
HETATM    7  C9  UNL     1      24.622   0.718  52.616  1.00  0.00     0.187 C 
HETATM    8  C10 UNL     1      23.213   0.483  53.266  1.00  0.00     0.065 C 
HETATM    9  C12 UNL     1      21.977   1.029  53.179  1.00  0.00     0.065 C 
HETATM   10  C13 UNL     1      21.354   2.103  52.443  1.00  0.00     0.053 C 
HETATM   11  N2  UNL     1      20.521   3.009  52.703  1.00  0.00    -0.287 NA
HETATM   12  C14 UNL     1      19.322   3.200  51.830  1.00  0.00     0.190 C 
HETATM   13  C15 UNL     1      19.760   3.246  50.351  1.00  0.00     0.143 C 
HETATM   14  C16 UNL     1      18.850   4.172  49.667  1.00  0.00     0.087 C 
HETATM   15  N3  UNL     1      18.134   4.882  49.131  1.00  0.00    -0.195 NA
HETATM   16  C24 UNL     1      21.164   3.718  50.272  1.00  0.00    -0.035 C 
HETATM   17  C25 UNL     1      21.466   2.750  51.168  1.00  0.00     0.037 C 
HETATM   18  H13 UNL     1      24.329   1.551  50.801  1.00  0.00     0.163 HD
ENDROOT
BRANCH  13  19
HETATM   19  S1  UNL     1      19.665   1.585  49.677  1.00  0.00    -0.098 SA
BRANCH  19  20
HETATM   20  C17 UNL     1      18.390   0.609  50.417  1.00  0.00     0.003 A 
HETATM   21  C18 UNL     1      17.114   0.536  49.900  1.00  0.00     0.021 A 
HETATM   22  C19 UNL     1      16.104  -0.211  50.449  1.00  0.00     0.044 A 
HETATM   23  C20 UNL     1      16.394  -0.932  51.594  1.00  0.00     0.122 A 
HETATM   24  F1  UNL     1      15.392  -1.674  52.140  1.00  0.00    -0.206 F 
HETATM   25  C21 UNL     1      17.662  -0.873  52.129  1.00  0.00    -0.022 A 
HETATM   26  C22 UNL     1      17.943  -1.662  53.363  1.00  0.00     0.051 C 
HETATM   27  C23 UNL     1      18.654  -0.122  51.564  1.00  0.00     0.028 A 
ENDBRANCH  19  20
ENDBRANCH  13  19
BRANCH   1  28
HETATM   28  C4  UNL     1      22.740   5.127  49.095  1.00  0.00     0.039 C 
BRANCH  28  29
HETATM   29  C3  UNL     1      24.177   5.499  48.870  1.00  0.00     0.168 C 
BRANCH  29  30
HETATM   30  O1  UNL     1      24.982   4.386  48.919  1.00  0.00    -0.391 OA
BRANCH  30  31
HETATM   31  C2  UNL     1      26.191   4.624  49.568  1.00  0.00     0.163 C 
HETATM   32  C1  UNL     1      27.219   5.249  48.665  1.00  0.00     0.033 C 
ENDBRANCH  30  31
ENDBRANCH  29  30
ENDBRANCH  28  29
ENDBRANCH   1  28
BRANCH   8  33
HETATM   33  O3  UNL     1      23.401  -0.577  54.133  1.00  0.00    -0.358 OA
HETATM   34  C11 UNL     1      24.745  -0.786  54.569  1.00  0.00     0.209 C 
ENDBRANCH   8  33
TORSDOF 7
ENDMDL
MODEL 9
REMARK VINA RESULT:      -7.1      5.136      9.485
REMARK  7 active torsions:
REMARK  status: ('A' for Active; 'I' for Inactive)
REMARK    1  A    between atoms: C2_2  and  O1_3 
REMARK    2  A    between atoms: O1_3  and  C3_4 
REMARK    3  A    between atoms: C3_4  and  C4_5 
REMARK    4  A    between atoms: C4_5  and  C5_6 
REMARK    5  A    between atoms: C10_13  and  O3_14 
REMARK    6  A    between atoms: C15_20  and  S1_23 
REMARK    7  A    between atoms: S1_23  and  C17_24 
ROOT
HETATM    1  C5  UNL     1      29.141  10.108  48.817  1.00  0.00     0.042 C 
HETATM    2  C6  UNL     1      28.203  10.397  47.712  1.00  0.00    -0.012 C 
HETATM    3  C7  UNL     1      26.995   9.867  47.577  1.00  0.00     0.071 C 
HETATM    4  C8  UNL     1      26.742   8.971  48.672  1.00  0.00     0.241 C 
HETATM    5  O2  UNL     1      25.743   8.267  48.436  1.00  0.00    -0.269 OA
HETATM    6  N1  UNL     1      26.775   8.248  49.873  1.00  0.00    -0.351 N 
HETATM    7  C9  UNL     1      25.915   7.101  50.110  1.00  0.00     0.187 C 
HETATM    8  C10 UNL     1      26.575   6.115  49.084  1.00  0.00     0.065 C 
HETATM    9  C12 UNL     1      27.613   6.136  48.215  1.00  0.00     0.065 C 
HETATM   10  C13 UNL     1      28.621   7.085  47.808  1.00  0.00     0.053 C 
HETATM   11  N2  UNL     1      29.148   7.426  46.718  1.00  0.00    -0.287 NA
HETATM   12  C14 UNL     1      30.638   7.468  46.586  1.00  0.00     0.190 C 
HETATM   13  C15 UNL     1      31.241   8.248  47.773  1.00  0.00     0.143 C 
HETATM   14  C16 UNL     1      32.429   8.944  47.264  1.00  0.00     0.087 C 
HETATM   15  N3  UNL     1      33.361   9.474  46.872  1.00  0.00    -0.195 NA
HETATM   16  C24 UNL     1      30.237   9.210  48.288  1.00  0.00    -0.035 C 
HETATM   17  C25 UNL     1      29.381   8.165  48.367  1.00  0.00     0.037 C 
HETATM   18  H13 UNL     1      27.340   8.393  50.723  1.00  0.00     0.163 HD
ENDROOT
BRANCH  13  19
HETATM   19  S1  UNL     1      31.650   7.080  49.073  1.00  0.00    -0.098 SA
BRANCH  19  20
HETATM   20  C17 UNL     1      32.754   5.808  48.540  1.00  0.00     0.003 A 
HETATM   21  C18 UNL     1      34.122   5.901  48.683  1.00  0.00     0.021 A 
HETATM   22  C19 UNL     1      35.006   4.933  48.281  1.00  0.00     0.044 A 
HETATM   23  C20 UNL     1      34.481   3.795  47.693  1.00  0.00     0.122 A 
HETATM   24  F1  UNL     1      35.357   2.834  47.294  1.00  0.00    -0.206 F 
HETATM   25  C21 UNL     1      33.118   3.680  47.539  1.00  0.00    -0.022 A 
HETATM   26  C22 UNL     1      32.583   2.442  46.903  1.00  0.00     0.051 C 
HETATM   27  C23 UNL     1      32.255   4.658  47.948  1.00  0.00     0.028 A 
ENDBRANCH  19  20
ENDBRANCH  13  19
BRANCH   1  28
HETATM   28  C4  UNL     1      29.848  11.450  49.116  1.00  0.00     0.039 C 
BRANCH  28  29
HETATM   29  C3  UNL     1      29.860  12.319  47.893  1.00  0.00     0.168 C 
BRANCH  29  30
HETATM   30  O1  UNL     1      29.534  13.615  48.212  1.00  0.00    -0.391 OA
BRANCH  30  31
HETATM   31  C2  UNL     1      28.438  14.087  47.494  1.00  0.00     0.163 C 
HETATM   32  C1  UNL     1      27.143  13.929  48.243  1.00  0.00     0.033 C 
ENDBRANCH  30  31
ENDBRANCH  29  30
ENDBRANCH  28  29
ENDBRANCH   1  28
BRANCH   8  33
HETATM   33  O3  UNL     1      25.820   4.960  49.175  1.00  0.00    -0.358 OA
HETATM   34  C11 UNL     1      26.531   3.788  49.577  1.00  0.00     0.209 C 
ENDBRANCH   8  33
TORSDOF 7
ENDMDL
