MODEL 1
REMARK VINA RESULT:      -8.0      0.000      0.000
REMARK  5 active torsions:
REMARK  status: ('A' for Active; 'I' for Inactive)
REMARK    1  A    between atoms: C2_2  and  O1_3 
REMARK    2  A    between atoms: O1_3  and  C3_4 
REMARK    3  A    between atoms: C10_13  and  N3_14 
REMARK    4  A    between atoms: C12_16  and  C13_17 
REMARK    5  A    between atoms: C13_17  and  C14_18 
ROOT
HETATM    1  C14 UNL     1      19.746   2.516  51.756  1.00  0.00     0.128 C 
HETATM    2  C15 UNL     1      18.529   3.270  51.787  1.00  0.00     0.059 C 
HETATM    3  N4  UNL     1      17.517   3.883  51.798  1.00  0.00    -0.197 NA
ENDROOT
BRANCH   1   4
HETATM    4  C13 UNL     1      20.930   3.251  52.235  1.00  0.00     0.053 C 
BRANCH   4   5
HETATM    5  C12 UNL     1      22.115   3.311  51.354  1.00  0.00    -0.021 C 
HETATM    6  C10 UNL     1      22.653   4.552  51.441  1.00  0.00     0.033 C 
HETATM    7  C9  UNL     1      23.397   5.524  50.596  1.00  0.00     0.038 C 
HETATM    8  C8  UNL     1      23.658   5.568  49.274  1.00  0.00    -0.028 C 
HETATM    9  C7  UNL     1      22.900   4.946  48.138  1.00  0.00     0.309 C 
HETATM   10  C19 UNL     1      24.857   6.388  49.291  1.00  0.00     0.022 C 
HETATM   11  N2  UNL     1      22.294   3.723  48.594  1.00  0.00     0.098 N 
HETATM   12  C6  UNL     1      23.174   2.761  49.147  1.00  0.00     0.278 C 
HETATM   13  H9  UNL     1      21.687   3.390  47.813  1.00  0.00     0.317 HD
HETATM   14  C5  UNL     1      24.557   3.208  49.069  1.00  0.00     0.036 C 
HETATM   15  C16 UNL     1      22.718   2.265  50.503  1.00  0.00     0.193 C 
HETATM   16  C4  UNL     1      25.659   3.154  49.842  1.00  0.00     0.011 C 
HETATM   17  N1  UNL     1      25.683   2.141  50.863  1.00  0.00    -0.318 N 
HETATM   18  C24 UNL     1      26.862   4.009  49.769  1.00  0.00     0.068 C 
HETATM   19  C3  UNL     1      25.960   1.063  51.792  1.00  0.00     0.281 A 
HETATM   20  C17 UNL     1      24.627   1.837  51.816  1.00  0.00     0.180 A 
HETATM   21  O2  UNL     1      23.567   1.396  51.104  1.00  0.00    -0.344 OA
HETATM   22  C18 UNL     1      24.474   2.594  53.099  1.00  0.00     0.076 C 
HETATM   23  C23 UNL     1      26.851   5.043  48.707  1.00  0.00     0.047 C 
HETATM   24  C20 UNL     1      26.156   6.311  49.091  1.00  0.00     0.016 C 
HETATM   25  C22 UNL     1      28.318   5.473  48.520  1.00  0.00     0.133 C 
HETATM   26  C21 UNL     1      27.125   7.396  49.199  1.00  0.00     0.248 C 
HETATM   27  O3  UNL     1      27.088   8.526  49.750  1.00  0.00    -0.268 OA
HETATM   28  N5  UNL     1      28.268   6.921  48.495  1.00  0.00    -0.356 N 
HETATM   29  H26 UNL     1      29.034   7.421  47.991  1.00  0.00     0.162 HD
BRANCH   6  30
HETATM   30  N3  UNL     1      22.462   5.158  52.745  1.00  0.00    -0.394 N 
HETATM   31  C11 UNL     1      23.652   5.622  53.431  1.00  0.00     0.146 C 
HETATM   32  H13 UNL     1      21.678   5.394  53.423  1.00  0.00     0.159 HD
ENDBRANCH   6  30
BRANCH  19  33
HETATM   33  O1  UNL     1      26.923   1.366  52.719  1.00  0.00    -0.362 OA
BRANCH  33  34
HETATM   34  C2  UNL     1      27.561   0.259  53.210  1.00  0.00     0.166 C 
HETATM   35  C1  UNL     1      26.949  -0.983  52.601  1.00  0.00     0.033 C 
ENDBRANCH  33  34
ENDBRANCH  19  33
ENDBRANCH   4   5
ENDBRANCH   1   4
TORSDOF 5
ENDMDL
MODEL 2
REMARK VINA RESULT:      -8.0      2.797      6.486
REMARK  5 active torsions:
REMARK  status: ('A' for Active; 'I' for Inactive)
REMARK    1  A    between atoms: C2_2  and  O1_3 
REMARK    2  A    between atoms: O1_3  and  C3_4 
REMARK    3  A    between atoms: C10_13  and  N3_14 
REMARK    4  A    between atoms: C12_16  and  C13_17 
REMARK    5  A    between atoms: C13_17  and  C14_18 
ROOT
HETATM    1  C14 UNL     1      26.404   2.869  51.085  1.00  0.00     0.128 C 
HETATM    2  C15 UNL     1      26.427   1.512  51.542  1.00  0.00     0.059 C 
HETATM    3  N4  UNL     1      26.465   0.393  51.921  1.00  0.00    -0.197 NA
ENDROOT
BRANCH   1   4
HETATM    4  C13 UNL     1      25.309   3.178  50.150  1.00  0.00     0.053 C 
BRANCH   4   5
HETATM    5  C12 UNL     1      23.974   3.473  50.714  1.00  0.00    -0.021 C 
HETATM    6  C10 UNL     1      23.086   3.562  49.694  1.00  0.00     0.033 C 
HETATM    7  C9  UNL     1      21.836   4.286  49.344  1.00  0.00     0.038 C 
HETATM    8  C8  UNL     1      21.199   5.331  49.911  1.00  0.00    -0.028 C 
HETATM    9  C7  UNL     1      21.757   6.424  50.775  1.00  0.00     0.309 C 
HETATM   10  C19 UNL     1      19.851   5.082  49.432  1.00  0.00     0.022 C 
HETATM   11  N2  UNL     1      22.859   5.900  51.539  1.00  0.00     0.098 N 
HETATM   12  C6  UNL     1      22.576   4.770  52.344  1.00  0.00     0.278 C 
HETATM   13  H9  UNL     1      23.285   6.717  52.030  1.00  0.00     0.317 HD
HETATM   14  C5  UNL     1      21.168   4.414  52.273  1.00  0.00     0.036 C 
HETATM   15  C16 UNL     1      23.555   3.637  52.121  1.00  0.00     0.193 C 
HETATM   16  C4  UNL     1      20.434   3.284  52.231  1.00  0.00     0.011 C 
HETATM   17  N1  UNL     1      21.068   2.084  52.706  1.00  0.00    -0.318 N 
HETATM   18  C24 UNL     1      19.043   3.122  51.759  1.00  0.00     0.068 C 
HETATM   19  C3  UNL     1      21.474   0.839  53.330  1.00  0.00     0.281 A 
HETATM   20  C17 UNL     1      22.394   1.600  52.355  1.00  0.00     0.180 A 
HETATM   21  O2  UNL     1      23.282   2.507  52.818  1.00  0.00    -0.344 OA
HETATM   22  C18 UNL     1      22.642   0.792  51.118  1.00  0.00     0.076 C 
HETATM   23  C23 UNL     1      18.377   4.359  51.285  1.00  0.00     0.047 C 
HETATM   24  C20 UNL     1      18.664   4.702  49.857  1.00  0.00     0.016 C 
HETATM   25  C22 UNL     1      16.868   4.056  51.292  1.00  0.00     0.133 C 
HETATM   26  C21 UNL     1      17.453   4.551  49.057  1.00  0.00     0.248 C 
HETATM   27  O3  UNL     1      17.252   4.440  47.821  1.00  0.00    -0.268 OA
HETATM   28  N5  UNL     1      16.397   4.545  50.012  1.00  0.00    -0.356 N 
HETATM   29  H26 UNL     1      15.393   4.821  49.941  1.00  0.00     0.162 HD
BRANCH   6  30
HETATM   30  N3  UNL     1      23.428   2.705  48.575  1.00  0.00    -0.394 N 
HETATM   31  C11 UNL     1      22.338   2.294  47.711  1.00  0.00     0.146 C 
HETATM   32  H13 UNL     1      24.278   2.238  48.140  1.00  0.00     0.159 HD
ENDBRANCH   6  30
BRANCH  19  33
HETATM   33  O1  UNL     1      20.784  -0.255  52.879  1.00  0.00    -0.362 OA
BRANCH  33  34
HETATM   34  C2  UNL     1      20.513  -1.163  53.868  1.00  0.00     0.166 C 
HETATM   35  C1  UNL     1      21.810  -1.613  54.502  1.00  0.00     0.033 C 
ENDBRANCH  33  34
ENDBRANCH  19  33
ENDBRANCH   4   5
ENDBRANCH   1   4
TORSDOF 5
ENDMDL
MODEL 3
REMARK VINA RESULT:      -7.7      2.906      5.576
REMARK  5 active torsions:
REMARK  status: ('A' for Active; 'I' for Inactive)
REMARK    1  A    between atoms: C2_2  and  O1_3 
REMARK    2  A    between atoms: O1_3  and  C3_4 
REMARK    3  A    between atoms: C10_13  and  N3_14 
REMARK    4  A    between atoms: C12_16  and  C13_17 
REMARK    5  A    between atoms: C13_17  and  C14_18 
ROOT
HETATM    1  C14 UNL     1      18.872   0.365  51.102  1.00  0.00     0.128 C 
HETATM    2  C15 UNL     1      19.627   0.140  52.298  1.00  0.00     0.059 C 
HETATM    3  N4  UNL     1      20.234  -0.046  53.296  1.00  0.00    -0.197 NA
ENDROOT
BRANCH   1   4
HETATM    4  C13 UNL     1      19.607   1.079  50.044  1.00  0.00     0.053 C 
BRANCH   4   5
HETATM    5  C12 UNL     1      20.412   2.258  50.428  1.00  0.00    -0.021 C 
HETATM    6  C10 UNL     1      21.593   2.206  49.765  1.00  0.00     0.033 C 
HETATM    7  C9  UNL     1      23.014   2.603  49.954  1.00  0.00     0.038 C 
HETATM    8  C8  UNL     1      23.703   3.035  51.030  1.00  0.00    -0.028 C 
HETATM    9  C7  UNL     1      23.428   2.804  52.486  1.00  0.00     0.309 C 
HETATM   10  C19 UNL     1      24.767   3.761  50.360  1.00  0.00     0.022 C 
HETATM   11  N2  UNL     1      22.005   2.698  52.682  1.00  0.00     0.098 N 
HETATM   12  C6  UNL     1      21.232   3.796  52.232  1.00  0.00     0.278 C 
HETATM   13  H9  UNL     1      21.869   2.422  53.680  1.00  0.00     0.317 HD
HETATM   14  C5  UNL     1      22.080   4.857  51.713  1.00  0.00     0.036 C 
HETATM   15  C16 UNL     1      20.084   3.373  51.340  1.00  0.00     0.193 C 
HETATM   16  C4  UNL     1      22.049   5.738  50.694  1.00  0.00     0.011 C 
HETATM   17  N1  UNL     1      20.761   6.016  50.118  1.00  0.00    -0.318 N 
HETATM   18  C24 UNL     1      23.184   6.469  50.091  1.00  0.00     0.068 C 
HETATM   19  C3  UNL     1      19.536   6.561  49.565  1.00  0.00     0.281 A 
HETATM   20  C17 UNL     1      19.760   5.043  49.710  1.00  0.00     0.180 A 
HETATM   21  O2  UNL     1      19.359   4.396  50.826  1.00  0.00    -0.344 OA
HETATM   22  C18 UNL     1      19.799   4.380  48.368  1.00  0.00     0.076 C 
HETATM   23  C23 UNL     1      24.512   6.201  50.691  1.00  0.00     0.047 C 
HETATM   24  C20 UNL     1      25.199   4.988  50.149  1.00  0.00     0.016 C 
HETATM   25  C22 UNL     1      25.419   7.363  50.247  1.00  0.00     0.133 C 
HETATM   26  C21 UNL     1      26.376   5.383  49.383  1.00  0.00     0.248 C 
HETATM   27  O3  UNL     1      27.081   4.788  48.529  1.00  0.00    -0.268 OA
HETATM   28  N5  UNL     1      26.638   6.718  49.802  1.00  0.00    -0.356 N 
HETATM   29  H26 UNL     1      27.520   7.277  49.839  1.00  0.00     0.162 HD
BRANCH   6  30
HETATM   30  N3  UNL     1      21.482   1.569  48.468  1.00  0.00    -0.394 N 
HETATM   31  C11 UNL     1      22.465   1.944  47.469  1.00  0.00     0.146 C 
HETATM   32  H13 UNL     1      20.872   0.861  47.960  1.00  0.00     0.159 HD
ENDBRANCH   6  30
BRANCH  19  33
HETATM   33  O1  UNL     1      19.698   7.143  48.335  1.00  0.00    -0.362 OA
BRANCH  33  34
HETATM   34  C2  UNL     1      19.619   8.510  48.375  1.00  0.00     0.166 C 
HETATM   35  C1  UNL     1      21.013   9.093  48.319  1.00  0.00     0.033 C 
ENDBRANCH  33  34
ENDBRANCH  19  33
ENDBRANCH   4   5
ENDBRANCH   1   4
TORSDOF 5
ENDMDL
MODEL 4
REMARK VINA RESULT:      -7.6      2.427      3.373
REMARK  5 active torsions:
REMARK  status: ('A' for Active; 'I' for Inactive)
REMARK    1  A    between atoms: C2_2  and  O1_3 
REMARK    2  A    between atoms: O1_3  and  C3_4 
REMARK    3  A    between atoms: C10_13  and  N3_14 
REMARK    4  A    between atoms: C12_16  and  C13_17 
REMARK    5  A    between atoms: C13_17  and  C14_18 
ROOT
HETATM    1  C14 UNL     1      16.988   3.596  49.731  1.00  0.00     0.128 C 
HETATM    2  C15 UNL     1      16.743   3.992  51.085  1.00  0.00     0.059 C 
HETATM    3  N4  UNL     1      16.523   4.313  52.202  1.00  0.00    -0.197 NA
ENDROOT
BRANCH   1   4
HETATM    4  C13 UNL     1      18.008   4.401  49.036  1.00  0.00     0.053 C 
BRANCH   4   5
HETATM    5  C12 UNL     1      19.391   3.883  48.989  1.00  0.00    -0.021 C 
HETATM    6  C10 UNL     1      20.245   4.913  49.207  1.00  0.00     0.033 C 
HETATM    7  C9  UNL     1      21.612   5.350  48.820  1.00  0.00     0.038 C 
HETATM    8  C8  UNL     1      22.481   4.904  47.890  1.00  0.00    -0.028 C 
HETATM    9  C7  UNL     1      22.206   4.161  46.616  1.00  0.00     0.309 C 
HETATM   10  C19 UNL     1      23.726   5.364  48.481  1.00  0.00     0.022 C 
HETATM   11  N2  UNL     1      21.040   3.337  46.798  1.00  0.00     0.098 N 
HETATM   12  C6  UNL     1      21.092   2.415  47.872  1.00  0.00     0.278 C 
HETATM   13  H9  UNL     1      20.820   2.934  45.860  1.00  0.00     0.317 HD
HETATM   14  C5  UNL     1      22.384   2.457  48.538  1.00  0.00     0.036 C 
HETATM   15  C16 UNL     1      19.881   2.505  48.776  1.00  0.00     0.193 C 
HETATM   16  C4  UNL     1      22.849   2.381  49.801  1.00  0.00     0.011 C 
HETATM   17  N1  UNL     1      21.982   1.773  50.773  1.00  0.00    -0.318 N 
HETATM   18  C24 UNL     1      24.155   2.842  50.317  1.00  0.00     0.068 C 
HETATM   19  C3  UNL     1      21.331   1.014  51.824  1.00  0.00     0.281 A 
HETATM   20  C17 UNL     1      20.571   2.059  50.984  1.00  0.00     0.180 A 
HETATM   21  O2  UNL     1      19.920   1.691  49.859  1.00  0.00    -0.344 OA
HETATM   22  C18 UNL     1      20.112   3.198  51.841  1.00  0.00     0.076 C 
HETATM   23  C23 UNL     1      25.061   3.454  49.316  1.00  0.00     0.047 C 
HETATM   24  C20 UNL     1      24.813   4.909  49.069  1.00  0.00     0.016 C 
HETATM   25  C22 UNL     1      26.466   3.425  49.944  1.00  0.00     0.133 C 
HETATM   26  C21 UNL     1      25.934   5.696  49.569  1.00  0.00     0.248 C 
HETATM   27  O3  UNL     1      26.067   6.915  49.851  1.00  0.00    -0.268 OA
HETATM   28  N5  UNL     1      26.992   4.755  49.710  1.00  0.00    -0.356 N 
HETATM   29  H26 UNL     1      28.031   4.862  49.673  1.00  0.00     0.162 HD
BRANCH   6  30
HETATM   30  N3  UNL     1      19.688   5.929  50.079  1.00  0.00    -0.394 N 
HETATM   31  C11 UNL     1      20.358   7.215  50.096  1.00  0.00     0.146 C 
HETATM   32  H13 UNL     1      18.887   6.059  50.767  1.00  0.00     0.159 HD
ENDBRANCH   6  30
BRANCH  19  33
HETATM   33  O1  UNL     1      21.748   1.348  53.085  1.00  0.00    -0.362 OA
BRANCH  33  34
HETATM   34  C2  UNL     1      21.846   0.267  53.920  1.00  0.00     0.166 C 
HETATM   35  C1  UNL     1      23.200  -0.382  53.741  1.00  0.00     0.033 C 
ENDBRANCH  33  34
ENDBRANCH  19  33
ENDBRANCH   4   5
ENDBRANCH   1   4
TORSDOF 5
ENDMDL
MODEL 5
REMARK VINA RESULT:      -7.2      2.266      3.270
REMARK  5 active torsions:
REMARK  status: ('A' for Active; 'I' for Inactive)
REMARK    1  A    between atoms: C2_2  and  O1_3 
REMARK    2  A    between atoms: O1_3  and  C3_4 
REMARK    3  A    between atoms: C10_13  and  N3_14 
REMARK    4  A    between atoms: C12_16  and  C13_17 
REMARK    5  A    between atoms: C13_17  and  C14_18 
ROOT
HETATM    1  C14 UNL     1      18.532  -0.134  51.666  1.00  0.00     0.128 C 
HETATM    2  C15 UNL     1      17.319  -0.375  52.388  1.00  0.00     0.059 C 
HETATM    3  N4  UNL     1      16.322  -0.592  52.986  1.00  0.00    -0.197 NA
ENDROOT
BRANCH   1   4
HETATM    4  C13 UNL     1      18.477   1.018  50.750  1.00  0.00     0.053 C 
BRANCH   4   5
HETATM    5  C12 UNL     1      19.752   1.568  50.245  1.00  0.00    -0.021 C 
HETATM    6  C10 UNL     1      19.716   2.918  50.366  1.00  0.00     0.033 C 
HETATM    7  C9  UNL     1      20.244   4.129  49.682  1.00  0.00     0.038 C 
HETATM    8  C8  UNL     1      20.852   4.310  48.493  1.00  0.00    -0.028 C 
HETATM    9  C7  UNL     1      20.773   3.472  47.251  1.00  0.00     0.309 C 
HETATM   10  C19 UNL     1      21.576   5.537  48.776  1.00  0.00     0.022 C 
HETATM   11  N2  UNL     1      20.579   2.096  47.627  1.00  0.00     0.098 N 
HETATM   12  C6  UNL     1      21.552   1.546  48.497  1.00  0.00     0.278 C 
HETATM   13  H9  UNL     1      20.413   1.573  46.739  1.00  0.00     0.317 HD
HETATM   14  C5  UNL     1      22.608   2.507  48.777  1.00  0.00     0.036 C 
HETATM   15  C16 UNL     1      20.938   0.871  49.705  1.00  0.00     0.193 C 
HETATM   16  C4  UNL     1      23.358   2.872  49.836  1.00  0.00     0.011 C 
HETATM   17  N1  UNL     1      23.464   1.923  50.911  1.00  0.00    -0.318 N 
HETATM   18  C24 UNL     1      24.100   4.135  50.031  1.00  0.00     0.068 C 
HETATM   19  C3  UNL     1      23.841   1.016  51.978  1.00  0.00     0.281 A 
HETATM   20  C17 UNL     1      22.373   1.197  51.545  1.00  0.00     0.180 A 
HETATM   21  O2  UNL     1      21.833   0.393  50.604  1.00  0.00    -0.344 OA
HETATM   22  C18 UNL     1      21.562   1.795  52.653  1.00  0.00     0.076 C 
HETATM   23  C23 UNL     1      24.010   5.110  48.918  1.00  0.00     0.047 C 
HETATM   24  C20 UNL     1      22.799   5.988  48.965  1.00  0.00     0.016 C 
HETATM   25  C22 UNL     1      25.180   6.091  49.120  1.00  0.00     0.133 C 
HETATM   26  C21 UNL     1      23.193   7.364  49.244  1.00  0.00     0.248 C 
HETATM   27  O3  UNL     1      22.559   8.370  49.652  1.00  0.00    -0.268 OA
HETATM   28  N5  UNL     1      24.585   7.401  48.946  1.00  0.00    -0.356 N 
HETATM   29  H26 UNL     1      25.212   8.177  48.638  1.00  0.00     0.162 HD
BRANCH   6  30
HETATM   30  N3  UNL     1      18.924   3.360  51.497  1.00  0.00    -0.394 N 
HETATM   31  C11 UNL     1      17.831   4.271  51.213  1.00  0.00     0.146 C 
HETATM   32  H13 UNL     1      18.871   3.231  52.551  1.00  0.00     0.159 HD
ENDBRANCH   6  30
BRANCH  19  33
HETATM   33  O1  UNL     1      24.286   1.649  53.109  1.00  0.00    -0.362 OA
BRANCH  33  34
HETATM   34  C2  UNL     1      25.617   1.963  53.058  1.00  0.00     0.166 C 
HETATM   35  C1  UNL     1      26.397   0.762  52.575  1.00  0.00     0.033 C 
ENDBRANCH  33  34
ENDBRANCH  19  33
ENDBRANCH   4   5
ENDBRANCH   1   4
TORSDOF 5
ENDMDL
MODEL 6
REMARK VINA RESULT:      -7.2      5.624      9.278
REMARK  5 active torsions:
REMARK  status: ('A' for Active; 'I' for Inactive)
REMARK    1  A    between atoms: C2_2  and  O1_3 
REMARK    2  A    between atoms: O1_3  and  C3_4 
REMARK    3  A    between atoms: C10_13  and  N3_14 
REMARK    4  A    between atoms: C12_16  and  C13_17 
REMARK    5  A    between atoms: C13_17  and  C14_18 
ROOT
HETATM    1  C14 UNL     1      26.017   9.587  49.224  1.00  0.00     0.128 C 
HETATM    2  C15 UNL     1      24.762   9.087  48.746  1.00  0.00     0.059 C 
HETATM    3  N4  UNL     1      23.718   8.691  48.357  1.00  0.00    -0.197 NA
ENDROOT
BRANCH   1   4
HETATM    4  C13 UNL     1      26.987   8.542  49.593  1.00  0.00     0.053 C 
BRANCH   4   5
HETATM    5  C12 UNL     1      28.270   8.494  48.861  1.00  0.00    -0.021 C 
HETATM    6  C10 UNL     1      28.556   7.199  48.577  1.00  0.00     0.033 C 
HETATM    7  C9  UNL     1      29.738   6.313  48.407  1.00  0.00     0.038 C 
HETATM    8  C8  UNL     1      31.048   6.482  48.676  1.00  0.00    -0.028 C 
HETATM    9  C7  UNL     1      31.701   7.395  49.671  1.00  0.00     0.309 C 
HETATM   10  C19 UNL     1      31.613   5.526  47.739  1.00  0.00     0.022 C 
HETATM   11  N2  UNL     1      30.897   8.581  49.815  1.00  0.00     0.098 N 
HETATM   12  C6  UNL     1      30.634   9.303  48.625  1.00  0.00     0.278 C 
HETATM   13  H9  UNL     1      31.323   9.128  50.596  1.00  0.00     0.317 HD
HETATM   14  C5  UNL     1      31.314   8.704  47.487  1.00  0.00     0.036 C 
HETATM   15  C16 UNL     1      29.160   9.593  48.434  1.00  0.00     0.193 C 
HETATM   16  C4  UNL     1      31.048   8.472  46.187  1.00  0.00     0.011 C 
HETATM   17  N1  UNL     1      30.011   9.266  45.587  1.00  0.00    -0.318 N 
HETATM   18  C24 UNL     1      31.701   7.498  45.287  1.00  0.00     0.068 C 
HETATM   19  C3  UNL     1      29.149  10.110  44.781  1.00  0.00     0.281 A 
HETATM   20  C17 UNL     1      28.685   9.522  46.128  1.00  0.00     0.180 A 
HETATM   21  O2  UNL     1      28.852  10.220  47.273  1.00  0.00    -0.344 OA
HETATM   22  C18 UNL     1      27.549   8.566  45.928  1.00  0.00     0.076 C 
HETATM   23  C23 UNL     1      32.784   6.688  45.894  1.00  0.00     0.047 C 
HETATM   24  C20 UNL     1      32.307   5.470  46.622  1.00  0.00     0.016 C 
HETATM   25  C22 UNL     1      33.595   6.115  44.717  1.00  0.00     0.133 C 
HETATM   26  C21 UNL     1      32.729   4.269  45.910  1.00  0.00     0.248 C 
HETATM   27  O3  UNL     1      32.348   3.071  45.952  1.00  0.00    -0.268 OA
HETATM   28  N5  UNL     1      33.770   4.716  45.048  1.00  0.00    -0.356 N 
HETATM   29  H26 UNL     1      34.595   4.224  44.639  1.00  0.00     0.162 HD
BRANCH   6  30
HETATM   30  N3  UNL     1      27.368   6.393  48.376  1.00  0.00    -0.394 N 
HETATM   31  C11 UNL     1      27.491   4.971  48.634  1.00  0.00     0.146 C 
HETATM   32  H13 UNL     1      26.353   6.502  48.077  1.00  0.00     0.159 HD
ENDBRANCH   6  30
BRANCH  19  33
HETATM   33  O1  UNL     1      28.732   9.519  43.617  1.00  0.00    -0.362 OA
BRANCH  33  34
HETATM   34  C2  UNL     1      28.398  10.425  42.646  1.00  0.00     0.166 C 
HETATM   35  C1  UNL     1      28.480  11.823  43.217  1.00  0.00     0.033 C 
ENDBRANCH  33  34
ENDBRANCH  19  33
ENDBRANCH   4   5
ENDBRANCH   1   4
TORSDOF 5
ENDMDL
MODEL 7
REMARK VINA RESULT:      -7.1      2.280      6.129
REMARK  5 active torsions:
REMARK  status: ('A' for Active; 'I' for Inactive)
REMARK    1  A    between atoms: C2_2  and  O1_3 
REMARK    2  A    between atoms: O1_3  and  C3_4 
REMARK    3  A    between atoms: C10_13  and  N3_14 
REMARK    4  A    between atoms: C12_16  and  C13_17 
REMARK    5  A    between atoms: C13_17  and  C14_18 
ROOT
HETATM    1  C14 UNL     1      24.093   6.983  48.346  1.00  0.00     0.128 C 
HETATM    2  C15 UNL     1      23.965   7.574  47.048  1.00  0.00     0.059 C 
HETATM    3  N4  UNL     1      23.852   8.078  45.984  1.00  0.00    -0.197 NA
ENDROOT
BRANCH   1   4
HETATM    4  C13 UNL     1      24.061   5.510  48.349  1.00  0.00     0.053 C 
BRANCH   4   5
HETATM    5  C12 UNL     1      23.778   4.823  49.627  1.00  0.00    -0.021 C 
HETATM    6  C10 UNL     1      22.773   3.936  49.425  1.00  0.00     0.033 C 
HETATM    7  C9  UNL     1      21.634   3.330  50.165  1.00  0.00     0.038 C 
HETATM    8  C8  UNL     1      21.061   3.620  51.351  1.00  0.00    -0.028 C 
HETATM    9  C7  UNL     1      21.035   4.922  52.096  1.00  0.00     0.309 C 
HETATM   10  C19 UNL     1      20.485   2.324  51.665  1.00  0.00     0.022 C 
HETATM   11  N2  UNL     1      22.249   5.644  51.819  1.00  0.00     0.098 N 
HETATM   12  C6  UNL     1      23.457   4.965  52.111  1.00  0.00     0.278 C 
HETATM   13  H9  UNL     1      22.135   6.584  52.259  1.00  0.00     0.317 HD
HETATM   14  C5  UNL     1      23.197   3.666  52.712  1.00  0.00     0.036 C 
HETATM   15  C16 UNL     1      24.425   4.971  50.947  1.00  0.00     0.193 C 
HETATM   16  C4  UNL     1      23.715   2.424  52.646  1.00  0.00     0.011 C 
HETATM   17  N1  UNL     1      25.062   2.311  52.155  1.00  0.00    -0.318 N 
HETATM   18  C24 UNL     1      23.070   1.150  53.024  1.00  0.00     0.068 C 
HETATM   19  C3  UNL     1      26.460   2.038  51.882  1.00  0.00     0.281 A 
HETATM   20  C17 UNL     1      25.611   2.935  50.960  1.00  0.00     0.180 A 
HETATM   21  O2  UNL     1      25.567   4.271  51.155  1.00  0.00    -0.344 OA
HETATM   22  C18 UNL     1      25.464   2.316  49.604  1.00  0.00     0.076 C 
HETATM   23  C23 UNL     1      21.688   1.260  53.549  1.00  0.00     0.047 C 
HETATM   24  C20 UNL     1      20.631   1.309  52.491  1.00  0.00     0.016 C 
HETATM   25  C22 UNL     1      21.407  -0.062  54.285  1.00  0.00     0.133 C 
HETATM   26  C21 UNL     1      19.828   0.092  52.534  1.00  0.00     0.248 C 
HETATM   27  O3  UNL     1      19.049  -0.450  51.709  1.00  0.00    -0.268 OA
HETATM   28  N5  UNL     1      20.095  -0.462  53.818  1.00  0.00    -0.356 N 
HETATM   29  H26 UNL     1      19.528  -1.077  54.443  1.00  0.00     0.162 HD
BRANCH   6  30
HETATM   30  N3  UNL     1      22.767   3.390  48.082  1.00  0.00    -0.394 N 
HETATM   31  C11 UNL     1      22.145   2.091  47.907  1.00  0.00     0.146 C 
HETATM   32  H13 UNL     1      23.091   3.642  47.101  1.00  0.00     0.159 HD
ENDBRANCH   6  30
BRANCH  19  33
HETATM   33  O1  UNL     1      26.707   0.743  51.509  1.00  0.00    -0.362 OA
BRANCH  33  34
HETATM   34  C2  UNL     1      27.199  -0.024  52.531  1.00  0.00     0.166 C 
HETATM   35  C1  UNL     1      26.152  -1.033  52.947  1.00  0.00     0.033 C 
ENDBRANCH  33  34
ENDBRANCH  19  33
ENDBRANCH   4   5
ENDBRANCH   1   4
TORSDOF 5
ENDMDL
MODEL 8
REMARK VINA RESULT:      -7.1      2.444      5.585
REMARK  5 active torsions:
REMARK  status: ('A' for Active; 'I' for Inactive)
REMARK    1  A    between atoms: C2_2  and  O1_3 
REMARK    2  A    between atoms: O1_3  and  C3_4 
REMARK    3  A    between atoms: C10_13  and  N3_14 
REMARK    4  A    between atoms: C12_16  and  C13_17 
REMARK    5  A    between atoms: C13_17  and  C14_18 
ROOT
HETATM    1  C14 UNL     1      25.109   1.481  53.214  1.00  0.00     0.128 C 
HETATM    2  C15 UNL     1      26.145   1.092  54.124  1.00  0.00     0.059 C 
HETATM    3  N4  UNL     1      26.986   0.765  54.887  1.00  0.00    -0.197 NA
ENDROOT
BRANCH   1   4
HETATM    4  C13 UNL     1      25.465   2.605  52.331  1.00  0.00     0.053 C 
BRANCH   4   5
HETATM    5  C12 UNL     1      24.375   3.468  51.828  1.00  0.00    -0.021 C 
HETATM    6  C10 UNL     1      24.690   3.871  50.573  1.00  0.00     0.033 C 
HETATM    7  C9  UNL     1      24.483   5.038  49.675  1.00  0.00     0.038 C 
HETATM    8  C8  UNL     1      24.012   6.283  49.894  1.00  0.00    -0.028 C 
HETATM    9  C7  UNL     1      23.997   7.080  51.164  1.00  0.00     0.309 C 
HETATM   10  C19 UNL     1      23.550   6.605  48.555  1.00  0.00     0.022 C 
HETATM   11  N2  UNL     1      23.865   6.179  52.280  1.00  0.00     0.098 N 
HETATM   12  C6  UNL     1      22.739   5.321  52.256  1.00  0.00     0.278 C 
HETATM   13  H9  UNL     1      23.977   6.762  53.139  1.00  0.00     0.317 HD
HETATM   14  C5  UNL     1      21.895   5.593  51.103  1.00  0.00     0.036 C 
HETATM   15  C16 UNL     1      23.108   3.869  52.475  1.00  0.00     0.193 C 
HETATM   16  C4  UNL     1      21.169   4.881  50.219  1.00  0.00     0.011 C 
HETATM   17  N1  UNL     1      20.788   3.553  50.616  1.00  0.00    -0.318 N 
HETATM   18  C24 UNL     1      20.703   5.300  48.880  1.00  0.00     0.068 C 
HETATM   19  C3  UNL     1      20.152   2.289  50.933  1.00  0.00     0.281 A 
HETATM   20  C17 UNL     1      21.651   2.533  51.193  1.00  0.00     0.180 A 
HETATM   21  O2  UNL     1      22.071   3.001  52.389  1.00  0.00    -0.344 OA
HETATM   22  C18 UNL     1      22.492   1.632  50.342  1.00  0.00     0.076 C 
HETATM   23  C23 UNL     1      21.077   6.675  48.471  1.00  0.00     0.047 C 
HETATM   24  C20 UNL     1      22.441   6.788  47.868  1.00  0.00     0.016 C 
HETATM   25  C22 UNL     1      20.133   7.043  47.312  1.00  0.00     0.133 C 
HETATM   26  C21 UNL     1      22.332   7.123  46.452  1.00  0.00     0.248 C 
HETATM   27  O3  UNL     1      23.137   7.042  45.489  1.00  0.00    -0.268 OA
HETATM   28  N5  UNL     1      21.005   7.616  46.307  1.00  0.00    -0.356 N 
HETATM   29  H26 UNL     1      20.582   8.289  45.629  1.00  0.00     0.162 HD
BRANCH   6  30
HETATM   30  N3  UNL     1      25.478   2.892  49.850  1.00  0.00    -0.394 N 
HETATM   31  C11 UNL     1      26.707   3.363  49.240  1.00  0.00     0.146 C 
HETATM   32  H13 UNL     1      25.455   1.860  49.594  1.00  0.00     0.159 HD
ENDBRANCH   6  30
BRANCH  19  33
HETATM   33  O1  UNL     1      19.775   1.569  49.830  1.00  0.00    -0.362 OA
BRANCH  33  34
HETATM   34  C2  UNL     1      18.653   0.812  50.041  1.00  0.00     0.166 C 
HETATM   35  C1  UNL     1      18.761   0.122  51.382  1.00  0.00     0.033 C 
ENDBRANCH  33  34
ENDBRANCH  19  33
ENDBRANCH   4   5
ENDBRANCH   1   4
TORSDOF 5
ENDMDL
MODEL 9
REMARK VINA RESULT:      -7.1      2.691      5.427
REMARK  5 active torsions:
REMARK  status: ('A' for Active; 'I' for Inactive)
REMARK    1  A    between atoms: C2_2  and  O1_3 
REMARK    2  A    between atoms: O1_3  and  C3_4 
REMARK    3  A    between atoms: C10_13  and  N3_14 
REMARK    4  A    between atoms: C12_16  and  C13_17 
REMARK    5  A    between atoms: C13_17  and  C14_18 
ROOT
HETATM    1  C14 UNL     1      23.889   2.441  52.842  1.00  0.00     0.128 C 
HETATM    2  C15 UNL     1      24.306   1.078  52.976  1.00  0.00     0.059 C 
HETATM    3  N4  UNL     1      24.643  -0.049  53.104  1.00  0.00    -0.197 NA
ENDROOT
BRANCH   1   4
HETATM    4  C13 UNL     1      24.761   3.263  51.986  1.00  0.00     0.053 C 
BRANCH   4   5
HETATM    5  C12 UNL     1      24.131   4.293  51.133  1.00  0.00    -0.021 C 
HETATM    6  C10 UNL     1      25.048   4.729  50.235  1.00  0.00     0.033 C 
HETATM    7  C9  UNL     1      25.403   5.967  49.492  1.00  0.00     0.038 C 
HETATM    8  C8  UNL     1      24.994   7.247  49.608  1.00  0.00    -0.028 C 
HETATM    9  C7  UNL     1      24.434   7.957  50.804  1.00  0.00     0.309 C 
HETATM   10  C19 UNL     1      25.268   7.711  48.259  1.00  0.00     0.022 C 
HETATM   11  N2  UNL     1      23.701   7.014  51.607  1.00  0.00     0.098 N 
HETATM   12  C6  UNL     1      22.658   6.316  50.951  1.00  0.00     0.278 C 
HETATM   13  H9  UNL     1      23.433   7.522  52.479  1.00  0.00     0.317 HD
HETATM   14  C5  UNL     1      22.507   6.769  49.577  1.00  0.00     0.036 C 
HETATM   15  C16 UNL     1      22.749   4.817  51.144  1.00  0.00     0.193 C 
HETATM   16  C4  UNL     1      22.241   6.217  48.377  1.00  0.00     0.011 C 
HETATM   17  N1  UNL     1      21.603   4.929  48.385  1.00  0.00    -0.318 N 
HETATM   18  C24 UNL     1      22.520   6.778  47.038  1.00  0.00     0.068 C 
HETATM   19  C3  UNL     1      20.786   3.743  48.210  1.00  0.00     0.281 A 
HETATM   20  C17 UNL     1      21.987   3.770  49.176  1.00  0.00     0.180 A 
HETATM   21  O2  UNL     1      21.814   4.101  50.475  1.00  0.00    -0.344 OA
HETATM   22  C18 UNL     1      23.054   2.820  48.725  1.00  0.00     0.076 C 
HETATM   23  C23 UNL     1      23.162   8.114  47.022  1.00  0.00     0.047 C 
HETATM   24  C20 UNL     1      24.652   8.082  47.156  1.00  0.00     0.016 C 
HETATM   25  C22 UNL     1      22.934   8.676  45.607  1.00  0.00     0.133 C 
HETATM   26  C21 UNL     1      25.272   8.516  45.909  1.00  0.00     0.248 C 
HETATM   27  O3  UNL     1      26.432   8.390  45.440  1.00  0.00    -0.268 OA
HETATM   28  N5  UNL     1      24.230   9.190  45.212  1.00  0.00    -0.356 N 
HETATM   29  H26 UNL     1      24.248   9.954  44.499  1.00  0.00     0.162 HD
BRANCH   6  30
HETATM   30  N3  UNL     1      26.000   3.701  49.861  1.00  0.00    -0.394 N 
HETATM   31  C11 UNL     1      27.137   4.122  49.064  1.00  0.00     0.146 C 
HETATM   32  H13 UNL     1      26.158   2.656  49.983  1.00  0.00     0.159 HD
ENDBRANCH   6  30
BRANCH  19  33
HETATM   33  O1  UNL     1      20.931   3.150  46.984  1.00  0.00    -0.362 OA
BRANCH  33  34
HETATM   34  C2  UNL     1      20.364   3.873  45.969  1.00  0.00     0.166 C 
HETATM   35  C1  UNL     1      21.350   3.993  44.829  1.00  0.00     0.033 C 
ENDBRANCH  33  34
ENDBRANCH  19  33
ENDBRANCH   4   5
ENDBRANCH   1   4
TORSDOF 5
ENDMDL
