MODEL 1
REMARK VINA RESULT:      -8.7      0.000      0.000
REMARK  2 active torsions:
REMARK  status: ('A' for Active; 'I' for Inactive)
REMARK    1  A    between atoms: O1_2  and  C2_3 
REMARK    2  A    between atoms: N3_11  and  C8_12 
ROOT
HETATM    1  C2  UNL     1      23.963   3.228  49.546  1.00  0.00     0.051 A 
HETATM    2  C3  UNL     1      25.261   3.247  49.802  1.00  0.00     0.035 A 
HETATM    3  C4  UNL     1      25.760   2.496  50.953  1.00  0.00     0.036 A 
HETATM    4  C5  UNL     1      24.891   1.842  51.672  1.00  0.00     0.085 A 
HETATM    5  C6  UNL     1      23.468   1.799  51.419  1.00  0.00     0.070 A 
HETATM    6  N1  UNL     1      22.669   1.107  52.189  1.00  0.00    -0.242 NA
HETATM    7  C7  UNL     1      23.234   0.383  53.300  1.00  0.00     0.256 A 
HETATM    8  N2  UNL     1      24.491   0.387  53.568  1.00  0.00    -0.159 NA
HETATM    9  N3  UNL     1      25.414   1.118  52.775  1.00  0.00    -0.212 N 
HETATM   10  C17 UNL     1      22.892   2.526  50.292  1.00  0.00     0.126 A 
ENDROOT
BRANCH   9  11
HETATM   11  C8  UNL     1      26.772   1.019  53.196  1.00  0.00     0.162 A 
HETATM   12  N4  UNL     1      27.358   2.163  53.649  1.00  0.00    -0.241 NA
HETATM   13  C9  UNL     1      28.659   2.174  54.064  1.00  0.00     0.120 A 
HETATM   14  C10 UNL     1      29.407   1.002  54.027  1.00  0.00     0.031 A 
HETATM   15  C11 UNL     1      28.807  -0.162  53.562  1.00  0.00    -0.021 A 
HETATM   16  C12 UNL     1      29.579  -1.314  53.532  1.00  0.00     0.012 A 
HETATM   17  C16 UNL     1      27.479  -0.157  53.143  1.00  0.00     0.022 A 
HETATM   18  C13 UNL     1      28.912  -2.422  53.054  1.00  0.00     0.001 A 
HETATM   19  C14 UNL     1      27.605  -2.482  52.626  1.00  0.00     0.001 A 
HETATM   20  C15 UNL     1      26.877  -1.313  52.677  1.00  0.00     0.016 A 
ENDBRANCH   9  11
BRANCH   1  21
HETATM   21  O1  UNL     1      23.438   3.934  48.449  1.00  0.00    -0.360 OA
HETATM   22  C1  UNL     1      23.365   5.331  48.376  1.00  0.00     0.209 C 
ENDBRANCH   1  21
TORSDOF 2
ENDMDL
MODEL 2
REMARK VINA RESULT:      -8.6      2.044      3.379
REMARK  2 active torsions:
REMARK  status: ('A' for Active; 'I' for Inactive)
REMARK    1  A    between atoms: O1_2  and  C2_3 
REMARK    2  A    between atoms: N3_11  and  C8_12 
ROOT
HETATM    1  C2  UNL     1      22.015  -0.197  53.420  1.00  0.00     0.051 A 
HETATM    2  C3  UNL     1      23.115  -0.516  54.083  1.00  0.00     0.035 A 
HETATM    3  C4  UNL     1      24.388   0.053  53.643  1.00  0.00     0.036 A 
HETATM    4  C5  UNL     1      24.371   0.851  52.612  1.00  0.00     0.085 A 
HETATM    5  C6  UNL     1      23.187   1.220  51.867  1.00  0.00     0.070 A 
HETATM    6  N1  UNL     1      23.262   2.037  50.849  1.00  0.00    -0.242 NA
HETATM    7  C7  UNL     1      24.551   2.567  50.479  1.00  0.00     0.256 A 
HETATM    8  N2  UNL     1      25.633   2.271  51.108  1.00  0.00    -0.159 NA
HETATM    9  N3  UNL     1      25.624   1.391  52.221  1.00  0.00    -0.212 N 
HETATM   10  C17 UNL     1      21.880   0.690  52.241  1.00  0.00     0.126 A 
ENDROOT
BRANCH   9  11
HETATM   11  C8  UNL     1      26.900   1.166  52.814  1.00  0.00     0.162 A 
HETATM   12  N4  UNL     1      27.545   2.258  53.313  1.00  0.00    -0.241 NA
HETATM   13  C9  UNL     1      28.778   2.149  53.891  1.00  0.00     0.120 A 
HETATM   14  C10 UNL     1      29.394   0.905  53.976  1.00  0.00     0.031 A 
HETATM   15  C11 UNL     1      28.734  -0.207  53.465  1.00  0.00    -0.021 A 
HETATM   16  C12 UNL     1      29.375  -1.433  53.560  1.00  0.00     0.012 A 
HETATM   17  C16 UNL     1      27.477  -0.078  52.879  1.00  0.00     0.022 A 
HETATM   18  C13 UNL     1      28.657  -2.482  53.026  1.00  0.00     0.001 A 
HETATM   19  C14 UNL     1      27.415  -2.421  52.436  1.00  0.00     0.001 A 
HETATM   20  C15 UNL     1      26.817  -1.182  52.366  1.00  0.00     0.016 A 
ENDBRANCH   9  11
BRANCH   1  21
HETATM   21  O1  UNL     1      20.768  -0.719  53.807  1.00  0.00    -0.360 OA
HETATM   22  C1  UNL     1      19.550  -0.373  53.208  1.00  0.00     0.209 C 
ENDBRANCH   1  21
TORSDOF 2
ENDMDL
MODEL 3
REMARK VINA RESULT:      -8.2      2.741      6.542
REMARK  2 active torsions:
REMARK  status: ('A' for Active; 'I' for Inactive)
REMARK    1  A    between atoms: O1_2  and  C2_3 
REMARK    2  A    between atoms: N3_11  and  C8_12 
ROOT
HETATM    1  C2  UNL     1      27.528  -0.941  53.216  1.00  0.00     0.051 A 
HETATM    2  C3  UNL     1      26.505  -1.383  52.503  1.00  0.00     0.035 A 
HETATM    3  C4  UNL     1      25.354  -0.503  52.307  1.00  0.00     0.036 A 
HETATM    4  C5  UNL     1      25.399   0.681  52.850  1.00  0.00     0.085 A 
HETATM    5  C6  UNL     1      26.501   1.196  53.633  1.00  0.00     0.070 A 
HETATM    6  N1  UNL     1      26.464   2.404  54.133  1.00  0.00    -0.242 NA
HETATM    7  C7  UNL     1      25.300   3.218  53.889  1.00  0.00     0.256 A 
HETATM    8  N2  UNL     1      24.294   2.810  53.200  1.00  0.00    -0.159 NA
HETATM    9  N3  UNL     1      24.267   1.511  52.630  1.00  0.00    -0.212 N 
HETATM   10  C17 UNL     1      27.683   0.376  53.877  1.00  0.00     0.126 A 
ENDROOT
BRANCH   9  11
HETATM   11  C8  UNL     1      23.088   1.208  51.890  1.00  0.00     0.162 A 
HETATM   12  N4  UNL     1      23.089   1.542  50.569  1.00  0.00    -0.241 NA
HETATM   13  C9  UNL     1      22.002   1.303  49.778  1.00  0.00     0.120 A 
HETATM   14  C10 UNL     1      20.868   0.709  50.322  1.00  0.00     0.031 A 
HETATM   15  C11 UNL     1      20.869   0.370  51.670  1.00  0.00    -0.021 A 
HETATM   16  C12 UNL     1      19.723  -0.216  52.185  1.00  0.00     0.012 A 
HETATM   17  C16 UNL     1      21.987   0.620  52.463  1.00  0.00     0.022 A 
HETATM   18  C13 UNL     1      19.804  -0.516  53.528  1.00  0.00     0.001 A 
HETATM   19  C14 UNL     1      20.875  -0.296  54.364  1.00  0.00     0.001 A 
HETATM   20  C15 UNL     1      21.991   0.288  53.807  1.00  0.00     0.016 A 
ENDBRANCH   9  11
BRANCH   1  21
HETATM   21  O1  UNL     1      28.657  -1.751  53.430  1.00  0.00    -0.360 OA
HETATM   22  C1  UNL     1      29.941  -1.258  53.695  1.00  0.00     0.209 C 
ENDBRANCH   1  21
TORSDOF 2
ENDMDL
MODEL 4
REMARK VINA RESULT:      -8.1      2.346      4.132
REMARK  2 active torsions:
REMARK  status: ('A' for Active; 'I' for Inactive)
REMARK    1  A    between atoms: O1_2  and  C2_3 
REMARK    2  A    between atoms: N3_11  and  C8_12 
ROOT
HETATM    1  C2  UNL     1      22.203   3.272  47.472  1.00  0.00     0.051 A 
HETATM    2  C3  UNL     1      22.248   2.082  48.049  1.00  0.00     0.035 A 
HETATM    3  C4  UNL     1      22.569   2.006  49.474  1.00  0.00     0.036 A 
HETATM    4  C5  UNL     1      22.796   3.124  50.104  1.00  0.00     0.085 A 
HETATM    5  C6  UNL     1      22.754   4.440  49.503  1.00  0.00     0.070 A 
HETATM    6  N1  UNL     1      22.986   5.511  50.216  1.00  0.00    -0.242 NA
HETATM    7  C7  UNL     1      23.286   5.359  51.617  1.00  0.00     0.256 A 
HETATM    8  N2  UNL     1      23.336   4.214  52.200  1.00  0.00    -0.159 NA
HETATM    9  N3  UNL     1      23.096   3.011  51.487  1.00  0.00    -0.212 N 
HETATM   10  C17 UNL     1      22.445   4.598  48.086  1.00  0.00     0.126 A 
ENDROOT
BRANCH   9  11
HETATM   11  C8  UNL     1      23.181   1.824  52.272  1.00  0.00     0.162 A 
HETATM   12  N4  UNL     1      22.044   1.428  52.910  1.00  0.00    -0.241 NA
HETATM   13  C9  UNL     1      22.027   0.311  53.695  1.00  0.00     0.120 A 
HETATM   14  C10 UNL     1      23.186  -0.442  53.853  1.00  0.00     0.031 A 
HETATM   15  C11 UNL     1      24.344  -0.034  53.202  1.00  0.00    -0.021 A 
HETATM   16  C12 UNL     1      25.485  -0.802  53.382  1.00  0.00     0.012 A 
HETATM   17  C16 UNL     1      24.345   1.108  52.404  1.00  0.00     0.022 A 
HETATM   18  C13 UNL     1      26.590  -0.327  52.707  1.00  0.00     0.001 A 
HETATM   19  C14 UNL     1      26.656   0.790  51.906  1.00  0.00     0.001 A 
HETATM   20  C15 UNL     1      25.497   1.520  51.756  1.00  0.00     0.016 A 
ENDBRANCH   9  11
BRANCH   1  21
HETATM   21  O1  UNL     1      21.898   3.394  46.105  1.00  0.00    -0.360 OA
HETATM   22  C1  UNL     1      21.878   4.610  45.409  1.00  0.00     0.209 C 
ENDBRANCH   1  21
TORSDOF 2
ENDMDL
MODEL 5
REMARK VINA RESULT:      -8.0      2.498      6.291
REMARK  2 active torsions:
REMARK  status: ('A' for Active; 'I' for Inactive)
REMARK    1  A    between atoms: O1_2  and  C2_3 
REMARK    2  A    between atoms: N3_11  and  C8_12 
ROOT
HETATM    1  C2  UNL     1      26.607  -0.460  53.097  1.00  0.00     0.051 A 
HETATM    2  C3  UNL     1      26.767   0.554  52.261  1.00  0.00     0.035 A 
HETATM    3  C4  UNL     1      25.606   1.377  51.925  1.00  0.00     0.036 A 
HETATM    4  C5  UNL     1      24.465   1.065  52.473  1.00  0.00     0.085 A 
HETATM    5  C6  UNL     1      24.256  -0.033  53.391  1.00  0.00     0.070 A 
HETATM    6  N1  UNL     1      23.075  -0.267  53.901  1.00  0.00    -0.242 NA
HETATM    7  C7  UNL     1      21.978   0.593  53.532  1.00  0.00     0.256 A 
HETATM    8  N2  UNL     1      22.110   1.583  52.722  1.00  0.00    -0.159 NA
HETATM    9  N3  UNL     1      23.363   1.892  52.131  1.00  0.00    -0.212 N 
HETATM   10  C17 UNL     1      25.364  -0.903  53.771  1.00  0.00     0.126 A 
ENDROOT
BRANCH   9  11
HETATM   11  C8  UNL     1      23.349   3.020  51.260  1.00  0.00     0.162 A 
HETATM   12  N4  UNL     1      23.774   4.205  51.784  1.00  0.00    -0.241 NA
HETATM   13  C9  UNL     1      23.788   5.345  51.033  1.00  0.00     0.120 A 
HETATM   14  C10 UNL     1      23.362   5.307  49.710  1.00  0.00     0.031 A 
HETATM   15  C11 UNL     1      22.928   4.098  49.179  1.00  0.00    -0.021 A 
HETATM   16  C12 UNL     1      22.504   4.093  47.858  1.00  0.00     0.012 A 
HETATM   17  C16 UNL     1      22.920   2.944  49.958  1.00  0.00     0.022 A 
HETATM   18  C13 UNL     1      22.085   2.858  47.411  1.00  0.00     0.001 A 
HETATM   19  C14 UNL     1      22.054   1.683  48.128  1.00  0.00     0.001 A 
HETATM   20  C15 UNL     1      22.486   1.738  49.435  1.00  0.00     0.016 A 
ENDBRANCH   9  11
BRANCH   1  21
HETATM   21  O1  UNL     1      27.694  -1.277  53.450  1.00  0.00    -0.360 OA
HETATM   22  C1  UNL     1      29.031  -0.859  53.433  1.00  0.00     0.209 C 
ENDBRANCH   1  21
TORSDOF 2
ENDMDL
MODEL 6
REMARK VINA RESULT:      -7.9      4.011      6.155
REMARK  2 active torsions:
REMARK  status: ('A' for Active; 'I' for Inactive)
REMARK    1  A    between atoms: O1_2  and  C2_3 
REMARK    2  A    between atoms: N3_11  and  C8_12 
ROOT
HETATM    1  C2  UNL     1      27.595   5.671  48.584  1.00  0.00     0.051 A 
HETATM    2  C3  UNL     1      27.293   4.411  48.857  1.00  0.00     0.035 A 
HETATM    3  C4  UNL     1      26.090   4.133  49.641  1.00  0.00     0.036 A 
HETATM    4  C5  UNL     1      25.374   5.149  50.033  1.00  0.00     0.085 A 
HETATM    5  C6  UNL     1      25.675   6.536  49.751  1.00  0.00     0.070 A 
HETATM    6  N1  UNL     1      24.892   7.493  50.176  1.00  0.00    -0.242 NA
HETATM    7  C7  UNL     1      23.718   7.142  50.935  1.00  0.00     0.256 A 
HETATM    8  N2  UNL     1      23.405   5.926  51.213  1.00  0.00    -0.159 NA
HETATM    9  N3  UNL     1      24.210   4.839  50.783  1.00  0.00    -0.212 N 
HETATM   10  C17 UNL     1      26.860   6.895  48.978  1.00  0.00     0.126 A 
ENDROOT
BRANCH   9  11
HETATM   11  C8  UNL     1      23.728   3.553  51.164  1.00  0.00     0.162 A 
HETATM   12  N4  UNL     1      24.084   3.106  52.402  1.00  0.00    -0.241 NA
HETATM   13  C9  UNL     1      23.682   1.882  52.854  1.00  0.00     0.120 A 
HETATM   14  C10 UNL     1      22.896   1.070  52.045  1.00  0.00     0.031 A 
HETATM   15  C11 UNL     1      22.536   1.527  50.783  1.00  0.00    -0.021 A 
HETATM   16  C12 UNL     1      21.756   0.692  49.996  1.00  0.00     0.012 A 
HETATM   17  C16 UNL     1      22.953   2.779  50.336  1.00  0.00     0.022 A 
HETATM   18  C13 UNL     1      21.447   1.218  48.759  1.00  0.00     0.001 A 
HETATM   19  C14 UNL     1      21.827   2.443  48.261  1.00  0.00     0.001 A 
HETATM   20  C15 UNL     1      22.600   3.237  49.079  1.00  0.00     0.016 A 
ENDBRANCH   9  11
BRANCH   1  21
HETATM   21  O1  UNL     1      28.740   5.987  47.833  1.00  0.00    -0.360 OA
HETATM   22  C1  UNL     1      30.053   5.777  48.274  1.00  0.00     0.209 C 
ENDBRANCH   1  21
TORSDOF 2
ENDMDL
MODEL 7
REMARK VINA RESULT:      -7.9      2.600      4.574
REMARK  2 active torsions:
REMARK  status: ('A' for Active; 'I' for Inactive)
REMARK    1  A    between atoms: O1_2  and  C2_3 
REMARK    2  A    between atoms: N3_11  and  C8_12 
ROOT
HETATM    1  C2  UNL     1      21.671   3.175  47.955  1.00  0.00     0.051 A 
HETATM    2  C3  UNL     1      22.044   1.983  48.394  1.00  0.00     0.035 A 
HETATM    3  C4  UNL     1      22.621   1.878  49.733  1.00  0.00     0.036 A 
HETATM    4  C5  UNL     1      22.739   2.974  50.429  1.00  0.00     0.085 A 
HETATM    5  C6  UNL     1      22.340   4.290  49.981  1.00  0.00     0.070 A 
HETATM    6  N1  UNL     1      22.486   5.336  50.752  1.00  0.00    -0.242 NA
HETATM    7  C7  UNL     1      23.054   5.154  52.065  1.00  0.00     0.256 A 
HETATM    8  N2  UNL     1      23.424   4.007  52.512  1.00  0.00    -0.159 NA
HETATM    9  N3  UNL     1      23.295   2.831  51.728  1.00  0.00    -0.212 N 
HETATM   10  C17 UNL     1      21.760   4.478  48.655  1.00  0.00     0.126 A 
ENDROOT
BRANCH   9  11
HETATM   11  C8  UNL     1      23.743   1.637  52.364  1.00  0.00     0.162 A 
HETATM   12  N4  UNL     1      25.053   1.303  52.188  1.00  0.00    -0.241 NA
HETATM   13  C9  UNL     1      25.575   0.172  52.747  1.00  0.00     0.120 A 
HETATM   14  C10 UNL     1      24.764  -0.660  53.511  1.00  0.00     0.031 A 
HETATM   15  C11 UNL     1      23.429  -0.317  53.687  1.00  0.00    -0.021 A 
HETATM   16  C12 UNL     1      22.643  -1.169  54.449  1.00  0.00     0.012 A 
HETATM   17  C16 UNL     1      22.911   0.840  53.110  1.00  0.00     0.022 A 
HETATM   18  C13 UNL     1      21.332  -0.761  54.571  1.00  0.00     0.001 A 
HETATM   19  C14 UNL     1      20.761   0.368  54.028  1.00  0.00     0.001 A 
HETATM   20  C15 UNL     1      21.581   1.184  53.280  1.00  0.00     0.016 A 
ENDBRANCH   9  11
BRANCH   1  21
HETATM   21  O1  UNL     1      21.110   3.324  46.675  1.00  0.00    -0.360 OA
HETATM   22  C1  UNL     1      21.814   3.790  45.557  1.00  0.00     0.209 C 
ENDBRANCH   1  21
TORSDOF 2
ENDMDL
MODEL 8
REMARK VINA RESULT:      -7.9      2.653      6.652
REMARK  2 active torsions:
REMARK  status: ('A' for Active; 'I' for Inactive)
REMARK    1  A    between atoms: O1_2  and  C2_3 
REMARK    2  A    between atoms: N3_11  and  C8_12 
ROOT
HETATM    1  C2  UNL     1      27.497  -0.992  53.284  1.00  0.00     0.051 A 
HETATM    2  C3  UNL     1      26.347  -1.568  52.970  1.00  0.00     0.035 A 
HETATM    3  C4  UNL     1      25.138  -0.746  52.933  1.00  0.00     0.036 A 
HETATM    4  C5  UNL     1      25.259   0.521  53.214  1.00  0.00     0.085 A 
HETATM    5  C6  UNL     1      26.499   1.181  53.560  1.00  0.00     0.070 A 
HETATM    6  N1  UNL     1      26.528   2.463  53.818  1.00  0.00    -0.242 NA
HETATM    7  C7  UNL     1      25.297   3.211  53.752  1.00  0.00     0.256 A 
HETATM    8  N2  UNL     1      24.169   2.673  53.449  1.00  0.00    -0.159 NA
HETATM    9  N3  UNL     1      24.065   1.288  53.158  1.00  0.00    -0.212 N 
HETATM   10  C17 UNL     1      27.747   0.429  53.623  1.00  0.00     0.126 A 
ENDROOT
BRANCH   9  11
HETATM   11  C8  UNL     1      22.751   0.843  52.835  1.00  0.00     0.162 A 
HETATM   12  N4  UNL     1      22.060   0.203  53.820  1.00  0.00    -0.241 NA
HETATM   13  C9  UNL     1      20.798  -0.272  53.606  1.00  0.00     0.120 A 
HETATM   14  C10 UNL     1      20.198  -0.103  52.363  1.00  0.00     0.031 A 
HETATM   15  C11 UNL     1      20.905   0.549  51.359  1.00  0.00    -0.021 A 
HETATM   16  C12 UNL     1      20.283   0.697  50.129  1.00  0.00     0.012 A 
HETATM   17  C16 UNL     1      22.192   1.027  51.594  1.00  0.00     0.022 A 
HETATM   18  C13 UNL     1      21.053   1.350  49.188  1.00  0.00     0.001 A 
HETATM   19  C14 UNL     1      22.325   1.844  49.358  1.00  0.00     0.001 A 
HETATM   20  C15 UNL     1      22.902   1.674  50.598  1.00  0.00     0.016 A 
ENDBRANCH   9  11
BRANCH   1  21
HETATM   21  O1  UNL     1      28.685  -1.741  53.332  1.00  0.00    -0.360 OA
HETATM   22  C1  UNL     1      29.902  -1.256  53.828  1.00  0.00     0.209 C 
ENDBRANCH   1  21
TORSDOF 2
ENDMDL
MODEL 9
REMARK VINA RESULT:      -7.8      2.671      6.561
REMARK  2 active torsions:
REMARK  status: ('A' for Active; 'I' for Inactive)
REMARK    1  A    between atoms: O1_2  and  C2_3 
REMARK    2  A    between atoms: N3_11  and  C8_12 
ROOT
HETATM    1  C2  UNL     1      26.405  -0.281  53.627  1.00  0.00     0.051 A 
HETATM    2  C3  UNL     1      26.466   0.510  52.568  1.00  0.00     0.035 A 
HETATM    3  C4  UNL     1      25.219   1.021  52.001  1.00  0.00     0.036 A 
HETATM    4  C5  UNL     1      24.104   0.666  52.575  1.00  0.00     0.085 A 
HETATM    5  C6  UNL     1      24.002  -0.195  53.733  1.00  0.00     0.070 A 
HETATM    6  N1  UNL     1      22.837  -0.491  54.250  1.00  0.00    -0.242 NA
HETATM    7  C7  UNL     1      21.651   0.057  53.643  1.00  0.00     0.256 A 
HETATM    8  N2  UNL     1      21.685   0.827  52.614  1.00  0.00    -0.159 NA
HETATM    9  N3  UNL     1      22.914   1.188  52.002  1.00  0.00    -0.212 N 
HETATM   10  C17 UNL     1      25.201  -0.748  54.353  1.00  0.00     0.126 A 
ENDROOT
BRANCH   9  11
HETATM   11  C8  UNL     1      22.789   2.052  50.875  1.00  0.00     0.162 A 
HETATM   12  N4  UNL     1      22.484   1.465  49.683  1.00  0.00    -0.241 NA
HETATM   13  C9  UNL     1      22.354   2.205  48.543  1.00  0.00     0.120 A 
HETATM   14  C10 UNL     1      22.534   3.583  48.589  1.00  0.00     0.031 A 
HETATM   15  C11 UNL     1      22.845   4.179  49.806  1.00  0.00    -0.021 A 
HETATM   16  C12 UNL     1      23.024   5.554  49.819  1.00  0.00     0.012 A 
HETATM   17  C16 UNL     1      22.974   3.410  50.960  1.00  0.00     0.022 A 
HETATM   18  C13 UNL     1      23.335   6.065  51.062  1.00  0.00     0.001 A 
HETATM   19  C14 UNL     1      23.476   5.361  52.236  1.00  0.00     0.001 A 
HETATM   20  C15 UNL     1      23.288   3.998  52.173  1.00  0.00     0.016 A 
ENDBRANCH   9  11
BRANCH   1  21
HETATM   21  O1  UNL     1      27.578  -0.795  54.207  1.00  0.00    -0.360 OA
HETATM   22  C1  UNL     1      28.658  -0.007  54.626  1.00  0.00     0.209 C 
ENDBRANCH   1  21
TORSDOF 2
ENDMDL
