MODEL 1
REMARK VINA RESULT:      -7.5      0.000      0.000
REMARK  6 active torsions:
REMARK  status: ('A' for Active; 'I' for Inactive)
REMARK    1  A    between atoms: O1_2  and  C2_3 
REMARK    2  A    between atoms: C6_9  and  N3_10 
REMARK    3  A    between atoms: N3_10  and  C8_12 
REMARK    4  A    between atoms: C9_13  and  C10_15 
REMARK    5  A    between atoms: C11_16  and  C12_17 
REMARK    6  A    between atoms: C12_17  and  O2_18 
ROOT
HETATM    1  C2  UNL     1      27.273   0.189  53.972  1.00  0.00     0.076 A 
HETATM    2  C3  UNL     1      26.074  -0.480  53.908  1.00  0.00     0.070 A 
HETATM    3  C4  UNL     1      24.938   0.162  53.465  1.00  0.00     0.074 A 
HETATM    4  N1  UNL     1      23.802  -0.586  53.439  1.00  0.00    -0.241 NA
HETATM    5  C5  UNL     1      22.646   0.002  53.008  1.00  0.00     0.236 A 
HETATM    6  N2  UNL     1      22.663   1.292  52.626  1.00  0.00    -0.223 NA
HETATM    7  C6  UNL     1      23.762   2.070  52.635  1.00  0.00     0.143 A 
HETATM    8  C13 UNL     1      24.942   1.488  53.069  1.00  0.00     0.040 A 
HETATM    9  C14 UNL     1      26.145   2.158  53.133  1.00  0.00     0.027 A 
HETATM   10  C15 UNL     1      27.315   1.532  53.579  1.00  0.00    -0.028 A 
HETATM   11  C16 UNL     1      28.537   2.411  53.584  1.00  0.00     0.051 C 
ENDROOT
BRANCH   7  12
HETATM   12  N3  UNL     1      23.783   3.433  52.229  1.00  0.00    -0.344 N 
HETATM   13  C7  UNL     1      22.972   4.545  52.748  1.00  0.00     0.157 C 
BRANCH  12  14
HETATM   14  C8  UNL     1      24.612   3.992  51.220  1.00  0.00     0.116 C 
HETATM   15  C9  UNL     1      24.550   3.840  49.912  1.00  0.00     0.049 C 
HETATM   16 CL1  UNL     1      23.331   2.839  49.160  1.00  0.00    -0.083 Cl
BRANCH  15  17
HETATM   17  C10 UNL     1      25.526   4.555  49.106  1.00  0.00     0.023 C 
HETATM   18  C11 UNL     1      26.819   4.309  49.282  1.00  0.00     0.000 C 
BRANCH  18  19
HETATM   19  C12 UNL     1      27.903   4.954  48.541  1.00  0.00     0.191 C 
BRANCH  19  20
HETATM   20  O2  UNL     1      28.067   6.251  49.072  1.00  0.00    -0.397 OA
HETATM   21  H14 UNL     1      28.643   6.199  49.876  1.00  0.00     0.209 HD
ENDBRANCH  19  20
ENDBRANCH  18  19
ENDBRANCH  15  17
ENDBRANCH  12  14
ENDBRANCH   7  12
BRANCH   1  22
HETATM   22  O1  UNL     1      28.533  -0.223  54.374  1.00  0.00    -0.355 OA
HETATM   23  C1  UNL     1      29.225  -1.143  53.558  1.00  0.00     0.210 C 
ENDBRANCH   1  22
TORSDOF 6
ENDMDL
MODEL 2
REMARK VINA RESULT:      -7.2      2.728      3.201
REMARK  6 active torsions:
REMARK  status: ('A' for Active; 'I' for Inactive)
REMARK    1  A    between atoms: O1_2  and  C2_3 
REMARK    2  A    between atoms: C6_9  and  N3_10 
REMARK    3  A    between atoms: N3_10  and  C8_12 
REMARK    4  A    between atoms: C9_13  and  C10_15 
REMARK    5  A    between atoms: C11_16  and  C12_17 
REMARK    6  A    between atoms: C12_17  and  O2_18 
ROOT
HETATM    1  C2  UNL     1      26.045  -0.503  53.844  1.00  0.00     0.076 A 
HETATM    2  C3  UNL     1      24.959  -0.910  54.582  1.00  0.00     0.070 A 
HETATM    3  C4  UNL     1      23.682  -0.564  54.196  1.00  0.00     0.074 A 
HETATM    4  N1  UNL     1      22.675  -1.013  54.992  1.00  0.00    -0.241 NA
HETATM    5  C5  UNL     1      21.389  -0.699  54.655  1.00  0.00     0.236 A 
HETATM    6  N2  UNL     1      21.156   0.040  53.555  1.00  0.00    -0.223 NA
HETATM    7  C6  UNL     1      22.119   0.506  52.738  1.00  0.00     0.143 A 
HETATM    8  C13 UNL     1      23.429   0.196  53.067  1.00  0.00     0.040 A 
HETATM    9  C14 UNL     1      24.519   0.602  52.327  1.00  0.00     0.027 A 
HETATM   10  C15 UNL     1      25.827   0.266  52.695  1.00  0.00    -0.028 A 
HETATM   11  C16 UNL     1      26.895   0.793  51.774  1.00  0.00     0.051 C 
ENDROOT
BRANCH   7  12
HETATM   12  N3  UNL     1      21.876   1.286  51.574  1.00  0.00    -0.344 N 
HETATM   13  C7  UNL     1      21.414   0.824  50.255  1.00  0.00     0.157 C 
BRANCH  12  14
HETATM   14  C8  UNL     1      22.036   2.693  51.460  1.00  0.00     0.116 C 
HETATM   15  C9  UNL     1      21.144   3.648  51.626  1.00  0.00     0.049 C 
HETATM   16 CL1  UNL     1      19.485   3.294  52.045  1.00  0.00    -0.083 Cl
BRANCH  15  17
HETATM   17  C10 UNL     1      21.593   5.022  51.465  1.00  0.00     0.023 C 
HETATM   18  C11 UNL     1      22.888   5.267  51.304  1.00  0.00     0.000 C 
BRANCH  18  19
HETATM   19  C12 UNL     1      23.474   6.596  51.132  1.00  0.00     0.191 C 
BRANCH  19  20
HETATM   20  O2  UNL     1      24.427   6.777  52.157  1.00  0.00    -0.397 OA
HETATM   21  H14 UNL     1      24.998   5.971  52.210  1.00  0.00     0.209 HD
ENDBRANCH  19  20
ENDBRANCH  18  19
ENDBRANCH  15  17
ENDBRANCH  12  14
ENDBRANCH   7  12
BRANCH   1  22
HETATM   22  O1  UNL     1      27.403  -0.715  54.018  1.00  0.00    -0.355 OA
HETATM   23  C1  UNL     1      28.093   0.104  54.935  1.00  0.00     0.210 C 
ENDBRANCH   1  22
TORSDOF 6
ENDMDL
MODEL 3
REMARK VINA RESULT:      -7.1      3.135      5.299
REMARK  6 active torsions:
REMARK  status: ('A' for Active; 'I' for Inactive)
REMARK    1  A    between atoms: O1_2  and  C2_3 
REMARK    2  A    between atoms: C6_9  and  N3_10 
REMARK    3  A    between atoms: N3_10  and  C8_12 
REMARK    4  A    between atoms: C9_13  and  C10_15 
REMARK    5  A    between atoms: C11_16  and  C12_17 
REMARK    6  A    between atoms: C12_17  and  O2_18 
ROOT
HETATM    1  C2  UNL     1      20.705  -0.244  53.131  1.00  0.00     0.076 A 
HETATM    2  C3  UNL     1      21.181  -0.684  54.342  1.00  0.00     0.070 A 
HETATM    3  C4  UNL     1      22.534  -0.846  54.545  1.00  0.00     0.074 A 
HETATM    4  N1  UNL     1      22.905  -1.287  55.777  1.00  0.00    -0.241 NA
HETATM    5  C5  UNL     1      24.235  -1.466  56.032  1.00  0.00     0.236 A 
HETATM    6  N2  UNL     1      25.134  -1.203  55.066  1.00  0.00    -0.223 NA
HETATM    7  C6  UNL     1      24.815  -0.765  53.834  1.00  0.00     0.143 A 
HETATM    8  C13 UNL     1      23.469  -0.580  53.560  1.00  0.00     0.040 A 
HETATM    9  C14 UNL     1      22.992  -0.138  52.345  1.00  0.00     0.027 A 
HETATM   10  C15 UNL     1      21.623   0.036  52.110  1.00  0.00    -0.028 A 
HETATM   11  C16 UNL     1      21.277   0.526  50.729  1.00  0.00     0.051 C 
ENDROOT
BRANCH   7  12
HETATM   12  N3  UNL     1      25.763  -0.485  52.811  1.00  0.00    -0.344 N 
HETATM   13  C7  UNL     1      26.730  -1.407  52.195  1.00  0.00     0.157 C 
BRANCH  12  14
HETATM   14  C8  UNL     1      25.961   0.770  52.176  1.00  0.00     0.116 C 
HETATM   15  C9  UNL     1      26.927   1.648  52.351  1.00  0.00     0.049 C 
HETATM   16 CL1  UNL     1      28.222   1.376  53.492  1.00  0.00    -0.083 Cl
BRANCH  15  17
HETATM   17  C10 UNL     1      26.892   2.856  51.541  1.00  0.00     0.023 C 
HETATM   18  C11 UNL     1      26.503   2.778  50.274  1.00  0.00     0.000 C 
BRANCH  18  19
HETATM   19  C12 UNL     1      26.420   3.910  49.352  1.00  0.00     0.191 C 
BRANCH  19  20
HETATM   20  O2  UNL     1      27.671   4.563  49.368  1.00  0.00    -0.397 OA
HETATM   21  H14 UNL     1      28.081   4.495  48.470  1.00  0.00     0.209 HD
ENDBRANCH  19  20
ENDBRANCH  18  19
ENDBRANCH  15  17
ENDBRANCH  12  14
ENDBRANCH   7  12
BRANCH   1  22
HETATM   22  O1  UNL     1      19.417  -0.004  52.684  1.00  0.00    -0.355 OA
HETATM   23  C1  UNL     1      18.406  -0.920  53.043  1.00  0.00     0.210 C 
ENDBRANCH   1  22
TORSDOF 6
ENDMDL
MODEL 4
REMARK VINA RESULT:      -6.9      2.476      5.085
REMARK  6 active torsions:
REMARK  status: ('A' for Active; 'I' for Inactive)
REMARK    1  A    between atoms: O1_2  and  C2_3 
REMARK    2  A    between atoms: C6_9  and  N3_10 
REMARK    3  A    between atoms: N3_10  and  C8_12 
REMARK    4  A    between atoms: C9_13  and  C10_15 
REMARK    5  A    between atoms: C11_16  and  C12_17 
REMARK    6  A    between atoms: C12_17  and  O2_18 
ROOT
HETATM    1  C2  UNL     1      26.825   0.161  53.070  1.00  0.00     0.076 A 
HETATM    2  C3  UNL     1      27.260   1.071  52.137  1.00  0.00     0.070 A 
HETATM    3  C4  UNL     1      26.401   2.024  51.635  1.00  0.00     0.074 A 
HETATM    4  N1  UNL     1      26.927   2.878  50.716  1.00  0.00    -0.241 NA
HETATM    5  C5  UNL     1      26.118   3.843  50.186  1.00  0.00     0.236 A 
HETATM    6  N2  UNL     1      24.835   3.923  50.585  1.00  0.00    -0.223 NA
HETATM    7  C6  UNL     1      24.272   3.102  51.491  1.00  0.00     0.143 A 
HETATM    8  C13 UNL     1      25.080   2.117  52.037  1.00  0.00     0.040 A 
HETATM    9  C14 UNL     1      24.644   1.205  52.974  1.00  0.00     0.027 A 
HETATM   10  C15 UNL     1      25.494   0.225  53.500  1.00  0.00    -0.028 A 
HETATM   11  C16 UNL     1      24.853  -0.687  54.513  1.00  0.00     0.051 C 
ENDROOT
BRANCH   7  12
HETATM   12  N3  UNL     1      22.917   3.185  51.916  1.00  0.00    -0.344 N 
HETATM   13  C7  UNL     1      22.107   4.395  52.129  1.00  0.00     0.157 C 
BRANCH  12  14
HETATM   14  C8  UNL     1      22.068   2.088  52.223  1.00  0.00     0.116 C 
HETATM   15  C9  UNL     1      21.528   1.201  51.412  1.00  0.00     0.049 C 
HETATM   16 CL1  UNL     1      21.799   1.248  49.687  1.00  0.00    -0.083 Cl
BRANCH  15  17
HETATM   17  C10 UNL     1      20.705   0.160  52.007  1.00  0.00     0.023 C 
HETATM   18  C11 UNL     1      21.000  -0.286  53.223  1.00  0.00     0.000 C 
BRANCH  18  19
HETATM   19  C12 UNL     1      20.259  -1.325  53.936  1.00  0.00     0.191 C 
BRANCH  19  20
HETATM   20  O2  UNL     1      21.066  -1.763  55.008  1.00  0.00    -0.397 OA
HETATM   21  H14 UNL     1      21.515  -0.979  55.413  1.00  0.00     0.209 HD
ENDBRANCH  19  20
ENDBRANCH  18  19
ENDBRANCH  15  17
ENDBRANCH  12  14
ENDBRANCH   7  12
BRANCH   1  22
HETATM   22  O1  UNL     1      27.479  -0.875  53.716  1.00  0.00    -0.355 OA
HETATM   23  C1  UNL     1      28.880  -0.966  53.580  1.00  0.00     0.210 C 
ENDBRANCH   1  22
TORSDOF 6
ENDMDL
MODEL 5
REMARK VINA RESULT:      -6.7      1.966      2.350
REMARK  6 active torsions:
REMARK  status: ('A' for Active; 'I' for Inactive)
REMARK    1  A    between atoms: O1_2  and  C2_3 
REMARK    2  A    between atoms: C6_9  and  N3_10 
REMARK    3  A    between atoms: N3_10  and  C8_12 
REMARK    4  A    between atoms: C9_13  and  C10_15 
REMARK    5  A    between atoms: C11_16  and  C12_17 
REMARK    6  A    between atoms: C12_17  and  O2_18 
ROOT
HETATM    1  C2  UNL     1      27.451   0.253  54.224  1.00  0.00     0.076 A 
HETATM    2  C3  UNL     1      26.303  -0.497  54.315  1.00  0.00     0.070 A 
HETATM    3  C4  UNL     1      25.100   0.008  53.871  1.00  0.00     0.074 A 
HETATM    4  N1  UNL     1      24.023  -0.812  54.005  1.00  0.00    -0.241 NA
HETATM    5  C5  UNL     1      22.805  -0.360  53.581  1.00  0.00     0.236 A 
HETATM    6  N2  UNL     1      22.706   0.871  53.047  1.00  0.00    -0.223 NA
HETATM    7  C6  UNL     1      23.743   1.715  52.894  1.00  0.00     0.143 A 
HETATM    8  C13 UNL     1      24.984   1.272  53.320  1.00  0.00     0.040 A 
HETATM    9  C14 UNL     1      26.136   2.024  53.228  1.00  0.00     0.027 A 
HETATM   10  C15 UNL     1      27.372   1.537  53.671  1.00  0.00    -0.028 A 
HETATM   11  C16 UNL     1      28.524   2.490  53.495  1.00  0.00     0.051 C 
ENDROOT
BRANCH   7  12
HETATM   12  N3  UNL     1      23.641   3.016  52.328  1.00  0.00    -0.344 N 
HETATM   13  C7  UNL     1      23.768   4.314  53.010  1.00  0.00     0.157 C 
BRANCH  12  14
HETATM   14  C8  UNL     1      23.392   3.317  50.962  1.00  0.00     0.116 C 
HETATM   15  C9  UNL     1      24.251   3.570  49.995  1.00  0.00     0.049 C 
HETATM   16 CL1  UNL     1      25.976   3.574  50.276  1.00  0.00    -0.083 Cl
BRANCH  15  17
HETATM   17  C10 UNL     1      23.713   3.829  48.669  1.00  0.00     0.023 C 
HETATM   18  C11 UNL     1      22.565   3.265  48.312  1.00  0.00     0.000 C 
BRANCH  18  19
HETATM   19  C12 UNL     1      21.913   3.440  47.015  1.00  0.00     0.191 C 
BRANCH  19  20
HETATM   20  O2  UNL     1      22.266   4.718  46.531  1.00  0.00    -0.397 OA
HETATM   21  H14 UNL     1      23.178   4.676  46.148  1.00  0.00     0.209 HD
ENDBRANCH  19  20
ENDBRANCH  18  19
ENDBRANCH  15  17
ENDBRANCH  12  14
ENDBRANCH   7  12
BRANCH   1  22
HETATM   22  O1  UNL     1      28.758  -0.021  54.592  1.00  0.00    -0.355 OA
HETATM   23  C1  UNL     1      29.498  -0.921  53.798  1.00  0.00     0.210 C 
ENDBRANCH   1  22
TORSDOF 6
ENDMDL
MODEL 6
REMARK VINA RESULT:      -6.6      2.672      4.156
REMARK  6 active torsions:
REMARK  status: ('A' for Active; 'I' for Inactive)
REMARK    1  A    between atoms: O1_2  and  C2_3 
REMARK    2  A    between atoms: C6_9  and  N3_10 
REMARK    3  A    between atoms: N3_10  and  C8_12 
REMARK    4  A    between atoms: C9_13  and  C10_15 
REMARK    5  A    between atoms: C11_16  and  C12_17 
REMARK    6  A    between atoms: C12_17  and  O2_18 
ROOT
HETATM    1  C2  UNL     1      22.463   0.124  53.780  1.00  0.00     0.076 A 
HETATM    2  C3  UNL     1      23.806  -0.157  53.708  1.00  0.00     0.070 A 
HETATM    3  C4  UNL     1      24.622   0.544  52.846  1.00  0.00     0.074 A 
HETATM    4  N1  UNL     1      25.936   0.191  52.848  1.00  0.00    -0.241 NA
HETATM    5  C5  UNL     1      26.789   0.855  52.012  1.00  0.00     0.236 A 
HETATM    6  N2  UNL     1      26.311   1.830  51.218  1.00  0.00    -0.223 NA
HETATM    7  C6  UNL     1      25.021   2.213  51.182  1.00  0.00     0.143 A 
HETATM    8  C13 UNL     1      24.143   1.549  52.024  1.00  0.00     0.040 A 
HETATM    9  C14 UNL     1      22.796   1.831  52.097  1.00  0.00     0.027 A 
HETATM   10  C15 UNL     1      21.943   1.135  52.962  1.00  0.00    -0.028 A 
HETATM   11  C16 UNL     1      20.503   1.572  52.914  1.00  0.00     0.051 C 
ENDROOT
BRANCH   7  12
HETATM   12  N3  UNL     1      24.514   3.245  50.345  1.00  0.00    -0.344 N 
HETATM   13  C7  UNL     1      23.597   3.114  49.201  1.00  0.00     0.157 C 
BRANCH  12  14
HETATM   14  C8  UNL     1      24.802   4.631  50.457  1.00  0.00     0.116 C 
HETATM   15  C9  UNL     1      24.080   5.590  51.000  1.00  0.00     0.049 C 
HETATM   16 CL1  UNL     1      22.522   5.271  51.723  1.00  0.00    -0.083 Cl
BRANCH  15  17
HETATM   17  C10 UNL     1      24.635   6.934  50.993  1.00  0.00     0.023 C 
HETATM   18  C11 UNL     1      25.632   7.222  50.165  1.00  0.00     0.000 C 
BRANCH  18  19
HETATM   19  C12 UNL     1      26.281   8.528  50.056  1.00  0.00     0.191 C 
BRANCH  19  20
HETATM   20  O2  UNL     1      27.672   8.306  49.969  1.00  0.00    -0.397 OA
HETATM   21  H14 UNL     1      27.969   8.492  49.043  1.00  0.00     0.209 HD
ENDBRANCH  19  20
ENDBRANCH  18  19
ENDBRANCH  15  17
ENDBRANCH  12  14
ENDBRANCH   7  12
BRANCH   1  22
HETATM   22  O1  UNL     1      21.451  -0.426  54.549  1.00  0.00    -0.355 OA
HETATM   23  C1  UNL     1      21.140  -1.789  54.364  1.00  0.00     0.210 C 
ENDBRANCH   1  22
TORSDOF 6
ENDMDL
MODEL 7
REMARK VINA RESULT:      -6.4      3.398      4.029
REMARK  6 active torsions:
REMARK  status: ('A' for Active; 'I' for Inactive)
REMARK    1  A    between atoms: O1_2  and  C2_3 
REMARK    2  A    between atoms: C6_9  and  N3_10 
REMARK    3  A    between atoms: N3_10  and  C8_12 
REMARK    4  A    between atoms: C9_13  and  C10_15 
REMARK    5  A    between atoms: C11_16  and  C12_17 
REMARK    6  A    between atoms: C12_17  and  O2_18 
ROOT
HETATM    1  C2  UNL     1      25.966  -0.050  53.095  1.00  0.00     0.076 A 
HETATM    2  C3  UNL     1      24.943  -0.634  53.803  1.00  0.00     0.070 A 
HETATM    3  C4  UNL     1      23.651  -0.171  53.677  1.00  0.00     0.074 A 
HETATM    4  N1  UNL     1      22.711  -0.815  54.419  1.00  0.00    -0.241 NA
HETATM    5  C5  UNL     1      21.413  -0.396  54.332  1.00  0.00     0.236 A 
HETATM    6  N2  UNL     1      21.104   0.634  53.523  1.00  0.00    -0.223 NA
HETATM    7  C6  UNL     1      22.000   1.301  52.771  1.00  0.00     0.143 A 
HETATM    8  C13 UNL     1      23.320   0.887  52.849  1.00  0.00     0.040 A 
HETATM    9  C14 UNL     1      24.346   1.473  52.139  1.00  0.00     0.027 A 
HETATM   10  C15 UNL     1      25.668   1.024  52.246  1.00  0.00    -0.028 A 
HETATM   11  C16 UNL     1      26.660   1.777  51.401  1.00  0.00     0.051 C 
ENDROOT
BRANCH   7  12
HETATM   12  N3  UNL     1      21.676   2.388  51.913  1.00  0.00    -0.344 N 
HETATM   13  C7  UNL     1      21.884   3.825  52.154  1.00  0.00     0.157 C 
BRANCH  12  14
HETATM   14  C8  UNL     1      21.075   2.291  50.630  1.00  0.00     0.116 C 
HETATM   15  C9  UNL     1      21.626   2.426  49.441  1.00  0.00     0.049 C 
HETATM   16 CL1  UNL     1      23.327   2.778  49.250  1.00  0.00    -0.083 Cl
BRANCH  15  17
HETATM   17  C10 UNL     1      20.768   2.253  48.279  1.00  0.00     0.023 C 
HETATM   18  C11 UNL     1      20.106   3.298  47.799  1.00  0.00     0.000 C 
BRANCH  18  19
HETATM   19  C12 UNL     1      19.213   3.265  46.641  1.00  0.00     0.191 C 
BRANCH  19  20
HETATM   20  O2  UNL     1      18.070   2.522  47.007  1.00  0.00    -0.397 OA
HETATM   21  H14 UNL     1      18.058   1.676  46.493  1.00  0.00     0.209 HD
ENDBRANCH  19  20
ENDBRANCH  18  19
ENDBRANCH  15  17
ENDBRANCH  12  14
ENDBRANCH   7  12
BRANCH   1  22
HETATM   22  O1  UNL     1      27.322  -0.325  53.047  1.00  0.00    -0.355 OA
HETATM   23  C1  UNL     1      28.102  -0.035  54.187  1.00  0.00     0.210 C 
ENDBRANCH   1  22
TORSDOF 6
ENDMDL
MODEL 8
REMARK VINA RESULT:      -6.4      3.347      5.013
REMARK  6 active torsions:
REMARK  status: ('A' for Active; 'I' for Inactive)
REMARK    1  A    between atoms: O1_2  and  C2_3 
REMARK    2  A    between atoms: C6_9  and  N3_10 
REMARK    3  A    between atoms: N3_10  and  C8_12 
REMARK    4  A    between atoms: C9_13  and  C10_15 
REMARK    5  A    between atoms: C11_16  and  C12_17 
REMARK    6  A    between atoms: C12_17  and  O2_18 
ROOT
HETATM    1  C2  UNL     1      26.831   0.236  53.142  1.00  0.00     0.076 A 
HETATM    2  C3  UNL     1      27.300   1.134  52.213  1.00  0.00     0.070 A 
HETATM    3  C4  UNL     1      26.456   2.071  51.657  1.00  0.00     0.074 A 
HETATM    4  N1  UNL     1      27.015   2.914  50.748  1.00  0.00    -0.241 NA
HETATM    5  C5  UNL     1      26.222   3.862  50.165  1.00  0.00     0.236 A 
HETATM    6  N2  UNL     1      24.921   3.934  50.504  1.00  0.00    -0.223 NA
HETATM    7  C6  UNL     1      24.325   3.123  51.397  1.00  0.00     0.143 A 
HETATM    8  C13 UNL     1      25.117   2.156  51.996  1.00  0.00     0.040 A 
HETATM    9  C14 UNL     1      24.647   1.256  52.928  1.00  0.00     0.027 A 
HETATM   10  C15 UNL     1      25.481   0.294  53.509  1.00  0.00    -0.028 A 
HETATM   11  C16 UNL     1      24.804  -0.608  54.507  1.00  0.00     0.051 C 
ENDROOT
BRANCH   7  12
HETATM   12  N3  UNL     1      22.952   3.199  51.758  1.00  0.00    -0.344 N 
HETATM   13  C7  UNL     1      22.247   4.315  52.411  1.00  0.00     0.157 C 
BRANCH  12  14
HETATM   14  C8  UNL     1      21.975   2.188  51.553  1.00  0.00     0.116 C 
HETATM   15  C9  UNL     1      21.578   1.632  50.427  1.00  0.00     0.049 C 
HETATM   16 CL1  UNL     1      22.252   2.097  48.883  1.00  0.00    -0.083 Cl
BRANCH  15  17
HETATM   17  C10 UNL     1      20.563   0.594  50.512  1.00  0.00     0.023 C 
HETATM   18  C11 UNL     1      19.295   0.939  50.698  1.00  0.00     0.000 C 
BRANCH  18  19
HETATM   19  C12 UNL     1      18.178   0.000  50.802  1.00  0.00     0.191 C 
BRANCH  19  20
HETATM   20  O2  UNL     1      17.494   0.016  49.567  1.00  0.00    -0.397 OA
HETATM   21  H14 UNL     1      16.952   0.842  49.511  1.00  0.00     0.209 HD
ENDBRANCH  19  20
ENDBRANCH  18  19
ENDBRANCH  15  17
ENDBRANCH  12  14
ENDBRANCH   7  12
BRANCH   1  22
HETATM   22  O1  UNL     1      27.465  -0.782  53.835  1.00  0.00    -0.355 OA
HETATM   23  C1  UNL     1      28.803  -1.080  53.504  1.00  0.00     0.210 C 
ENDBRANCH   1  22
TORSDOF 6
ENDMDL
MODEL 9
REMARK VINA RESULT:      -6.3      3.113      4.365
REMARK  6 active torsions:
REMARK  status: ('A' for Active; 'I' for Inactive)
REMARK    1  A    between atoms: O1_2  and  C2_3 
REMARK    2  A    between atoms: C6_9  and  N3_10 
REMARK    3  A    between atoms: N3_10  and  C8_12 
REMARK    4  A    between atoms: C9_13  and  C10_15 
REMARK    5  A    between atoms: C11_16  and  C12_17 
REMARK    6  A    between atoms: C12_17  and  O2_18 
ROOT
HETATM    1  C2  UNL     1      23.441   1.381  51.800  1.00  0.00     0.076 A 
HETATM    2  C3  UNL     1      22.688   1.599  50.671  1.00  0.00     0.070 A 
HETATM    3  C4  UNL     1      22.783   2.792  49.987  1.00  0.00     0.074 A 
HETATM    4  N1  UNL     1      21.997   2.910  48.883  1.00  0.00    -0.241 NA
HETATM    5  C5  UNL     1      22.052   4.073  48.167  1.00  0.00     0.236 A 
HETATM    6  N2  UNL     1      22.874   5.059  48.570  1.00  0.00    -0.223 NA
HETATM    7  C6  UNL     1      23.668   4.987  49.654  1.00  0.00     0.143 A 
HETATM    8  C13 UNL     1      23.624   3.814  50.391  1.00  0.00     0.040 A 
HETATM    9  C14 UNL     1      24.379   3.595  51.523  1.00  0.00     0.027 A 
HETATM   10  C15 UNL     1      24.304   2.394  52.238  1.00  0.00    -0.028 A 
HETATM   11  C16 UNL     1      25.197   2.324  53.448  1.00  0.00     0.051 C 
ENDROOT
BRANCH   7  12
HETATM   12  N3  UNL     1      24.540   6.027  50.081  1.00  0.00    -0.344 N 
HETATM   13  C7  UNL     1      24.258   7.110  51.036  1.00  0.00     0.157 C 
BRANCH  12  14
HETATM   14  C8  UNL     1      25.881   6.222  49.655  1.00  0.00     0.116 C 
HETATM   15  C9  UNL     1      26.330   6.802  48.560  1.00  0.00     0.049 C 
HETATM   16 CL1  UNL     1      25.248   7.474  47.365  1.00  0.00    -0.083 Cl
BRANCH  15  17
HETATM   17  C10 UNL     1      27.772   6.881  48.386  1.00  0.00     0.023 C 
HETATM   18  C11 UNL     1      28.480   5.760  48.309  1.00  0.00     0.000 C 
BRANCH  18  19
HETATM   19  C12 UNL     1      29.931   5.696  48.134  1.00  0.00     0.191 C 
BRANCH  19  20
HETATM   20  O2  UNL     1      30.505   5.521  49.411  1.00  0.00    -0.397 OA
HETATM   21  H14 UNL     1      29.948   5.990  50.081  1.00  0.00     0.209 HD
ENDBRANCH  19  20
ENDBRANCH  18  19
ENDBRANCH  15  17
ENDBRANCH  12  14
ENDBRANCH   7  12
BRANCH   1  22
HETATM   22  O1  UNL     1      23.526   0.291  52.650  1.00  0.00    -0.355 OA
HETATM   23  C1  UNL     1      22.377  -0.075  53.381  1.00  0.00     0.210 C 
ENDBRANCH   1  22
TORSDOF 6
ENDMDL
