MODEL 1
REMARK VINA RESULT:      -7.7      0.000      0.000
REMARK  6 active torsions:
REMARK  status: ('A' for Active; 'I' for Inactive)
REMARK    1  A    between atoms: C4_5  and  N2_6 
REMARK    2  A    between atoms: N2_6  and  C5_7 
REMARK    3  A    between atoms: C5_7  and  N3_9 
REMARK    4  A    between atoms: N3_9  and  C6_10 
REMARK    5  A    between atoms: C6_10  and  C7_11 
REMARK    6  A    between atoms: C7_11  and  N4_12 
ROOT
HETATM    1  C1  UNL     1      23.016   0.063  53.478  1.00  0.00     0.021 C 
HETATM    2  C2  UNL     1      21.692  -0.394  52.837  1.00  0.00     0.090 C 
HETATM    3  C3  UNL     1      21.207   0.771  52.046  1.00  0.00     0.130 C 
HETATM    4  N1  UNL     1      21.886   1.849  52.357  1.00  0.00    -0.248 NA
HETATM    5  C4  UNL     1      21.570   3.094  51.698  1.00  0.00     0.218 C 
HETATM    6  C12 UNL     1      20.159   3.436  51.557  1.00  0.00     0.064 C 
HETATM    7  C13 UNL     1      18.830   3.481  51.446  1.00  0.00    -0.017 C 
HETATM    8  C14 UNL     1      17.640   2.590  51.419  1.00  0.00    -0.001 C 
HETATM    9  C15 UNL     1      17.719   1.276  51.529  1.00  0.00     0.031 C 
HETATM   10  C16 UNL     1      18.886   0.380  51.696  1.00  0.00     0.058 C 
HETATM   11  N5  UNL     1      20.111   0.323  51.171  1.00  0.00    -0.234 NA
HETATM   12  C17 UNL     1      18.572  -0.657  52.713  1.00  0.00     0.030 C 
HETATM   13  C18 UNL     1      19.427  -1.162  53.633  1.00  0.00     0.013 C 
HETATM   14  C19 UNL     1      20.818  -0.806  53.964  1.00  0.00     0.204 C 
HETATM   15  F1  UNL     1      21.422  -1.874  54.591  1.00  0.00    -0.244 F 
ENDROOT
BRANCH   5  16
HETATM   16  N2  UNL     1      22.327   4.195  52.277  1.00  0.00    -0.344 N 
HETATM   17  H6  UNL     1      21.786   4.793  52.962  1.00  0.00     0.164 HD
BRANCH  16  18
HETATM   18  C5  UNL     1      23.688   4.439  51.951  1.00  0.00     0.169 C 
HETATM   19  S1  UNL     1      23.997   5.836  51.126  1.00  0.00    -0.041 SA
BRANCH  18  20
HETATM   20  N3  UNL     1      24.772   3.589  52.278  1.00  0.00    -0.366 N 
HETATM   21  H7  UNL     1      25.280   3.748  53.173  1.00  0.00     0.161 HD
BRANCH  20  22
HETATM   22  C6  UNL     1      25.293   2.493  51.523  1.00  0.00     0.152 C 
BRANCH  22  23
HETATM   23  C7  UNL     1      26.800   2.396  51.717  1.00  0.00     0.292 C 
BRANCH  23  24
HETATM   24  N4  UNL     1      27.188   1.239  52.447  1.00  0.00     0.094 N 
HETATM   25  C8  UNL     1      26.519   0.064  52.007  1.00  0.00     0.298 C 
HETATM   26  C9  UNL     1      26.863  -1.155  52.838  1.00  0.00     0.198 C 
HETATM   27  O1  UNL     1      27.003  -0.866  54.193  1.00  0.00    -0.388 OA
HETATM   28  C10 UNL     1      27.882   0.163  54.432  1.00  0.00     0.198 C 
HETATM   29  C11 UNL     1      27.212   1.424  53.862  1.00  0.00     0.298 C 
ENDBRANCH  23  24
ENDBRANCH  22  23
ENDBRANCH  20  22
ENDBRANCH  18  20
ENDBRANCH  16  18
ENDBRANCH   5  16
TORSDOF 6
ENDMDL
MODEL 2
REMARK VINA RESULT:      -7.7      3.390      6.143
REMARK  6 active torsions:
REMARK  status: ('A' for Active; 'I' for Inactive)
REMARK    1  A    between atoms: C4_5  and  N2_6 
REMARK    2  A    between atoms: N2_6  and  C5_7 
REMARK    3  A    between atoms: C5_7  and  N3_9 
REMARK    4  A    between atoms: N3_9  and  C6_10 
REMARK    5  A    between atoms: C6_10  and  C7_11 
REMARK    6  A    between atoms: C7_11  and  N4_12 
ROOT
HETATM    1  C1  UNL     1      26.439   2.494  51.379  1.00  0.00     0.021 C 
HETATM    2  C2  UNL     1      26.604   1.301  52.338  1.00  0.00     0.090 C 
HETATM    3  C3  UNL     1      25.283   0.612  52.349  1.00  0.00     0.130 C 
HETATM    4  N1  UNL     1      24.369   1.364  51.784  1.00  0.00    -0.248 NA
HETATM    5  C4  UNL     1      23.014   0.877  51.693  1.00  0.00     0.218 C 
HETATM    6  C12 UNL     1      22.450   0.244  52.881  1.00  0.00     0.064 C 
HETATM    7  C13 UNL     1      22.194  -0.385  54.030  1.00  0.00    -0.017 C 
HETATM    8  C14 UNL     1      22.887  -1.055  55.161  1.00  0.00    -0.001 C 
HETATM    9  C15 UNL     1      24.201  -1.167  55.240  1.00  0.00     0.031 C 
HETATM   10  C16 UNL     1      25.274  -0.712  54.326  1.00  0.00     0.058 C 
HETATM   11  N5  UNL     1      25.441  -0.698  53.003  1.00  0.00    -0.234 NA
HETATM   12  C17 UNL     1      26.382  -0.120  55.121  1.00  0.00     0.030 C 
HETATM   13  C18 UNL     1      27.128   0.956  54.779  1.00  0.00     0.013 C 
HETATM   14  C19 UNL     1      27.030   1.881  53.636  1.00  0.00     0.204 C 
HETATM   15  F1  UNL     1      28.251   2.488  53.440  1.00  0.00    -0.244 F 
ENDROOT
BRANCH   5  16
HETATM   16  N2  UNL     1      22.126   1.905  51.169  1.00  0.00    -0.344 N 
HETATM   17  H6  UNL     1      21.675   1.670  50.242  1.00  0.00     0.164 HD
BRANCH  16  18
HETATM   18  C5  UNL     1      21.880   3.123  51.858  1.00  0.00     0.169 C 
HETATM   19  S1  UNL     1      20.302   3.603  51.940  1.00  0.00    -0.041 SA
BRANCH  18  20
HETATM   20  N3  UNL     1      22.870   3.935  52.463  1.00  0.00    -0.366 N 
HETATM   21  H7  UNL     1      23.249   3.651  53.391  1.00  0.00     0.161 HD
BRANCH  20  22
HETATM   22  C6  UNL     1      23.450   5.141  51.963  1.00  0.00     0.152 C 
BRANCH  22  23
HETATM   23  C7  UNL     1      23.871   4.955  50.512  1.00  0.00     0.292 C 
BRANCH  23  24
HETATM   24  N4  UNL     1      25.042   5.690  50.180  1.00  0.00     0.094 N 
HETATM   25  C8  UNL     1      24.981   7.042  50.614  1.00  0.00     0.298 C 
HETATM   26  C9  UNL     1      26.187   7.852  50.185  1.00  0.00     0.198 C 
HETATM   27  O1  UNL     1      26.638   7.521  48.910  1.00  0.00    -0.388 OA
HETATM   28  C10 UNL     1      26.864   6.174  48.756  1.00  0.00     0.198 C 
HETATM   29  C11 UNL     1      25.479   5.509  48.833  1.00  0.00     0.298 C 
ENDBRANCH  23  24
ENDBRANCH  22  23
ENDBRANCH  20  22
ENDBRANCH  18  20
ENDBRANCH  16  18
ENDBRANCH   5  16
TORSDOF 6
ENDMDL
MODEL 3
REMARK VINA RESULT:      -7.5      3.771      5.884
REMARK  6 active torsions:
REMARK  status: ('A' for Active; 'I' for Inactive)
REMARK    1  A    between atoms: C4_5  and  N2_6 
REMARK    2  A    between atoms: N2_6  and  C5_7 
REMARK    3  A    between atoms: C5_7  and  N3_9 
REMARK    4  A    between atoms: N3_9  and  C6_10 
REMARK    5  A    between atoms: C6_10  and  C7_11 
REMARK    6  A    between atoms: C7_11  and  N4_12 
ROOT
HETATM    1  C1  UNL     1      27.065   2.358  51.735  1.00  0.00     0.021 C 
HETATM    2  C2  UNL     1      26.733   1.086  52.537  1.00  0.00     0.090 C 
HETATM    3  C3  UNL     1      25.317   0.764  52.206  1.00  0.00     0.130 C 
HETATM    4  N1  UNL     1      24.751   1.772  51.586  1.00  0.00    -0.248 NA
HETATM    5  C4  UNL     1      23.371   1.661  51.177  1.00  0.00     0.218 C 
HETATM    6  C12 UNL     1      22.431   1.097  52.141  1.00  0.00     0.064 C 
HETATM    7  C13 UNL     1      21.792   0.462  53.125  1.00  0.00    -0.017 C 
HETATM    8  C14 UNL     1      22.047  -0.458  54.265  1.00  0.00    -0.001 C 
HETATM    9  C15 UNL     1      23.249  -0.912  54.573  1.00  0.00     0.031 C 
HETATM   10  C16 UNL     1      24.570  -0.674  53.948  1.00  0.00     0.058 C 
HETATM   11  N5  UNL     1      25.017  -0.592  52.694  1.00  0.00    -0.234 NA
HETATM   12  C17 UNL     1      25.587  -0.458  55.010  1.00  0.00     0.030 C 
HETATM   13  C18 UNL     1      26.621   0.413  54.963  1.00  0.00     0.013 C 
HETATM   14  C19 UNL     1      26.993   1.425  53.958  1.00  0.00     0.204 C 
HETATM   15  F1  UNL     1      28.336   1.710  54.079  1.00  0.00    -0.244 F 
ENDROOT
BRANCH   5  16
HETATM   16  N2  UNL     1      22.885   2.924  50.641  1.00  0.00    -0.344 N 
HETATM   17  H6  UNL     1      22.140   2.831  49.895  1.00  0.00     0.164 HD
BRANCH  16  18
HETATM   18  C5  UNL     1      23.368   4.181  51.092  1.00  0.00     0.169 C 
HETATM   19  S1  UNL     1      22.382   5.007  52.128  1.00  0.00    -0.041 SA
BRANCH  18  20
HETATM   20  N3  UNL     1      24.607   4.761  50.726  1.00  0.00    -0.366 N 
HETATM   21  H7  UNL     1      25.125   5.322  51.434  1.00  0.00     0.161 HD
BRANCH  20  22
HETATM   22  C6  UNL     1      25.280   4.684  49.467  1.00  0.00     0.152 C 
BRANCH  22  23
HETATM   23  C7  UNL     1      25.487   6.082  48.901  1.00  0.00     0.292 C 
BRANCH  23  24
HETATM   24  N4  UNL     1      26.802   6.283  48.399  1.00  0.00     0.094 N 
HETATM   25  C8  UNL     1      27.661   5.179  48.654  1.00  0.00     0.298 C 
HETATM   26  C9  UNL     1      29.085   5.424  48.200  1.00  0.00     0.198 C 
HETATM   27  O1  UNL     1      29.506   6.733  48.417  1.00  0.00    -0.388 OA
HETATM   28  C10 UNL     1      28.648   7.666  47.886  1.00  0.00     0.198 C 
HETATM   29  C11 UNL     1      27.356   7.561  48.714  1.00  0.00     0.298 C 
ENDBRANCH  23  24
ENDBRANCH  22  23
ENDBRANCH  20  22
ENDBRANCH  18  20
ENDBRANCH  16  18
ENDBRANCH   5  16
TORSDOF 6
ENDMDL
MODEL 4
REMARK VINA RESULT:      -7.5      1.497      2.081
REMARK  6 active torsions:
REMARK  status: ('A' for Active; 'I' for Inactive)
REMARK    1  A    between atoms: C4_5  and  N2_6 
REMARK    2  A    between atoms: N2_6  and  C5_7 
REMARK    3  A    between atoms: C5_7  and  N3_9 
REMARK    4  A    between atoms: N3_9  and  C6_10 
REMARK    5  A    between atoms: C6_10  and  C7_11 
REMARK    6  A    between atoms: C7_11  and  N4_12 
ROOT
HETATM    1  C1  UNL     1      23.992  -0.819  53.571  1.00  0.00     0.021 C 
HETATM    2  C2  UNL     1      22.542  -0.793  53.051  1.00  0.00     0.090 C 
HETATM    3  C3  UNL     1      22.447   0.424  52.196  1.00  0.00     0.130 C 
HETATM    4  N1  UNL     1      23.494   1.193  52.374  1.00  0.00    -0.248 NA
HETATM    5  C4  UNL     1      23.595   2.428  51.635  1.00  0.00     0.218 C 
HETATM    6  C12 UNL     1      22.396   3.256  51.550  1.00  0.00     0.064 C 
HETATM    7  C13 UNL     1      21.169   3.780  51.516  1.00  0.00    -0.017 C 
HETATM    8  C14 UNL     1      19.740   3.387  51.634  1.00  0.00    -0.001 C 
HETATM    9  C15 UNL     1      19.347   2.144  51.848  1.00  0.00     0.031 C 
HETATM   10  C16 UNL     1      20.121   0.894  52.019  1.00  0.00     0.058 C 
HETATM   11  N5  UNL     1      21.192   0.362  51.428  1.00  0.00    -0.234 NA
HETATM   12  C17 UNL     1      19.541   0.102  53.135  1.00  0.00     0.030 C 
HETATM   13  C18 UNL     1      20.231  -0.629  54.042  1.00  0.00     0.013 C 
HETATM   14  C19 UNL     1      21.679  -0.791  54.258  1.00  0.00     0.204 C 
HETATM   15  F1  UNL     1      21.907  -1.970  54.934  1.00  0.00    -0.244 F 
ENDROOT
BRANCH   5  16
HETATM   16  N2  UNL     1      24.745   3.204  52.074  1.00  0.00    -0.344 N 
HETATM   17  H6  UNL     1      24.564   3.835  52.903  1.00  0.00     0.164 HD
BRANCH  16  18
HETATM   18  C5  UNL     1      26.013   3.113  51.440  1.00  0.00     0.169 C 
HETATM   19  S1  UNL     1      26.102   3.716  49.906  1.00  0.00    -0.041 SA
BRANCH  18  20
HETATM   20  N3  UNL     1      27.178   2.553  52.019  1.00  0.00    -0.366 N 
HETATM   21  H7  UNL     1      27.974   2.303  51.397  1.00  0.00     0.161 HD
BRANCH  20  22
HETATM   22  C6  UNL     1      27.431   2.271  53.397  1.00  0.00     0.152 C 
BRANCH  22  23
HETATM   23  C7  UNL     1      26.959   0.865  53.736  1.00  0.00     0.292 C 
BRANCH  23  24
HETATM   24  N4  UNL     1      27.918  -0.133  53.409  1.00  0.00     0.094 N 
HETATM   25  C8  UNL     1      27.319  -1.364  53.026  1.00  0.00     0.298 C 
HETATM   26  C9  UNL     1      28.335  -2.456  52.762  1.00  0.00     0.198 C 
HETATM   27  O1  UNL     1      29.413  -2.418  53.642  1.00  0.00    -0.388 OA
HETATM   28  C10 UNL     1      30.014  -1.183  53.699  1.00  0.00     0.198 C 
HETATM   29  C11 UNL     1      28.982  -0.249  54.354  1.00  0.00     0.298 C 
ENDBRANCH  23  24
ENDBRANCH  22  23
ENDBRANCH  20  22
ENDBRANCH  18  20
ENDBRANCH  16  18
ENDBRANCH   5  16
TORSDOF 6
ENDMDL
MODEL 5
REMARK VINA RESULT:      -7.5      4.554      6.444
REMARK  6 active torsions:
REMARK  status: ('A' for Active; 'I' for Inactive)
REMARK    1  A    between atoms: C4_5  and  N2_6 
REMARK    2  A    between atoms: N2_6  and  C5_7 
REMARK    3  A    between atoms: C5_7  and  N3_9 
REMARK    4  A    between atoms: N3_9  and  C6_10 
REMARK    5  A    between atoms: C6_10  and  C7_11 
REMARK    6  A    between atoms: C7_11  and  N4_12 
ROOT
HETATM    1  C1  UNL     1      28.453   1.951  53.123  1.00  0.00     0.021 C 
HETATM    2  C2  UNL     1      27.492   0.759  53.291  1.00  0.00     0.090 C 
HETATM    3  C3  UNL     1      26.312   1.074  52.438  1.00  0.00     0.130 C 
HETATM    4  N1  UNL     1      26.346   2.328  52.054  1.00  0.00    -0.248 NA
HETATM    5  C4  UNL     1      25.287   2.836  51.216  1.00  0.00     0.218 C 
HETATM    6  C12 UNL     1      23.919   2.477  51.575  1.00  0.00     0.064 C 
HETATM    7  C13 UNL     1      22.785   1.936  52.024  1.00  0.00    -0.017 C 
HETATM    8  C14 UNL     1      22.287   0.768  52.798  1.00  0.00    -0.001 C 
HETATM    9  C15 UNL     1      23.083  -0.161  53.298  1.00  0.00     0.031 C 
HETATM   10  C16 UNL     1      24.555  -0.312  53.247  1.00  0.00     0.058 C 
HETATM   11  N5  UNL     1      25.487  -0.139  52.309  1.00  0.00    -0.234 NA
HETATM   12  C17 UNL     1      25.055  -0.727  54.584  1.00  0.00     0.030 C 
HETATM   13  C18 UNL     1      26.206  -0.322  55.170  1.00  0.00     0.013 C 
HETATM   14  C19 UNL     1      27.217   0.663  54.746  1.00  0.00     0.204 C 
HETATM   15  F1  UNL     1      28.410   0.388  55.378  1.00  0.00    -0.244 F 
ENDROOT
BRANCH   5  16
HETATM   16  N2  UNL     1      25.423   4.271  51.019  1.00  0.00    -0.344 N 
HETATM   17  H6  UNL     1      25.233   4.857  51.879  1.00  0.00     0.164 HD
BRANCH  16  18
HETATM   18  C5  UNL     1      25.791   4.838  49.769  1.00  0.00     0.169 C 
HETATM   19  S1  UNL     1      24.575   5.556  48.912  1.00  0.00    -0.041 SA
BRANCH  18  20
HETATM   20  N3  UNL     1      27.097   4.831  49.220  1.00  0.00    -0.366 N 
HETATM   21  H7  UNL     1      27.695   3.991  49.365  1.00  0.00     0.161 HD
BRANCH  20  22
HETATM   22  C6  UNL     1      27.741   5.856  48.461  1.00  0.00     0.152 C 
BRANCH  22  23
HETATM   23  C7  UNL     1      29.141   5.408  48.065  1.00  0.00     0.292 C 
BRANCH  23  24
HETATM   24  N4  UNL     1      30.162   6.198  48.661  1.00  0.00     0.094 N 
HETATM   25  C8  UNL     1      29.873   7.590  48.617  1.00  0.00     0.298 C 
HETATM   26  C9  UNL     1      30.997   8.441  49.171  1.00  0.00     0.198 C 
HETATM   27  O1  UNL     1      32.260   7.953  48.846  1.00  0.00    -0.388 OA
HETATM   28  C10 UNL     1      32.424   6.631  49.184  1.00  0.00     0.198 C 
HETATM   29  C11 UNL     1      31.484   5.844  48.256  1.00  0.00     0.298 C 
ENDBRANCH  23  24
ENDBRANCH  22  23
ENDBRANCH  20  22
ENDBRANCH  18  20
ENDBRANCH  16  18
ENDBRANCH   5  16
TORSDOF 6
ENDMDL
MODEL 6
REMARK VINA RESULT:      -7.3      4.517      6.485
REMARK  6 active torsions:
REMARK  status: ('A' for Active; 'I' for Inactive)
REMARK    1  A    between atoms: C4_5  and  N2_6 
REMARK    2  A    between atoms: N2_6  and  C5_7 
REMARK    3  A    between atoms: C5_7  and  N3_9 
REMARK    4  A    between atoms: N3_9  and  C6_10 
REMARK    5  A    between atoms: C6_10  and  C7_11 
REMARK    6  A    between atoms: C7_11  and  N4_12 
ROOT
HETATM    1  C1  UNL     1      21.662   2.701  50.810  1.00  0.00     0.021 C 
HETATM    2  C2  UNL     1      22.072   1.834  52.015  1.00  0.00     0.090 C 
HETATM    3  C3  UNL     1      23.549   1.983  52.130  1.00  0.00     0.130 C 
HETATM    4  N1  UNL     1      24.037   2.554  51.055  1.00  0.00    -0.248 NA
HETATM    5  C4  UNL     1      25.458   2.791  50.966  1.00  0.00     0.218 C 
HETATM    6  C12 UNL     1      26.343   1.707  51.382  1.00  0.00     0.064 C 
HETATM    7  C13 UNL     1      26.941   0.638  51.912  1.00  0.00    -0.017 C 
HETATM    8  C14 UNL     1      26.682  -0.485  52.851  1.00  0.00    -0.001 C 
HETATM    9  C15 UNL     1      25.529  -0.656  53.473  1.00  0.00     0.031 C 
HETATM   10  C16 UNL     1      24.275   0.129  53.434  1.00  0.00     0.058 C 
HETATM   11  N5  UNL     1      23.978   1.429  53.425  1.00  0.00    -0.234 NA
HETATM   12  C17 UNL     1      23.114  -0.796  53.361  1.00  0.00     0.030 C 
HETATM   13  C18 UNL     1      21.979  -0.604  52.649  1.00  0.00     0.013 C 
HETATM   14  C19 UNL     1      21.593   0.463  51.709  1.00  0.00     0.204 C 
HETATM   15  F1  UNL     1      20.218   0.512  51.620  1.00  0.00    -0.244 F 
ENDROOT
BRANCH   5  16
HETATM   16  N2  UNL     1      25.820   3.295  49.650  1.00  0.00    -0.344 N 
HETATM   17  H6  UNL     1      25.972   2.549  48.916  1.00  0.00     0.164 HD
BRANCH  16  18
HETATM   18  C5  UNL     1      25.951   4.682  49.374  1.00  0.00     0.169 C 
HETATM   19  S1  UNL     1      24.544   5.500  49.092  1.00  0.00    -0.041 SA
BRANCH  18  20
HETATM   20  N3  UNL     1      27.173   5.396  49.325  1.00  0.00    -0.366 N 
HETATM   21  H7  UNL     1      27.343   6.144  50.029  1.00  0.00     0.161 HD
BRANCH  20  22
HETATM   22  C6  UNL     1      28.257   5.228  48.409  1.00  0.00     0.152 C 
BRANCH  22  23
HETATM   23  C7  UNL     1      28.688   6.581  47.859  1.00  0.00     0.292 C 
BRANCH  23  24
HETATM   24  N4  UNL     1      29.717   7.187  48.631  1.00  0.00     0.094 N 
HETATM   25  C8  UNL     1      29.730   8.604  48.510  1.00  0.00     0.298 C 
HETATM   26  C9  UNL     1      30.879   9.247  49.259  1.00  0.00     0.198 C 
HETATM   27  O1  UNL     1      32.054   8.504  49.193  1.00  0.00    -0.388 OA
HETATM   28  C10 UNL     1      31.881   7.196  49.577  1.00  0.00     0.198 C 
HETATM   29  C11 UNL     1      30.992   6.559  48.496  1.00  0.00     0.298 C 
ENDBRANCH  23  24
ENDBRANCH  22  23
ENDBRANCH  20  22
ENDBRANCH  18  20
ENDBRANCH  16  18
ENDBRANCH   5  16
TORSDOF 6
ENDMDL
MODEL 7
REMARK VINA RESULT:      -7.3      3.670      5.484
REMARK  6 active torsions:
REMARK  status: ('A' for Active; 'I' for Inactive)
REMARK    1  A    between atoms: C4_5  and  N2_6 
REMARK    2  A    between atoms: N2_6  and  C5_7 
REMARK    3  A    between atoms: C5_7  and  N3_9 
REMARK    4  A    between atoms: N3_9  and  C6_10 
REMARK    5  A    between atoms: C6_10  and  C7_11 
REMARK    6  A    between atoms: C7_11  and  N4_12 
ROOT
HETATM    1  C1  UNL     1      22.676   2.745  49.471  1.00  0.00     0.021 C 
HETATM    2  C2  UNL     1      21.546   2.316  50.425  1.00  0.00     0.090 C 
HETATM    3  C3  UNL     1      22.225   1.870  51.673  1.00  0.00     0.130 C 
HETATM    4  N1  UNL     1      23.513   1.731  51.469  1.00  0.00    -0.248 NA
HETATM    5  C4  UNL     1      24.357   1.303  52.559  1.00  0.00     0.218 C 
HETATM    6  C12 UNL     1      23.876   0.198  53.383  1.00  0.00     0.064 C 
HETATM    7  C13 UNL     1      23.192  -0.733  54.051  1.00  0.00    -0.017 C 
HETATM    8  C14 UNL     1      21.799  -1.197  54.289  1.00  0.00    -0.001 C 
HETATM    9  C15 UNL     1      20.742  -0.623  53.742  1.00  0.00     0.031 C 
HETATM   10  C16 UNL     1      20.628   0.532  52.822  1.00  0.00     0.058 C 
HETATM   11  N5  UNL     1      21.214   1.726  52.734  1.00  0.00    -0.234 NA
HETATM   12  C17 UNL     1      19.637   0.221  51.759  1.00  0.00     0.030 C 
HETATM   13  C18 UNL     1      19.719   0.580  50.457  1.00  0.00     0.013 C 
HETATM   14  C19 UNL     1      20.785   1.265  49.705  1.00  0.00     0.204 C 
HETATM   15  F1  UNL     1      20.243   1.843  48.577  1.00  0.00    -0.244 F 
ENDROOT
BRANCH   5  16
HETATM   16  N2  UNL     1      25.719   1.069  52.102  1.00  0.00    -0.344 N 
HETATM   17  H6  UNL     1      25.918   0.078  51.792  1.00  0.00     0.164 HD
BRANCH  16  18
HETATM   18  C5  UNL     1      26.698   2.097  52.068  1.00  0.00     0.169 C 
HETATM   19  S1  UNL     1      27.969   1.922  53.109  1.00  0.00    -0.041 SA
BRANCH  18  20
HETATM   20  N3  UNL     1      26.663   3.234  51.225  1.00  0.00    -0.366 N 
HETATM   21  H7  UNL     1      26.905   4.163  51.628  1.00  0.00     0.161 HD
BRANCH  20  22
HETATM   22  C6  UNL     1      26.328   3.294  49.837  1.00  0.00     0.152 C 
BRANCH  22  23
HETATM   23  C7  UNL     1      27.185   4.340  49.138  1.00  0.00     0.292 C 
BRANCH  23  24
HETATM   24  N4  UNL     1      26.418   5.405  48.592  1.00  0.00     0.094 N 
HETATM   25  C8  UNL     1      27.196   6.571  48.349  1.00  0.00     0.298 C 
HETATM   26  C9  UNL     1      26.367   7.737  47.850  1.00  0.00     0.198 C 
HETATM   27  O1  UNL     1      25.117   7.814  48.459  1.00  0.00    -0.388 OA
HETATM   28  C10 UNL     1      24.413   6.637  48.385  1.00  0.00     0.198 C 
HETATM   29  C11 UNL     1      25.180   5.637  49.266  1.00  0.00     0.298 C 
ENDBRANCH  23  24
ENDBRANCH  22  23
ENDBRANCH  20  22
ENDBRANCH  18  20
ENDBRANCH  16  18
ENDBRANCH   5  16
TORSDOF 6
ENDMDL
MODEL 8
REMARK VINA RESULT:      -7.3      3.673      6.678
REMARK  6 active torsions:
REMARK  status: ('A' for Active; 'I' for Inactive)
REMARK    1  A    between atoms: C4_5  and  N2_6 
REMARK    2  A    between atoms: N2_6  and  C5_7 
REMARK    3  A    between atoms: C5_7  and  N3_9 
REMARK    4  A    between atoms: N3_9  and  C6_10 
REMARK    5  A    between atoms: C6_10  and  C7_11 
REMARK    6  A    between atoms: C7_11  and  N4_12 
ROOT
HETATM    1  C1  UNL     1      22.212   3.244  50.362  1.00  0.00     0.021 C 
HETATM    2  C2  UNL     1      22.337   2.333  51.597  1.00  0.00     0.090 C 
HETATM    3  C3  UNL     1      23.797   2.251  51.886  1.00  0.00     0.130 C 
HETATM    4  N1  UNL     1      24.490   2.731  50.882  1.00  0.00    -0.248 NA
HETATM    5  C4  UNL     1      25.931   2.743  50.964  1.00  0.00     0.218 C 
HETATM    6  C12 UNL     1      26.582   1.538  51.468  1.00  0.00     0.064 C 
HETATM    7  C13 UNL     1      26.939   0.393  52.052  1.00  0.00    -0.017 C 
HETATM    8  C14 UNL     1      26.401  -0.669  52.942  1.00  0.00    -0.001 C 
HETATM    9  C15 UNL     1      25.170  -0.655  53.423  1.00  0.00     0.031 C 
HETATM   10  C16 UNL     1      24.067   0.316  53.245  1.00  0.00     0.058 C 
HETATM   11  N5  UNL     1      23.979   1.647  53.217  1.00  0.00    -0.234 NA
HETATM   12  C17 UNL     1      22.793  -0.418  53.026  1.00  0.00     0.030 C 
HETATM   13  C18 UNL     1      21.794  -0.056  52.188  1.00  0.00     0.013 C 
HETATM   14  C19 UNL     1      21.691   1.051  51.222  1.00  0.00     0.204 C 
HETATM   15  F1  UNL     1      20.360   1.313  50.973  1.00  0.00    -0.244 F 
ENDROOT
BRANCH   5  16
HETATM   16  N2  UNL     1      26.519   3.176  49.705  1.00  0.00    -0.344 N 
HETATM   17  H6  UNL     1      26.949   2.401  49.127  1.00  0.00     0.164 HD
BRANCH  16  18
HETATM   18  C5  UNL     1      26.507   4.532  49.284  1.00  0.00     0.169 C 
HETATM   19  S1  UNL     1      27.898   5.087  48.588  1.00  0.00    -0.041 SA
BRANCH  18  20
HETATM   20  N3  UNL     1      25.412   5.420  49.416  1.00  0.00    -0.366 N 
HETATM   21  H7  UNL     1      24.539   5.218  48.886  1.00  0.00     0.161 HD
BRANCH  20  22
HETATM   22  C6  UNL     1      25.328   6.606  50.208  1.00  0.00     0.152 C 
BRANCH  22  23
HETATM   23  C7  UNL     1      24.032   6.608  51.007  1.00  0.00     0.292 C 
BRANCH  23  24
HETATM   24  N4  UNL     1      22.929   7.117  50.268  1.00  0.00     0.094 N 
HETATM   25  C8  UNL     1      23.167   8.425  49.762  1.00  0.00     0.298 C 
HETATM   26  C9  UNL     1      21.963   9.007  49.049  1.00  0.00     0.198 C 
HETATM   27  O1  UNL     1      20.757   8.675  49.660  1.00  0.00    -0.388 OA
HETATM   28  C10 UNL     1      20.612   7.323  49.857  1.00  0.00     0.198 C 
HETATM   29  C11 UNL     1      21.666   6.940  50.909  1.00  0.00     0.298 C 
ENDBRANCH  23  24
ENDBRANCH  22  23
ENDBRANCH  20  22
ENDBRANCH  18  20
ENDBRANCH  16  18
ENDBRANCH   5  16
TORSDOF 6
ENDMDL
MODEL 9
REMARK VINA RESULT:      -7.3      2.158      3.557
REMARK  6 active torsions:
REMARK  status: ('A' for Active; 'I' for Inactive)
REMARK    1  A    between atoms: C4_5  and  N2_6 
REMARK    2  A    between atoms: N2_6  and  C5_7 
REMARK    3  A    between atoms: C5_7  and  N3_9 
REMARK    4  A    between atoms: N3_9  and  C6_10 
REMARK    5  A    between atoms: C6_10  and  C7_11 
REMARK    6  A    between atoms: C7_11  and  N4_12 
ROOT
HETATM    1  C1  UNL     1      19.990   5.198  50.125  1.00  0.00     0.021 C 
HETATM    2  C2  UNL     1      19.491   3.962  50.896  1.00  0.00     0.090 C 
HETATM    3  C3  UNL     1      20.593   3.605  51.833  1.00  0.00     0.130 C 
HETATM    4  N1  UNL     1      21.688   4.255  51.521  1.00  0.00    -0.248 NA
HETATM    5  C4  UNL     1      22.878   4.050  52.311  1.00  0.00     0.218 C 
HETATM    6  C12 UNL     1      23.217   2.674  52.664  1.00  0.00     0.064 C 
HETATM    7  C13 UNL     1      23.262   1.372  52.952  1.00  0.00    -0.017 C 
HETATM    8  C14 UNL     1      22.379   0.182  53.066  1.00  0.00    -0.001 C 
HETATM    9  C15 UNL     1      21.077   0.223  52.843  1.00  0.00     0.031 C 
HETATM   10  C16 UNL     1      20.190   1.343  52.455  1.00  0.00     0.058 C 
HETATM   11  N5  UNL     1      20.083   2.625  52.807  1.00  0.00    -0.234 NA
HETATM   12  C17 UNL     1      19.240   0.881  51.410  1.00  0.00     0.030 C 
HETATM   13  C18 UNL     1      18.804   1.599  50.348  1.00  0.00     0.013 C 
HETATM   14  C19 UNL     1      19.177   2.941  49.866  1.00  0.00     0.204 C 
HETATM   15  F1  UNL     1      18.158   3.439  49.083  1.00  0.00    -0.244 F 
ENDROOT
BRANCH   5  16
HETATM   16  N2  UNL     1      24.017   4.742  51.726  1.00  0.00    -0.344 N 
HETATM   17  H6  UNL     1      24.193   5.711  52.113  1.00  0.00     0.164 HD
BRANCH  16  18
HETATM   18  C5  UNL     1      24.832   4.156  50.722  1.00  0.00     0.169 C 
HETATM   19  S1  UNL     1      24.112   3.911  49.256  1.00  0.00    -0.041 SA
BRANCH  18  20
HETATM   20  N3  UNL     1      26.186   3.775  50.886  1.00  0.00    -0.366 N 
HETATM   21  H7  UNL     1      26.909   4.522  50.962  1.00  0.00     0.161 HD
BRANCH  20  22
HETATM   22  C6  UNL     1      26.730   2.456  50.967  1.00  0.00     0.152 C 
BRANCH  22  23
HETATM   23  C7  UNL     1      26.934   2.065  52.423  1.00  0.00     0.292 C 
BRANCH  23  24
HETATM   24  N4  UNL     1      27.465   0.755  52.573  1.00  0.00     0.094 N 
HETATM   25  C8  UNL     1      26.452  -0.239  52.668  1.00  0.00     0.298 C 
HETATM   26  C9  UNL     1      27.010  -1.626  52.916  1.00  0.00     0.198 C 
HETATM   27  O1  UNL     1      28.106  -1.624  53.774  1.00  0.00    -0.388 OA
HETATM   28  C10 UNL     1      29.094  -0.754  53.378  1.00  0.00     0.198 C 
HETATM   29  C11 UNL     1      28.501   0.654  53.550  1.00  0.00     0.298 C 
ENDBRANCH  23  24
ENDBRANCH  22  23
ENDBRANCH  20  22
ENDBRANCH  18  20
ENDBRANCH  16  18
ENDBRANCH   5  16
TORSDOF 6
ENDMDL
