MODEL 1
REMARK VINA RESULT:      -8.6      0.000      0.000
REMARK  3 active torsions:
REMARK  status: ('A' for Active; 'I' for Inactive)
REMARK    1  A    between atoms: C3_3  and  C4_4 
REMARK    2  A    between atoms: C6_6  and  C7_7 
REMARK    3  A    between atoms: C8_8  and  N1_9 
REMARK       I    between atoms: N1_9  and  C9_10 
REMARK       I    between atoms: C9_10  and  N2_11 
ROOT
HETATM    1  C4  UNL     1      25.645   0.265  53.232  1.00  0.00     0.030 C 
HETATM    2  C5  UNL     1      25.416   1.221  52.351  1.00  0.00     0.024 C 
HETATM    3  C6  UNL     1      24.261   1.697  51.596  1.00  0.00     0.121 C 
HETATM    4  C10 UNL     1      22.998   1.047  51.934  1.00  0.00    -0.043 A 
HETATM    5  C11 UNL     1      21.954   1.127  51.092  1.00  0.00     0.008 A 
HETATM    6  C12 UNL     1      20.822   0.403  51.627  1.00  0.00     0.028 A 
HETATM    7  C13 UNL     1      21.111  -0.139  52.795  1.00  0.00     0.051 A 
HETATM    8  N3  UNL     1      20.426  -0.946  53.753  1.00  0.00    -0.245 NA
HETATM    9  C14 UNL     1      21.220  -1.593  54.577  1.00  0.00     0.235 C 
HETATM   10  N4  UNL     1      22.614  -1.454  54.515  1.00  0.00    -0.228 NA
HETATM   11  C15 UNL     1      23.265  -0.708  53.734  1.00  0.00     0.120 C 
HETATM   12  N5  UNL     1      24.673  -0.640  53.706  1.00  0.00    -0.344 N 
HETATM   13  C16 UNL     1      22.470   0.309  53.054  1.00  0.00     0.138 A 
HETATM   14  H14 UNL     1      25.053  -1.519  54.178  1.00  0.00     0.167 HD
ENDROOT
BRANCH   3  15
HETATM   15  C7  UNL     1      24.111   3.144  51.819  1.00  0.00    -0.070 C 
HETATM   16  C8  UNL     1      23.970   4.331  52.009  1.00  0.00     0.015 C 
BRANCH  16  17
HETATM   17  N1  UNL     1      23.785   5.716  52.223  1.00  0.00    -0.268 N 
HETATM   18  C9  UNL     1      24.343   6.566  51.213  1.00  0.00     0.325 C 
HETATM   19  N2  UNL     1      24.210   7.987  51.336  1.00  0.00    -0.351 N 
HETATM   20  O1  UNL     1      24.950   6.121  50.213  1.00  0.00    -0.247 OA
HETATM   21  H9  UNL     1      23.657   8.874  51.350  1.00  0.00     0.160 HD
HETATM   22  H10 UNL     1      25.180   8.347  51.500  1.00  0.00     0.160 HD
HETATM   23  H8  UNL     1      23.276   6.082  53.061  1.00  0.00     0.181 HD
ENDBRANCH  16  17
ENDBRANCH   3  15
BRANCH   1  24
HETATM   24  C3  UNL     1      26.996   0.123  53.762  1.00  0.00     0.025 C 
HETATM   25  C2  UNL     1      27.979  -0.539  53.207  1.00  0.00    -0.029 C 
HETATM   26  C1  UNL     1      29.343  -0.643  53.808  1.00  0.00     0.036 C 
ENDBRANCH   1  24
TORSDOF 3
ENDMDL
MODEL 2
REMARK VINA RESULT:      -8.3      3.044      5.658
REMARK  3 active torsions:
REMARK  status: ('A' for Active; 'I' for Inactive)
REMARK    1  A    between atoms: C3_3  and  C4_4 
REMARK    2  A    between atoms: C6_6  and  C7_7 
REMARK    3  A    between atoms: C8_8  and  N1_9 
REMARK       I    between atoms: N1_9  and  C9_10 
REMARK       I    between atoms: C9_10  and  N2_11 
ROOT
HETATM    1  C4  UNL     1      24.416   2.883  50.720  1.00  0.00     0.030 C 
HETATM    2  C5  UNL     1      24.980   2.184  51.687  1.00  0.00     0.024 C 
HETATM    3  C6  UNL     1      24.529   1.216  52.683  1.00  0.00     0.121 C 
HETATM    4  C10 UNL     1      23.131   0.818  52.560  1.00  0.00    -0.043 A 
HETATM    5  C11 UNL     1      22.504   0.231  53.594  1.00  0.00     0.008 A 
HETATM    6  C12 UNL     1      21.132  -0.063  53.247  1.00  0.00     0.028 A 
HETATM    7  C13 UNL     1      20.859   0.317  52.014  1.00  0.00     0.051 A 
HETATM    8  N3  UNL     1      19.714   0.300  51.161  1.00  0.00    -0.245 NA
HETATM    9  C14 UNL     1      19.778   1.146  50.158  1.00  0.00     0.235 C 
HETATM   10  N4  UNL     1      20.903   1.960  49.953  1.00  0.00    -0.228 NA
HETATM   11  C15 UNL     1      21.962   1.969  50.636  1.00  0.00     0.120 C 
HETATM   12  N5  UNL     1      23.046   2.838  50.390  1.00  0.00    -0.344 N 
HETATM   13  C16 UNL     1      22.130   0.822  51.522  1.00  0.00     0.138 A 
HETATM   14  H14 UNL     1      22.686   3.650  49.800  1.00  0.00     0.167 HD
ENDROOT
BRANCH   3  15
HETATM   15  C7  UNL     1      25.365   0.009  52.585  1.00  0.00    -0.070 C 
HETATM   16  C8  UNL     1      26.056  -0.982  52.521  1.00  0.00     0.015 C 
BRANCH  16  17
HETATM   17  N1  UNL     1      26.878  -2.130  52.462  1.00  0.00    -0.268 N 
HETATM   18  C9  UNL     1      28.084  -2.054  53.231  1.00  0.00     0.325 C 
HETATM   19  N2  UNL     1      28.987  -3.166  53.239  1.00  0.00    -0.351 N 
HETATM   20  O1  UNL     1      28.393  -1.048  53.909  1.00  0.00    -0.247 OA
HETATM   21  H9  UNL     1      29.256  -4.148  53.476  1.00  0.00     0.160 HD
HETATM   22  H10 UNL     1      29.848  -2.833  52.742  1.00  0.00     0.160 HD
HETATM   23  H8  UNL     1      26.615  -2.970  51.893  1.00  0.00     0.181 HD
ENDBRANCH  16  17
ENDBRANCH   3  15
BRANCH   1  24
HETATM   24  C3  UNL     1      25.259   3.771  49.927  1.00  0.00     0.025 C 
HETATM   25  C2  UNL     1      26.525   3.591  49.649  1.00  0.00    -0.029 C 
HETATM   26  C1  UNL     1      27.329   4.545  48.827  1.00  0.00     0.036 C 
ENDBRANCH   1  24
TORSDOF 3
ENDMDL
MODEL 3
REMARK VINA RESULT:      -8.2      2.812      5.888
REMARK  3 active torsions:
REMARK  status: ('A' for Active; 'I' for Inactive)
REMARK    1  A    between atoms: C3_3  and  C4_4 
REMARK    2  A    between atoms: C6_6  and  C7_7 
REMARK    3  A    between atoms: C8_8  and  N1_9 
REMARK       I    between atoms: N1_9  and  C9_10 
REMARK       I    between atoms: C9_10  and  N2_11 
ROOT
HETATM    1  C4  UNL     1      26.527   0.744  52.537  1.00  0.00     0.030 C 
HETATM    2  C5  UNL     1      25.426   0.820  53.260  1.00  0.00     0.024 C 
HETATM    3  C6  UNL     1      24.325   1.769  53.400  1.00  0.00     0.121 C 
HETATM    4  C10 UNL     1      24.357   2.886  52.461  1.00  0.00    -0.043 A 
HETATM    5  C11 UNL     1      23.633   3.992  52.706  1.00  0.00     0.008 A 
HETATM    6  C12 UNL     1      23.828   4.962  51.651  1.00  0.00     0.028 A 
HETATM    7  C13 UNL     1      24.657   4.508  50.732  1.00  0.00     0.051 A 
HETATM    8  N3  UNL     1      25.217   5.002  49.514  1.00  0.00    -0.245 NA
HETATM    9  C14 UNL     1      26.307   4.377  49.130  1.00  0.00     0.235 C 
HETATM   10  N4  UNL     1      26.831   3.298  49.859  1.00  0.00    -0.228 NA
HETATM   11  C15 UNL     1      26.343   2.783  50.901  1.00  0.00     0.120 C 
HETATM   12  N5  UNL     1      26.942   1.715  51.601  1.00  0.00    -0.344 N 
HETATM   13  C16 UNL     1      24.962   3.159  51.181  1.00  0.00     0.138 A 
HETATM   14  H14 UNL     1      27.968   1.670  51.314  1.00  0.00     0.167 HD
ENDROOT
BRANCH   3  15
HETATM   15  C7  UNL     1      23.053   1.051  53.223  1.00  0.00    -0.070 C 
HETATM   16  C8  UNL     1      21.998   0.476  53.081  1.00  0.00     0.015 C 
BRANCH  16  17
HETATM   17  N1  UNL     1      20.756  -0.184  52.934  1.00  0.00    -0.268 N 
HETATM   18  C9  UNL     1      20.444  -1.128  53.965  1.00  0.00     0.325 C 
HETATM   19  N2  UNL     1      19.209  -1.851  53.909  1.00  0.00    -0.351 N 
HETATM   20  O1  UNL     1      21.209  -1.355  54.930  1.00  0.00    -0.247 OA
HETATM   21  H9  UNL     1      18.167  -1.921  53.948  1.00  0.00     0.160 HD
HETATM   22  H10 UNL     1      19.475  -2.849  53.736  1.00  0.00     0.160 HD
HETATM   23  H8  UNL     1      20.120   0.011  52.125  1.00  0.00     0.181 HD
ENDBRANCH  16  17
ENDBRANCH   3  15
BRANCH   1  24
HETATM   24  C3  UNL     1      27.388  -0.420  52.708  1.00  0.00     0.025 C 
HETATM   25  C2  UNL     1      28.557  -0.438  53.298  1.00  0.00    -0.029 C 
HETATM   26  C1  UNL     1      29.388  -1.671  53.438  1.00  0.00     0.036 C 
ENDBRANCH   1  24
TORSDOF 3
ENDMDL
MODEL 4
REMARK VINA RESULT:      -8.0      2.177      5.074
REMARK  3 active torsions:
REMARK  status: ('A' for Active; 'I' for Inactive)
REMARK    1  A    between atoms: C3_3  and  C4_4 
REMARK    2  A    between atoms: C6_6  and  C7_7 
REMARK    3  A    between atoms: C8_8  and  N1_9 
REMARK       I    between atoms: N1_9  and  C9_10 
REMARK       I    between atoms: C9_10  and  N2_11 
ROOT
HETATM    1  C4  UNL     1      24.307  -0.109  53.316  1.00  0.00     0.030 C 
HETATM    2  C5  UNL     1      24.372   1.188  53.082  1.00  0.00     0.024 C 
HETATM    3  C6  UNL     1      25.430   2.192  53.017  1.00  0.00     0.121 C 
HETATM    4  C10 UNL     1      26.784   1.662  53.146  1.00  0.00    -0.043 A 
HETATM    5  C11 UNL     1      27.801   2.483  53.459  1.00  0.00     0.008 A 
HETATM    6  C12 UNL     1      29.039   1.739  53.540  1.00  0.00     0.028 A 
HETATM    7  C13 UNL     1      28.845   0.460  53.285  1.00  0.00     0.051 A 
HETATM    8  N3  UNL     1      29.655  -0.715  53.233  1.00  0.00    -0.245 NA
HETATM    9  C14 UNL     1      28.982  -1.839  53.338  1.00  0.00     0.235 C 
HETATM   10  N4  UNL     1      27.584  -1.849  53.457  1.00  0.00    -0.228 NA
HETATM   11  C15 UNL     1      26.817  -0.848  53.444  1.00  0.00     0.120 C 
HETATM   12  N5  UNL     1      25.418  -0.931  53.598  1.00  0.00    -0.344 N 
HETATM   13  C16 UNL     1      27.429   0.386  52.962  1.00  0.00     0.138 A 
HETATM   14  H14 UNL     1      25.193  -1.873  54.044  1.00  0.00     0.167 HD
ENDROOT
BRANCH   3  15
HETATM   15  C7  UNL     1      25.332   2.905  51.735  1.00  0.00    -0.070 C 
HETATM   16  C8  UNL     1      25.243   3.506  50.688  1.00  0.00     0.015 C 
BRANCH  16  17
HETATM   17  N1  UNL     1      25.120   4.217  49.472  1.00  0.00    -0.268 N 
HETATM   18  C9  UNL     1      24.964   5.634  49.610  1.00  0.00     0.325 C 
HETATM   19  N2  UNL     1      24.830   6.446  48.438  1.00  0.00    -0.351 N 
HETATM   20  O1  UNL     1      24.938   6.207  50.722  1.00  0.00    -0.247 OA
HETATM   21  H9  UNL     1      25.189   6.876  47.555  1.00  0.00     0.160 HD
HETATM   22  H10 UNL     1      23.850   6.816  48.462  1.00  0.00     0.160 HD
HETATM   23  H8  UNL     1      25.143   3.731  48.544  1.00  0.00     0.181 HD
ENDBRANCH  16  17
ENDBRANCH   3  15
BRANCH   1  24
HETATM   24  C3  UNL     1      22.999  -0.753  53.284  1.00  0.00     0.025 C 
HETATM   25  C2  UNL     1      22.222  -0.976  54.314  1.00  0.00    -0.029 C 
HETATM   26  C1  UNL     1      20.889  -1.644  54.207  1.00  0.00     0.036 C 
ENDBRANCH   1  24
TORSDOF 3
ENDMDL
MODEL 5
REMARK VINA RESULT:      -7.5      2.660      6.477
REMARK  3 active torsions:
REMARK  status: ('A' for Active; 'I' for Inactive)
REMARK    1  A    between atoms: C3_3  and  C4_4 
REMARK    2  A    between atoms: C6_6  and  C7_7 
REMARK    3  A    between atoms: C8_8  and  N1_9 
REMARK       I    between atoms: N1_9  and  C9_10 
REMARK       I    between atoms: C9_10  and  N2_11 
ROOT
HETATM    1  C4  UNL     1      25.248   2.897  51.693  1.00  0.00     0.030 C 
HETATM    2  C5  UNL     1      24.519   1.808  51.538  1.00  0.00     0.024 C 
HETATM    3  C6  UNL     1      24.680   0.386  51.828  1.00  0.00     0.121 C 
HETATM    4  C10 UNL     1      25.898   0.045  52.556  1.00  0.00    -0.043 A 
HETATM    5  C11 UNL     1      26.339  -1.225  52.570  1.00  0.00     0.008 A 
HETATM    6  C12 UNL     1      27.560  -1.323  53.340  1.00  0.00     0.028 A 
HETATM    7  C13 UNL     1      27.914  -0.148  53.824  1.00  0.00     0.051 A 
HETATM    8  N3  UNL     1      28.990   0.358  54.615  1.00  0.00    -0.245 NA
HETATM    9  C14 UNL     1      29.163   1.658  54.520  1.00  0.00     0.235 C 
HETATM   10  N4  UNL     1      28.323   2.455  53.727  1.00  0.00    -0.228 NA
HETATM   11  C15 UNL     1      27.324   2.069  53.061  1.00  0.00     0.120 C 
HETATM   12  N5  UNL     1      26.540   2.924  52.259  1.00  0.00    -0.344 N 
HETATM   13  C16 UNL     1      26.840   0.735  53.401  1.00  0.00     0.138 A 
HETATM   14  H14 UNL     1      27.113   3.801  52.058  1.00  0.00     0.167 HD
ENDROOT
BRANCH   3  15
HETATM   15  C7  UNL     1      23.525  -0.072  52.616  1.00  0.00    -0.070 C 
HETATM   16  C8  UNL     1      22.566  -0.449  53.249  1.00  0.00     0.015 C 
BRANCH  16  17
HETATM   17  N1  UNL     1      21.431  -0.876  53.976  1.00  0.00    -0.268 N 
HETATM   18  C9  UNL     1      20.172  -0.632  53.337  1.00  0.00     0.325 C 
HETATM   19  N2  UNL     1      18.961  -1.027  53.990  1.00  0.00    -0.351 N 
HETATM   20  O1  UNL     1      20.078  -0.083  52.215  1.00  0.00    -0.247 OA
HETATM   21  H9  UNL     1      18.291  -1.737  54.363  1.00  0.00     0.160 HD
HETATM   22  H10 UNL     1      18.469  -0.134  54.233  1.00  0.00     0.160 HD
HETATM   23  H8  UNL     1      21.516  -1.335  54.914  1.00  0.00     0.181 HD
ENDBRANCH  16  17
ENDBRANCH   3  15
BRANCH   1  24
HETATM   24  C3  UNL     1      24.692   4.171  51.252  1.00  0.00     0.025 C 
HETATM   25  C2  UNL     1      23.543   4.681  51.618  1.00  0.00    -0.029 C 
HETATM   26  C1  UNL     1      23.035   5.996  51.124  1.00  0.00     0.036 C 
ENDBRANCH   1  24
TORSDOF 3
ENDMDL
MODEL 6
REMARK VINA RESULT:      -7.4      2.755      5.245
REMARK  3 active torsions:
REMARK  status: ('A' for Active; 'I' for Inactive)
REMARK    1  A    between atoms: C3_3  and  C4_4 
REMARK    2  A    between atoms: C6_6  and  C7_7 
REMARK    3  A    between atoms: C8_8  and  N1_9 
REMARK       I    between atoms: N1_9  and  C9_10 
REMARK       I    between atoms: C9_10  and  N2_11 
ROOT
HETATM    1  C4  UNL     1      22.411   0.033  53.071  1.00  0.00     0.030 C 
HETATM    2  C5  UNL     1      22.273   1.085  52.285  1.00  0.00     0.024 C 
HETATM    3  C6  UNL     1      23.169   2.055  51.663  1.00  0.00     0.121 C 
HETATM    4  C10 UNL     1      24.591   1.784  51.851  1.00  0.00    -0.043 A 
HETATM    5  C11 UNL     1      25.494   2.759  51.650  1.00  0.00     0.008 A 
HETATM    6  C12 UNL     1      26.829   2.265  51.905  1.00  0.00     0.028 A 
HETATM    7  C13 UNL     1      26.809   0.996  52.262  1.00  0.00     0.051 A 
HETATM    8  N3  UNL     1      27.777   0.015  52.637  1.00  0.00    -0.245 NA
HETATM    9  C14 UNL     1      27.282  -1.004  53.303  1.00  0.00     0.235 C 
HETATM   10  N4  UNL     1      25.909  -1.105  53.577  1.00  0.00    -0.228 NA
HETATM   11  C15 UNL     1      25.006  -0.303  53.216  1.00  0.00     0.120 C 
HETATM   12  N5  UNL     1      23.645  -0.452  53.553  1.00  0.00    -0.344 N 
HETATM   13  C16 UNL     1      25.403   0.637  52.173  1.00  0.00     0.138 A 
HETATM   14  H14 UNL     1      23.586  -1.110  54.391  1.00  0.00     0.167 HD
ENDROOT
BRANCH   3  15
HETATM   15  C7  UNL     1      22.893   2.099  50.219  1.00  0.00    -0.070 C 
HETATM   16  C8  UNL     1      22.651   2.127  49.033  1.00  0.00     0.015 C 
BRANCH  16  17
HETATM   17  N1  UNL     1      22.358   2.139  47.650  1.00  0.00    -0.268 N 
HETATM   18  C9  UNL     1      22.185   3.441  47.077  1.00  0.00     0.325 C 
HETATM   19  N2  UNL     1      21.886   3.563  45.682  1.00  0.00    -0.351 N 
HETATM   20  O1  UNL     1      22.286   4.494  47.747  1.00  0.00    -0.247 OA
HETATM   21  H9  UNL     1      22.120   3.479  44.667  1.00  0.00     0.160 HD
HETATM   22  H10 UNL     1      20.908   3.937  45.636  1.00  0.00     0.160 HD
HETATM   23  H8  UNL     1      22.276   1.254  47.096  1.00  0.00     0.181 HD
ENDBRANCH  16  17
ENDBRANCH   3  15
BRANCH   1  24
HETATM   24  C3  UNL     1      21.211  -0.688  53.479  1.00  0.00     0.025 C 
HETATM   25  C2  UNL     1      19.983  -0.414  53.115  1.00  0.00    -0.029 C 
HETATM   26  C1  UNL     1      18.798  -1.198  53.574  1.00  0.00     0.036 C 
ENDBRANCH   1  24
TORSDOF 3
ENDMDL
MODEL 7
REMARK VINA RESULT:      -7.4      4.836      7.835
REMARK  3 active torsions:
REMARK  status: ('A' for Active; 'I' for Inactive)
REMARK    1  A    between atoms: C3_3  and  C4_4 
REMARK    2  A    between atoms: C6_6  and  C7_7 
REMARK    3  A    between atoms: C8_8  and  N1_9 
REMARK       I    between atoms: N1_9  and  C9_10 
REMARK       I    between atoms: C9_10  and  N2_11 
ROOT
HETATM    1  C4  UNL     1      26.445   3.810  49.929  1.00  0.00     0.030 C 
HETATM    2  C5  UNL     1      27.376   4.133  49.051  1.00  0.00     0.024 C 
HETATM    3  C6  UNL     1      27.683   5.299  48.228  1.00  0.00     0.121 C 
HETATM    4  C10 UNL     1      26.829   6.459  48.467  1.00  0.00    -0.043 A 
HETATM    5  C11 UNL     1      26.764   7.446  47.557  1.00  0.00     0.008 A 
HETATM    6  C12 UNL     1      25.854   8.478  48.001  1.00  0.00     0.028 A 
HETATM    7  C13 UNL     1      25.332   8.182  49.175  1.00  0.00     0.051 A 
HETATM    8  N3  UNL     1      24.399   8.788  50.070  1.00  0.00    -0.245 NA
HETATM    9  C14 UNL     1      23.865   7.955  50.936  1.00  0.00     0.235 C 
HETATM   10  N4  UNL     1      24.227   6.600  50.971  1.00  0.00    -0.228 NA
HETATM   11  C15 UNL     1      25.089   6.029  50.249  1.00  0.00     0.120 C 
HETATM   12  N5  UNL     1      25.383   4.652  50.320  1.00  0.00    -0.344 N 
HETATM   13  C16 UNL     1      25.984   6.933  49.534  1.00  0.00     0.138 A 
HETATM   14  H14 UNL     1      24.563   4.167  50.800  1.00  0.00     0.167 HD
ENDROOT
BRANCH   3  15
HETATM   15  C7  UNL     1      29.079   5.695  48.465  1.00  0.00    -0.070 C 
HETATM   16  C8  UNL     1      30.234   6.005  48.655  1.00  0.00     0.015 C 
BRANCH  16  17
HETATM   17  N1  UNL     1      31.587   6.345  48.883  1.00  0.00    -0.268 N 
HETATM   18  C9  UNL     1      32.524   5.283  48.673  1.00  0.00     0.325 C 
HETATM   19  N2  UNL     1      33.921   5.524  48.877  1.00  0.00    -0.351 N 
HETATM   20  O1  UNL     1      32.177   4.135  48.313  1.00  0.00    -0.247 OA
HETATM   21  H9  UNL     1      34.835   5.971  48.638  1.00  0.00     0.160 HD
HETATM   22  H10 UNL     1      34.186   4.951  49.714  1.00  0.00     0.160 HD
HETATM   23  H8  UNL     1      31.871   7.308  49.184  1.00  0.00     0.181 HD
ENDBRANCH  16  17
ENDBRANCH   3  15
BRANCH   1  24
HETATM   24  C3  UNL     1      26.506   2.491  50.548  1.00  0.00     0.025 C 
HETATM   25  C2  UNL     1      26.846   2.233  51.786  1.00  0.00    -0.029 C 
HETATM   26  C1  UNL     1      26.887   0.852  52.354  1.00  0.00     0.036 C 
ENDBRANCH   1  24
TORSDOF 3
ENDMDL
MODEL 8
REMARK VINA RESULT:      -7.3      3.300      7.494
REMARK  3 active torsions:
REMARK  status: ('A' for Active; 'I' for Inactive)
REMARK    1  A    between atoms: C3_3  and  C4_4 
REMARK    2  A    between atoms: C6_6  and  C7_7 
REMARK    3  A    between atoms: C8_8  and  N1_9 
REMARK       I    between atoms: N1_9  and  C9_10 
REMARK       I    between atoms: C9_10  and  N2_11 
ROOT
HETATM    1  C4  UNL     1      23.158   3.915  50.962  1.00  0.00     0.030 C 
HETATM    2  C5  UNL     1      24.126   3.022  50.864  1.00  0.00     0.024 C 
HETATM    3  C6  UNL     1      25.478   2.996  50.314  1.00  0.00     0.121 C 
HETATM    4  C10 UNL     1      25.962   4.281  49.818  1.00  0.00    -0.043 A 
HETATM    5  C11 UNL     1      27.013   4.327  48.982  1.00  0.00     0.008 A 
HETATM    6  C12 UNL     1      27.305   5.696  48.618  1.00  0.00     0.028 A 
HETATM    7  C13 UNL     1      26.469   6.533  49.202  1.00  0.00     0.051 A 
HETATM    8  N3  UNL     1      26.266   7.946  49.210  1.00  0.00    -0.245 NA
HETATM    9  C14 UNL     1      25.069   8.316  49.610  1.00  0.00     0.235 C 
HETATM   10  N4  UNL     1      24.108   7.378  50.017  1.00  0.00    -0.228 NA
HETATM   11  C15 UNL     1      24.257   6.128  50.089  1.00  0.00     0.120 C 
HETATM   12  N5  UNL     1      23.235   5.238  50.481  1.00  0.00    -0.344 N 
HETATM   13  C16 UNL     1      25.641   5.670  50.029  1.00  0.00     0.138 A 
HETATM   14  H14 UNL     1      22.301   5.742  50.367  1.00  0.00     0.167 HD
ENDROOT
BRANCH   3  15
HETATM   15  C7  UNL     1      26.405   2.521  51.352  1.00  0.00    -0.070 C 
HETATM   16  C8  UNL     1      27.164   2.113  52.201  1.00  0.00     0.015 C 
BRANCH  16  17
HETATM   17  N1  UNL     1      28.038   1.619  53.197  1.00  0.00    -0.268 N 
HETATM   18  C9  UNL     1      27.588   0.435  53.866  1.00  0.00     0.325 C 
HETATM   19  N2  UNL     1      28.401  -0.147  54.893  1.00  0.00    -0.351 N 
HETATM   20  O1  UNL     1      26.503  -0.126  53.594  1.00  0.00    -0.247 OA
HETATM   21  H9  UNL     1      29.255  -0.640  55.239  1.00  0.00     0.160 HD
HETATM   22  H10 UNL     1      27.865  -0.015  55.784  1.00  0.00     0.160 HD
HETATM   23  H8  UNL     1      28.945   2.093  53.421  1.00  0.00     0.181 HD
ENDBRANCH  16  17
ENDBRANCH   3  15
BRANCH   1  24
HETATM   24  C3  UNL     1      21.914   3.518  51.612  1.00  0.00     0.025 C 
HETATM   25  C2  UNL     1      21.652   2.343  52.127  1.00  0.00    -0.029 C 
HETATM   26  C1  UNL     1      20.351   2.005  52.780  1.00  0.00     0.036 C 
ENDBRANCH   1  24
TORSDOF 3
ENDMDL
MODEL 9
REMARK VINA RESULT:      -7.2      2.930      4.865
REMARK  3 active torsions:
REMARK  status: ('A' for Active; 'I' for Inactive)
REMARK    1  A    between atoms: C3_3  and  C4_4 
REMARK    2  A    between atoms: C6_6  and  C7_7 
REMARK    3  A    between atoms: C8_8  and  N1_9 
REMARK       I    between atoms: N1_9  and  C9_10 
REMARK       I    between atoms: C9_10  and  N2_11 
ROOT
HETATM    1  C4  UNL     1      26.428   3.907  49.600  1.00  0.00     0.030 C 
HETATM    2  C5  UNL     1      25.142   3.935  49.304  1.00  0.00     0.024 C 
HETATM    3  C6  UNL     1      23.937   3.276  49.800  1.00  0.00     0.121 C 
HETATM    4  C10 UNL     1      24.138   2.438  50.977  1.00  0.00    -0.043 A 
HETATM    5  C11 UNL     1      23.219   1.515  51.312  1.00  0.00     0.008 A 
HETATM    6  C12 UNL     1      23.634   0.802  52.500  1.00  0.00     0.028 A 
HETATM    7  C13 UNL     1      24.796   1.244  52.940  1.00  0.00     0.051 A 
HETATM    8  N3  UNL     1      25.675   0.928  54.020  1.00  0.00    -0.245 NA
HETATM    9  C14 UNL     1      26.911   1.342  53.846  1.00  0.00     0.235 C 
HETATM   10  N4  UNL     1      27.292   2.058  52.702  1.00  0.00    -0.228 NA
HETATM   11  C15 UNL     1      26.544   2.417  51.752  1.00  0.00     0.120 C 
HETATM   12  N5  UNL     1      27.002   3.113  50.614  1.00  0.00    -0.344 N 
HETATM   13  C16 UNL     1      25.115   2.334  52.032  1.00  0.00     0.138 A 
HETATM   14  H14 UNL     1      28.058   2.973  50.548  1.00  0.00     0.167 HD
ENDROOT
BRANCH   3  15
HETATM   15  C7  UNL     1      22.935   4.302  50.128  1.00  0.00    -0.070 C 
HETATM   16  C8  UNL     1      22.108   5.149  50.380  1.00  0.00     0.015 C 
BRANCH  16  17
HETATM   17  N1  UNL     1      21.149   6.150  50.657  1.00  0.00    -0.268 N 
HETATM   18  C9  UNL     1      21.328   7.377  49.940  1.00  0.00     0.325 C 
HETATM   19  N2  UNL     1      20.410   8.456  50.148  1.00  0.00    -0.351 N 
HETATM   20  O1  UNL     1      22.263   7.557  49.126  1.00  0.00    -0.247 OA
HETATM   21  H9  UNL     1      19.468   8.906  50.081  1.00  0.00     0.160 HD
HETATM   22  H10 UNL     1      20.962   9.209  50.624  1.00  0.00     0.160 HD
HETATM   23  H8  UNL     1      20.369   5.994  51.338  1.00  0.00     0.181 HD
ENDBRANCH  16  17
ENDBRANCH   3  15
BRANCH   1  24
HETATM   24  C3  UNL     1      27.333   4.754  48.830  1.00  0.00     0.025 C 
HETATM   25  C2  UNL     1      27.164   6.025  48.564  1.00  0.00    -0.029 C 
HETATM   26  C1  UNL     1      28.135   6.832  47.767  1.00  0.00     0.036 C 
ENDBRANCH   1  24
TORSDOF 3
ENDMDL
