MODEL 1
REMARK VINA RESULT:      -8.1      0.000      0.000
REMARK  7 active torsions:
REMARK  status: ('A' for Active; 'I' for Inactive)
REMARK    1  A    between atoms: C7_7  and  N1_8 
REMARK    2  A    between atoms: N1_8  and  C8_9 
REMARK    3  A    between atoms: C13_16  and  C14_17 
REMARK    4  A    between atoms: C14_17  and  O1_18 
REMARK    5  A    between atoms: O1_18  and  C15_19 
REMARK    6  A    between atoms: C15_19  and  C16_20 
REMARK    7  A    between atoms: C16_20  and  O2_21 
ROOT
HETATM    1  C1  UNL     1      28.728   6.660  47.730  1.00  0.00     0.018 C 
HETATM    2  C2  UNL     1      27.798   6.063  48.242  1.00  0.00    -0.078 C 
HETATM    3  C3  UNL     1      26.709   5.339  48.830  1.00  0.00     0.019 A 
HETATM    4  C4  UNL     1      25.432   5.845  48.764  1.00  0.00     0.021 A 
HETATM    5  C5  UNL     1      24.430   5.102  49.349  1.00  0.00     0.004 A 
HETATM    6  C6  UNL     1      24.727   3.915  49.962  1.00  0.00     0.029 A 
HETATM    7  C7  UNL     1      25.977   3.363  50.059  1.00  0.00     0.035 A 
HETATM    8  C20 UNL     1      26.943   4.143  49.460  1.00  0.00     0.050 A 
ENDROOT
BRANCH   7   9
HETATM    9  N1  UNL     1      26.235   2.138  50.698  1.00  0.00    -0.340 N 
HETATM   10  H5  UNL     1      25.902   1.348  50.119  1.00  0.00     0.167 HD
BRANCH   9  11
HETATM   11  C8  UNL     1      26.855   1.921  51.948  1.00  0.00     0.142 A 
HETATM   12  N2  UNL     1      28.022   2.402  52.358  1.00  0.00    -0.224 NA
HETATM   13  C9  UNL     1      28.622   2.211  53.523  1.00  0.00     0.236 A 
HETATM   14  N3  UNL     1      27.984   1.428  54.428  1.00  0.00    -0.241 NA
HETATM   15  C10 UNL     1      26.791   0.884  54.124  1.00  0.00     0.072 A 
HETATM   16  C11 UNL     1      26.206   0.102  55.094  1.00  0.00     0.033 A 
HETATM   17  C19 UNL     1      26.242   1.139  52.885  1.00  0.00     0.039 A 
HETATM   18  C12 UNL     1      24.984  -0.487  54.850  1.00  0.00     0.012 A 
HETATM   19  C13 UNL     1      24.384  -0.275  53.636  1.00  0.00    -0.034 A 
HETATM   20  C18 UNL     1      25.024   0.520  52.707  1.00  0.00     0.027 A 
BRANCH  19  21
HETATM   21  C14 UNL     1      23.059  -0.909  53.355  1.00  0.00     0.206 C 
BRANCH  21  22
HETATM   22  O1  UNL     1      22.235  -0.090  52.611  1.00  0.00    -0.385 OA
BRANCH  22  23
HETATM   23  C15 UNL     1      21.353   0.671  53.345  1.00  0.00     0.194 C 
BRANCH  23  24
HETATM   24  C16 UNL     1      20.488   1.442  52.371  1.00  0.00     0.193 C 
BRANCH  24  25
HETATM   25  O2  UNL     1      20.135   2.685  52.858  1.00  0.00    -0.394 OA
HETATM   26  C17 UNL     1      21.010   3.601  52.232  1.00  0.00     0.201 C 
ENDBRANCH  24  25
ENDBRANCH  23  24
ENDBRANCH  22  23
ENDBRANCH  21  22
ENDBRANCH  19  21
ENDBRANCH   9  11
ENDBRANCH   7   9
TORSDOF 7
ENDMDL
MODEL 2
REMARK VINA RESULT:      -7.8      2.876      5.241
REMARK  7 active torsions:
REMARK  status: ('A' for Active; 'I' for Inactive)
REMARK    1  A    between atoms: C7_7  and  N1_8 
REMARK    2  A    between atoms: N1_8  and  C8_9 
REMARK    3  A    between atoms: C13_16  and  C14_17 
REMARK    4  A    between atoms: C14_17  and  O1_18 
REMARK    5  A    between atoms: O1_18  and  C15_19 
REMARK    6  A    between atoms: C15_19  and  C16_20 
REMARK    7  A    between atoms: C16_20  and  O2_21 
ROOT
HETATM    1  C1  UNL     1      26.918   4.819  48.916  1.00  0.00     0.018 C 
HETATM    2  C2  UNL     1      25.900   4.570  49.535  1.00  0.00    -0.078 C 
HETATM    3  C3  UNL     1      24.689   4.271  50.243  1.00  0.00     0.019 A 
HETATM    4  C4  UNL     1      24.117   5.219  51.059  1.00  0.00     0.021 A 
HETATM    5  C5  UNL     1      22.954   4.870  51.710  1.00  0.00     0.004 A 
HETATM    6  C6  UNL     1      22.419   3.623  51.533  1.00  0.00     0.029 A 
HETATM    7  C7  UNL     1      22.943   2.640  50.736  1.00  0.00     0.035 A 
HETATM    8  C20 UNL     1      24.104   3.038  50.106  1.00  0.00     0.050 A 
ENDROOT
BRANCH   7   9
HETATM    9  N1  UNL     1      22.356   1.372  50.582  1.00  0.00    -0.340 N 
HETATM   10  H5  UNL     1      22.727   0.899  49.739  1.00  0.00     0.167 HD
BRANCH   9  11
HETATM   11  C8  UNL     1      21.393   0.751  51.407  1.00  0.00     0.142 A 
HETATM   12  N2  UNL     1      20.080   0.719  51.220  1.00  0.00    -0.224 NA
HETATM   13  C9  UNL     1      19.158   0.146  51.979  1.00  0.00     0.236 A 
HETATM   14  N3  UNL     1      19.587  -0.497  53.094  1.00  0.00    -0.241 NA
HETATM   15  C10 UNL     1      20.900  -0.532  53.387  1.00  0.00     0.072 A 
HETATM   16  C11 UNL     1      21.256  -1.204  54.535  1.00  0.00     0.033 A 
HETATM   17  C19 UNL     1      21.787   0.094  52.538  1.00  0.00     0.039 A 
HETATM   18  C12 UNL     1      22.584  -1.278  54.897  1.00  0.00     0.012 A 
HETATM   19  C13 UNL     1      23.518  -0.675  54.095  1.00  0.00    -0.034 A 
HETATM   20  C18 UNL     1      23.094  -0.019  52.958  1.00  0.00     0.027 A 
BRANCH  19  21
HETATM   21  C14 UNL     1      24.963  -0.746  54.475  1.00  0.00     0.206 C 
BRANCH  21  22
HETATM   22  O1  UNL     1      25.781  -0.950  53.383  1.00  0.00    -0.385 OA
BRANCH  22  23
HETATM   23  C15 UNL     1      27.018  -0.349  53.462  1.00  0.00     0.194 C 
BRANCH  23  24
HETATM   24  C16 UNL     1      26.943   0.723  54.528  1.00  0.00     0.193 C 
BRANCH  24  25
HETATM   25  O2  UNL     1      27.888   1.711  54.342  1.00  0.00    -0.394 OA
HETATM   26  C17 UNL     1      29.115   1.034  54.156  1.00  0.00     0.201 C 
ENDBRANCH  24  25
ENDBRANCH  23  24
ENDBRANCH  22  23
ENDBRANCH  21  22
ENDBRANCH  19  21
ENDBRANCH   9  11
ENDBRANCH   7   9
TORSDOF 7
ENDMDL
MODEL 3
REMARK VINA RESULT:      -7.8      2.460      4.521
REMARK  7 active torsions:
REMARK  status: ('A' for Active; 'I' for Inactive)
REMARK    1  A    between atoms: C7_7  and  N1_8 
REMARK    2  A    between atoms: N1_8  and  C8_9 
REMARK    3  A    between atoms: C13_16  and  C14_17 
REMARK    4  A    between atoms: C14_17  and  O1_18 
REMARK    5  A    between atoms: O1_18  and  C15_19 
REMARK    6  A    between atoms: C15_19  and  C16_20 
REMARK    7  A    between atoms: C16_20  and  O2_21 
ROOT
HETATM    1  C1  UNL     1      29.463   6.059  47.830  1.00  0.00     0.018 C 
HETATM    2  C2  UNL     1      28.327   5.855  48.216  1.00  0.00    -0.078 C 
HETATM    3  C3  UNL     1      26.988   5.593  48.657  1.00  0.00     0.019 A 
HETATM    4  C4  UNL     1      25.996   6.519  48.433  1.00  0.00     0.021 A 
HETATM    5  C5  UNL     1      24.731   6.207  48.880  1.00  0.00     0.004 A 
HETATM    6  C6  UNL     1      24.505   5.018  49.520  1.00  0.00     0.029 A 
HETATM    7  C7  UNL     1      25.452   4.060  49.771  1.00  0.00     0.035 A 
HETATM    8  C20 UNL     1      26.698   4.418  49.304  1.00  0.00     0.050 A 
ENDROOT
BRANCH   7   9
HETATM    9  N1  UNL     1      25.173   2.851  50.431  1.00  0.00    -0.340 N 
HETATM   10  H5  UNL     1      26.051   2.378  50.710  1.00  0.00     0.167 HD
BRANCH   9  11
HETATM   11  C8  UNL     1      23.912   2.283  50.716  1.00  0.00     0.142 A 
HETATM   12  N2  UNL     1      22.768   2.519  50.086  1.00  0.00    -0.224 NA
HETATM   13  C9  UNL     1      21.575   2.000  50.335  1.00  0.00     0.236 A 
HETATM   14  N3  UNL     1      21.486   1.113  51.358  1.00  0.00    -0.241 NA
HETATM   15  C10 UNL     1      22.583   0.796  52.069  1.00  0.00     0.072 A 
HETATM   16  C11 UNL     1      22.412  -0.111  53.091  1.00  0.00     0.033 A 
HETATM   17  C19 UNL     1      23.784   1.386  51.738  1.00  0.00     0.039 A 
HETATM   18  C12 UNL     1      23.494  -0.482  53.861  1.00  0.00     0.012 A 
HETATM   19  C13 UNL     1      24.717   0.070  53.584  1.00  0.00    -0.034 A 
HETATM   20  C18 UNL     1      24.820   0.973  52.546  1.00  0.00     0.027 A 
BRANCH  19  21
HETATM   21  C14 UNL     1      25.900  -0.321  54.412  1.00  0.00     0.206 C 
BRANCH  21  22
HETATM   22  O1  UNL     1      26.696  -1.253  53.779  1.00  0.00    -0.385 OA
BRANCH  22  23
HETATM   23  C15 UNL     1      27.932  -0.791  53.384  1.00  0.00     0.194 C 
BRANCH  23  24
HETATM   24  C16 UNL     1      28.453   0.122  54.474  1.00  0.00     0.193 C 
BRANCH  24  25
HETATM   25  O2  UNL     1      29.339   1.062  53.988  1.00  0.00    -0.394 OA
HETATM   26  C17 UNL     1      28.558   2.200  53.684  1.00  0.00     0.201 C 
ENDBRANCH  24  25
ENDBRANCH  23  24
ENDBRANCH  22  23
ENDBRANCH  21  22
ENDBRANCH  19  21
ENDBRANCH   9  11
ENDBRANCH   7   9
TORSDOF 7
ENDMDL
MODEL 4
REMARK VINA RESULT:      -7.4      2.474      4.730
REMARK  7 active torsions:
REMARK  status: ('A' for Active; 'I' for Inactive)
REMARK    1  A    between atoms: C7_7  and  N1_8 
REMARK    2  A    between atoms: N1_8  and  C8_9 
REMARK    3  A    between atoms: C13_16  and  C14_17 
REMARK    4  A    between atoms: C14_17  and  O1_18 
REMARK    5  A    between atoms: O1_18  and  C15_19 
REMARK    6  A    between atoms: C15_19  and  C16_20 
REMARK    7  A    between atoms: C16_20  and  O2_21 
ROOT
HETATM    1  C1  UNL     1      23.628   8.395  48.493  1.00  0.00     0.018 C 
HETATM    2  C2  UNL     1      24.417   7.481  48.652  1.00  0.00    -0.078 C 
HETATM    3  C3  UNL     1      25.344   6.407  48.863  1.00  0.00     0.019 A 
HETATM    4  C4  UNL     1      26.594   6.455  48.292  1.00  0.00     0.021 A 
HETATM    5  C5  UNL     1      27.438   5.393  48.534  1.00  0.00     0.004 A 
HETATM    6  C6  UNL     1      27.017   4.349  49.313  1.00  0.00     0.029 A 
HETATM    7  C7  UNL     1      25.787   4.247  49.906  1.00  0.00     0.035 A 
HETATM    8  C20 UNL     1      24.981   5.332  49.635  1.00  0.00     0.050 A 
ENDROOT
BRANCH   7   9
HETATM    9  N1  UNL     1      25.399   3.155  50.700  1.00  0.00    -0.340 N 
HETATM   10  H5  UNL     1      26.203   2.797  51.245  1.00  0.00     0.167 HD
BRANCH   9  11
HETATM   11  C8  UNL     1      24.121   2.563  50.806  1.00  0.00     0.142 A 
HETATM   12  N2  UNL     1      23.031   2.885  50.121  1.00  0.00    -0.224 NA
HETATM   13  C9  UNL     1      21.823   2.347  50.203  1.00  0.00     0.236 A 
HETATM   14  N3  UNL     1      21.655   1.335  51.092  1.00  0.00    -0.241 NA
HETATM   15  C10 UNL     1      22.692   0.921  51.842  1.00  0.00     0.072 A 
HETATM   16  C11 UNL     1      22.442  -0.110  52.721  1.00  0.00     0.033 A 
HETATM   17  C19 UNL     1      23.913   1.542  51.689  1.00  0.00     0.039 A 
HETATM   18  C12 UNL     1      23.459  -0.584  53.522  1.00  0.00     0.012 A 
HETATM   19  C13 UNL     1      24.699  -0.008  53.419  1.00  0.00    -0.034 A 
HETATM   20  C18 UNL     1      24.882   1.020  52.518  1.00  0.00     0.027 A 
BRANCH  19  21
HETATM   21  C14 UNL     1      25.812  -0.511  54.283  1.00  0.00     0.206 C 
BRANCH  21  22
HETATM   22  O1  UNL     1      26.816  -1.106  53.547  1.00  0.00    -0.385 OA
BRANCH  22  23
HETATM   23  C15 UNL     1      28.004  -0.409  53.512  1.00  0.00     0.194 C 
BRANCH  23  24
HETATM   24  C16 UNL     1      28.256   0.140  54.900  1.00  0.00     0.193 C 
BRANCH  24  25
HETATM   25  O2  UNL     1      28.621   1.471  54.876  1.00  0.00    -0.394 OA
HETATM   26  C17 UNL     1      28.667   1.829  53.510  1.00  0.00     0.201 C 
ENDBRANCH  24  25
ENDBRANCH  23  24
ENDBRANCH  22  23
ENDBRANCH  21  22
ENDBRANCH  19  21
ENDBRANCH   9  11
ENDBRANCH   7   9
TORSDOF 7
ENDMDL
MODEL 5
REMARK VINA RESULT:      -7.4      3.966      8.520
REMARK  7 active torsions:
REMARK  status: ('A' for Active; 'I' for Inactive)
REMARK    1  A    between atoms: C7_7  and  N1_8 
REMARK    2  A    between atoms: N1_8  and  C8_9 
REMARK    3  A    between atoms: C13_16  and  C14_17 
REMARK    4  A    between atoms: C14_17  and  O1_18 
REMARK    5  A    between atoms: O1_18  and  C15_19 
REMARK    6  A    between atoms: C15_19  and  C16_20 
REMARK    7  A    between atoms: C16_20  and  O2_21 
ROOT
HETATM    1  C1  UNL     1      28.981   0.463  54.392  1.00  0.00     0.018 C 
HETATM    2  C2  UNL     1      27.978   0.774  53.776  1.00  0.00    -0.078 C 
HETATM    3  C3  UNL     1      26.804   1.163  53.050  1.00  0.00     0.019 A 
HETATM    4  C4  UNL     1      25.557   0.864  53.548  1.00  0.00     0.021 A 
HETATM    5  C5  UNL     1      24.469   1.266  52.803  1.00  0.00     0.004 A 
HETATM    6  C6  UNL     1      24.657   1.931  51.622  1.00  0.00     0.029 A 
HETATM    7  C7  UNL     1      25.872   2.255  51.078  1.00  0.00     0.035 A 
HETATM    8  C20 UNL     1      26.926   1.833  51.859  1.00  0.00     0.050 A 
ENDROOT
BRANCH   7   9
HETATM    9  N1  UNL     1      26.017   2.942  49.860  1.00  0.00    -0.340 N 
HETATM   10  H5  UNL     1      26.539   2.366  49.177  1.00  0.00     0.167 HD
BRANCH   9  11
HETATM   11  C8  UNL     1      25.550   4.232  49.526  1.00  0.00     0.142 A 
HETATM   12  N2  UNL     1      24.318   4.702  49.679  1.00  0.00    -0.224 NA
HETATM   13  C9  UNL     1      23.858   5.906  49.373  1.00  0.00     0.236 A 
HETATM   14  N3  UNL     1      24.737   6.787  48.833  1.00  0.00    -0.241 NA
HETATM   15  C10 UNL     1      26.016   6.421  48.632  1.00  0.00     0.072 A 
HETATM   16  C11 UNL     1      26.847   7.371  48.081  1.00  0.00     0.033 A 
HETATM   17  C19 UNL     1      26.406   5.146  48.982  1.00  0.00     0.039 A 
HETATM   18  C12 UNL     1      28.171   7.065  47.846  1.00  0.00     0.012 A 
HETATM   19  C13 UNL     1      28.622   5.812  48.171  1.00  0.00    -0.034 A 
HETATM   20  C18 UNL     1      27.738   4.908  48.720  1.00  0.00     0.027 A 
BRANCH  19  21
HETATM   21  C14 UNL     1      30.056   5.464  47.921  1.00  0.00     0.206 C 
BRANCH  21  22
HETATM   22  O1  UNL     1      30.751   5.239  49.091  1.00  0.00    -0.385 OA
BRANCH  22  23
HETATM   23  C15 UNL     1      32.057   5.678  49.087  1.00  0.00     0.194 C 
BRANCH  23  24
HETATM   24  C16 UNL     1      32.798   4.906  48.017  1.00  0.00     0.193 C 
BRANCH  24  25
HETATM   25  O2  UNL     1      32.694   3.541  48.191  1.00  0.00    -0.394 OA
HETATM   26  C17 UNL     1      33.898   3.000  47.686  1.00  0.00     0.201 C 
ENDBRANCH  24  25
ENDBRANCH  23  24
ENDBRANCH  22  23
ENDBRANCH  21  22
ENDBRANCH  19  21
ENDBRANCH   9  11
ENDBRANCH   7   9
TORSDOF 7
ENDMDL
MODEL 6
REMARK VINA RESULT:      -7.3      0.802      2.062
REMARK  7 active torsions:
REMARK  status: ('A' for Active; 'I' for Inactive)
REMARK    1  A    between atoms: C7_7  and  N1_8 
REMARK    2  A    between atoms: N1_8  and  C8_9 
REMARK    3  A    between atoms: C13_16  and  C14_17 
REMARK    4  A    between atoms: C14_17  and  O1_18 
REMARK    5  A    between atoms: O1_18  and  C15_19 
REMARK    6  A    between atoms: C15_19  and  C16_20 
REMARK    7  A    between atoms: C16_20  and  O2_21 
ROOT
HETATM    1  C1  UNL     1      21.593   4.975  48.614  1.00  0.00     0.018 C 
HETATM    2  C2  UNL     1      22.788   4.848  48.809  1.00  0.00    -0.078 C 
HETATM    3  C3  UNL     1      24.191   4.694  49.063  1.00  0.00     0.019 A 
HETATM    4  C4  UNL     1      25.067   5.697  48.717  1.00  0.00     0.021 A 
HETATM    5  C5  UNL     1      26.401   5.489  48.988  1.00  0.00     0.004 A 
HETATM    6  C6  UNL     1      26.806   4.320  49.575  1.00  0.00     0.029 A 
HETATM    7  C7  UNL     1      25.981   3.289  49.940  1.00  0.00     0.035 A 
HETATM    8  C20 UNL     1      24.658   3.546  49.649  1.00  0.00     0.050 A 
ENDROOT
BRANCH   7   9
HETATM    9  N1  UNL     1      26.442   2.106  50.543  1.00  0.00    -0.340 N 
HETATM   10  H5  UNL     1      26.369   1.310  49.886  1.00  0.00     0.167 HD
BRANCH   9  11
HETATM   11  C8  UNL     1      26.949   1.934  51.850  1.00  0.00     0.142 A 
HETATM   12  N2  UNL     1      28.075   2.432  52.344  1.00  0.00    -0.224 NA
HETATM   13  C9  UNL     1      28.571   2.284  53.563  1.00  0.00     0.236 A 
HETATM   14  N3  UNL     1      27.854   1.532  54.436  1.00  0.00    -0.241 NA
HETATM   15  C10 UNL     1      26.693   0.975  54.047  1.00  0.00     0.072 A 
HETATM   16  C11 UNL     1      26.024   0.227  54.989  1.00  0.00     0.033 A 
HETATM   17  C19 UNL     1      26.255   1.184  52.756  1.00  0.00     0.039 A 
HETATM   18  C12 UNL     1      24.827  -0.373  54.659  1.00  0.00     0.012 A 
HETATM   19  C13 UNL     1      24.337  -0.206  53.391  1.00  0.00    -0.034 A 
HETATM   20  C18 UNL     1      25.057   0.557  52.494  1.00  0.00     0.027 A 
BRANCH  19  21
HETATM   21  C14 UNL     1      23.040  -0.852  53.017  1.00  0.00     0.206 C 
BRANCH  21  22
HETATM   22  O1  UNL     1      21.960  -0.026  53.246  1.00  0.00    -0.385 OA
BRANCH  22  23
HETATM   23  C15 UNL     1      21.345   0.457  52.111  1.00  0.00     0.194 C 
BRANCH  23  24
HETATM   24  C16 UNL     1      20.028   1.075  52.528  1.00  0.00     0.193 C 
BRANCH  24  25
HETATM   25  O2  UNL     1      20.191   2.334  53.071  1.00  0.00    -0.394 OA
HETATM   26  C17 UNL     1      20.661   3.146  52.014  1.00  0.00     0.201 C 
ENDBRANCH  24  25
ENDBRANCH  23  24
ENDBRANCH  22  23
ENDBRANCH  21  22
ENDBRANCH  19  21
ENDBRANCH   9  11
ENDBRANCH   7   9
TORSDOF 7
ENDMDL
MODEL 7
REMARK VINA RESULT:      -7.3      1.594      2.430
REMARK  7 active torsions:
REMARK  status: ('A' for Active; 'I' for Inactive)
REMARK    1  A    between atoms: C7_7  and  N1_8 
REMARK    2  A    between atoms: N1_8  and  C8_9 
REMARK    3  A    between atoms: C13_16  and  C14_17 
REMARK    4  A    between atoms: C14_17  and  O1_18 
REMARK    5  A    between atoms: O1_18  and  C15_19 
REMARK    6  A    between atoms: C15_19  and  C16_20 
REMARK    7  A    between atoms: C16_20  and  O2_21 
ROOT
HETATM    1  C1  UNL     1      23.791   7.631  50.742  1.00  0.00     0.018 C 
HETATM    2  C2  UNL     1      24.354   6.573  50.528  1.00  0.00    -0.078 C 
HETATM    3  C3  UNL     1      25.019   5.323  50.300  1.00  0.00     0.019 A 
HETATM    4  C4  UNL     1      26.132   5.273  49.493  1.00  0.00     0.021 A 
HETATM    5  C5  UNL     1      26.725   4.042  49.315  1.00  0.00     0.004 A 
HETATM    6  C6  UNL     1      26.203   2.936  49.928  1.00  0.00     0.029 A 
HETATM    7  C7  UNL     1      25.099   2.925  50.740  1.00  0.00     0.035 A 
HETATM    8  C20 UNL     1      24.543   4.178  50.887  1.00  0.00     0.050 A 
ENDROOT
BRANCH   7   9
HETATM    9  N1  UNL     1      24.600   1.762  51.352  1.00  0.00    -0.340 N 
HETATM   10  H5  UNL     1      23.643   1.556  51.014  1.00  0.00     0.167 HD
BRANCH   9  11
HETATM   11  C8  UNL     1      25.238   0.932  52.299  1.00  0.00     0.142 A 
HETATM   12  N2  UNL     1      26.540   0.705  52.416  1.00  0.00    -0.224 NA
HETATM   13  C9  UNL     1      27.160  -0.069  53.294  1.00  0.00     0.236 A 
HETATM   14  N3  UNL     1      26.388  -0.723  54.198  1.00  0.00    -0.241 NA
HETATM   15  C10 UNL     1      25.051  -0.568  54.176  1.00  0.00     0.072 A 
HETATM   16  C11 UNL     1      24.337  -1.265  55.126  1.00  0.00     0.033 A 
HETATM   17  C19 UNL     1      24.493   0.258  53.225  1.00  0.00     0.039 A 
HETATM   18  C12 UNL     1      22.963  -1.154  55.161  1.00  0.00     0.012 A 
HETATM   19  C13 UNL     1      22.345  -0.348  54.241  1.00  0.00    -0.034 A 
HETATM   20  C18 UNL     1      23.120   0.322  53.317  1.00  0.00     0.027 A 
BRANCH  19  21
HETATM   21  C14 UNL     1      20.855  -0.220  54.265  1.00  0.00     0.206 C 
BRANCH  21  22
HETATM   22  O1  UNL     1      20.284  -0.524  53.046  1.00  0.00    -0.385 OA
BRANCH  22  23
HETATM   23  C15 UNL     1      19.314   0.357  52.621  1.00  0.00     0.194 C 
BRANCH  23  24
HETATM   24  C16 UNL     1      20.002   1.463  51.850  1.00  0.00     0.193 C 
BRANCH  24  25
HETATM   25  O2  UNL     1      19.567   2.715  52.234  1.00  0.00    -0.394 OA
HETATM   26  C17 UNL     1      20.737   3.493  52.389  1.00  0.00     0.201 C 
ENDBRANCH  24  25
ENDBRANCH  23  24
ENDBRANCH  22  23
ENDBRANCH  21  22
ENDBRANCH  19  21
ENDBRANCH   9  11
ENDBRANCH   7   9
TORSDOF 7
ENDMDL
MODEL 8
REMARK VINA RESULT:      -7.3      2.369      4.674
REMARK  7 active torsions:
REMARK  status: ('A' for Active; 'I' for Inactive)
REMARK    1  A    between atoms: C7_7  and  N1_8 
REMARK    2  A    between atoms: N1_8  and  C8_9 
REMARK    3  A    between atoms: C13_16  and  C14_17 
REMARK    4  A    between atoms: C14_17  and  O1_18 
REMARK    5  A    between atoms: O1_18  and  C15_19 
REMARK    6  A    between atoms: C15_19  and  C16_20 
REMARK    7  A    between atoms: C16_20  and  O2_21 
ROOT
HETATM    1  C1  UNL     1      29.929   5.841  47.886  1.00  0.00     0.018 C 
HETATM    2  C2  UNL     1      28.756   5.851  48.212  1.00  0.00    -0.078 C 
HETATM    3  C3  UNL     1      27.369   5.845  48.580  1.00  0.00     0.019 A 
HETATM    4  C4  UNL     1      26.644   7.014  48.548  1.00  0.00     0.021 A 
HETATM    5  C5  UNL     1      25.318   6.941  48.912  1.00  0.00     0.004 A 
HETATM    6  C6  UNL     1      24.776   5.741  49.286  1.00  0.00     0.029 A 
HETATM    7  C7  UNL     1      25.447   4.549  49.338  1.00  0.00     0.035 A 
HETATM    8  C20 UNL     1      26.769   4.674  48.964  1.00  0.00     0.050 A 
ENDROOT
BRANCH   7   9
HETATM    9  N1  UNL     1      24.848   3.338  49.727  1.00  0.00    -0.340 N 
HETATM   10  H5  UNL     1      25.483   2.798  50.340  1.00  0.00     0.167 HD
BRANCH   9  11
HETATM   11  C8  UNL     1      23.570   2.848  49.381  1.00  0.00     0.142 A 
HETATM   12  N2  UNL     1      22.872   3.131  48.288  1.00  0.00    -0.224 NA
HETATM   13  C9  UNL     1      21.674   2.685  47.943  1.00  0.00     0.236 A 
HETATM   14  N3  UNL     1      21.061   1.829  48.800  1.00  0.00    -0.241 NA
HETATM   15  C10 UNL     1      21.674   1.469  49.943  1.00  0.00     0.072 A 
HETATM   16  C11 UNL     1      20.989   0.597  50.759  1.00  0.00     0.033 A 
HETATM   17  C19 UNL     1      22.922   1.984  50.218  1.00  0.00     0.039 A 
HETATM   18  C12 UNL     1      21.557   0.187  51.946  1.00  0.00     0.012 A 
HETATM   19  C13 UNL     1      22.797   0.664  52.280  1.00  0.00    -0.034 A 
HETATM   20  C18 UNL     1      23.430   1.534  51.417  1.00  0.00     0.027 A 
BRANCH  19  21
HETATM   21  C14 UNL     1      23.426   0.228  53.566  1.00  0.00     0.206 C 
BRANCH  21  22
HETATM   22  O1  UNL     1      24.438  -0.689  53.369  1.00  0.00    -0.385 OA
BRANCH  22  23
HETATM   23  C15 UNL     1      25.612  -0.412  54.034  1.00  0.00     0.194 C 
BRANCH  23  24
HETATM   24  C16 UNL     1      26.753  -0.629  53.064  1.00  0.00     0.193 C 
BRANCH  24  25
HETATM   25  O2  UNL     1      26.646   0.170  51.944  1.00  0.00    -0.394 OA
HETATM   26  C17 UNL     1      27.120   1.442  52.338  1.00  0.00     0.201 C 
ENDBRANCH  24  25
ENDBRANCH  23  24
ENDBRANCH  22  23
ENDBRANCH  21  22
ENDBRANCH  19  21
ENDBRANCH   9  11
ENDBRANCH   7   9
TORSDOF 7
ENDMDL
MODEL 9
REMARK VINA RESULT:      -7.1      2.073      2.562
REMARK  7 active torsions:
REMARK  status: ('A' for Active; 'I' for Inactive)
REMARK    1  A    between atoms: C7_7  and  N1_8 
REMARK    2  A    between atoms: N1_8  and  C8_9 
REMARK    3  A    between atoms: C13_16  and  C14_17 
REMARK    4  A    between atoms: C14_17  and  O1_18 
REMARK    5  A    between atoms: O1_18  and  C15_19 
REMARK    6  A    between atoms: C15_19  and  C16_20 
REMARK    7  A    between atoms: C16_20  and  O2_21 
ROOT
HETATM    1  C1  UNL     1      28.886   7.345  47.081  1.00  0.00     0.018 C 
HETATM    2  C2  UNL     1      28.016   6.979  47.850  1.00  0.00    -0.078 C 
HETATM    3  C3  UNL     1      26.982   6.534  48.738  1.00  0.00     0.019 A 
HETATM    4  C4  UNL     1      26.182   7.453  49.378  1.00  0.00     0.021 A 
HETATM    5  C5  UNL     1      25.207   6.961  50.217  1.00  0.00     0.004 A 
HETATM    6  C6  UNL     1      25.067   5.610  50.386  1.00  0.00     0.029 A 
HETATM    7  C7  UNL     1      25.832   4.651  49.777  1.00  0.00     0.035 A 
HETATM    8  C20 UNL     1      26.792   5.192  48.949  1.00  0.00     0.050 A 
ENDROOT
BRANCH   7   9
HETATM    9  N1  UNL     1      25.650   3.272  49.980  1.00  0.00    -0.340 N 
HETATM   10  H5  UNL     1      25.192   2.841  49.158  1.00  0.00     0.167 HD
BRANCH   9  11
HETATM   11  C8  UNL     1      26.009   2.501  51.107  1.00  0.00     0.142 A 
HETATM   12  N2  UNL     1      27.206   2.422  51.675  1.00  0.00    -0.224 NA
HETATM   13  C9  UNL     1      27.567   1.707  52.730  1.00  0.00     0.236 A 
HETATM   14  N3  UNL     1      26.608   0.952  53.323  1.00  0.00    -0.241 NA
HETATM   15  C10 UNL     1      25.354   0.953  52.835  1.00  0.00     0.072 A 
HETATM   16  C11 UNL     1      24.439   0.161  53.491  1.00  0.00     0.033 A 
HETATM   17  C19 UNL     1      25.072   1.729  51.731  1.00  0.00     0.039 A 
HETATM   18  C12 UNL     1      23.135   0.113  53.044  1.00  0.00     0.012 A 
HETATM   19  C13 UNL     1      22.789   0.861  51.950  1.00  0.00    -0.034 A 
HETATM   20  C18 UNL     1      23.754   1.634  51.339  1.00  0.00     0.027 A 
BRANCH  19  21
HETATM   21  C14 UNL     1      21.378   0.819  51.452  1.00  0.00     0.206 C 
BRANCH  21  22
HETATM   22  O1  UNL     1      21.203   1.578  50.314  1.00  0.00    -0.385 OA
BRANCH  22  23
HETATM   23  C15 UNL     1      21.394   0.904  49.128  1.00  0.00     0.194 C 
BRANCH  23  24
HETATM   24  C16 UNL     1      21.680   1.931  48.054  1.00  0.00     0.193 C 
BRANCH  24  25
HETATM   25  O2  UNL     1      22.873   2.591  48.269  1.00  0.00    -0.394 OA
HETATM   26  C17 UNL     1      22.576   3.967  48.137  1.00  0.00     0.201 C 
ENDBRANCH  24  25
ENDBRANCH  23  24
ENDBRANCH  22  23
ENDBRANCH  21  22
ENDBRANCH  19  21
ENDBRANCH   9  11
ENDBRANCH   7   9
TORSDOF 7
ENDMDL
