MODEL 1
REMARK VINA RESULT:      -8.0      0.000      0.000
REMARK  3 active torsions:
REMARK  status: ('A' for Active; 'I' for Inactive)
REMARK    1  A    between atoms: C3_3  and  C4_4 
REMARK    2  A    between atoms: C5_5  and  N1_6 
REMARK    3  A    between atoms: N1_6  and  C6_7 
ROOT
HETATM    1  C6  UNL     1      25.342   1.438  53.072  1.00  0.00     0.157 A 
HETATM    2  C7  UNL     1      26.084   2.472  53.810  1.00  0.00     0.120 A 
HETATM    3  N2  UNL     1      27.236   2.090  54.161  1.00  0.00    -0.262 NA
HETATM    4  C8  UNL     1      27.538   0.735  53.750  1.00  0.00     0.064 A 
HETATM    5  C9  UNL     1      28.739   0.428  54.158  1.00  0.00     0.032 A 
HETATM    6  C10 UNL     1      29.694  -0.635  54.149  1.00  0.00     0.000 A 
HETATM    7  C11 UNL     1      30.061  -1.849  53.823  1.00  0.00    -0.001 A 
HETATM    8  C12 UNL     1      28.926  -2.487  53.069  1.00  0.00     0.195 A 
HETATM    9  O1  UNL     1      27.961  -1.491  53.045  1.00  0.00    -0.384 OA
HETATM   10  C13 UNL     1      26.797  -1.828  52.411  1.00  0.00     0.196 A 
HETATM   11  C14 UNL     1      25.834  -0.699  52.441  1.00  0.00     0.011 A 
HETATM   12  C15 UNL     1      26.331   0.344  53.066  1.00  0.00    -0.004 A 
ENDROOT
BRANCH   1  13
HETATM   13  N1  UNL     1      24.975   1.861  51.739  1.00  0.00    -0.386 N 
HETATM   14  H3  UNL     1      24.449   1.117  51.186  1.00  0.00     0.160 HD
BRANCH  13  15
HETATM   15  C5  UNL     1      25.096   2.998  50.903  1.00  0.00     0.081 C 
HETATM   16  C4  UNL     1      26.120   3.038  50.025  1.00  0.00     0.006 C 
BRANCH  16  17
HETATM   17  C3  UNL     1      25.587   4.324  49.639  1.00  0.00     0.030 A 
HETATM   18  C2  UNL     1      26.066   5.069  49.163  1.00  0.00    -0.053 A 
HETATM   19  C1  UNL     1      26.459   5.643  48.788  1.00  0.00    -0.066 A 
HETATM   20  C16 UNL     1      27.339   4.484  48.993  1.00  0.00     0.055 A 
HETATM   21  C17 UNL     1      27.026   6.419  48.270  1.00  0.00     0.049 A 
ENDBRANCH  16  17
ENDBRANCH  13  15
ENDBRANCH   1  13
TORSDOF 3
ENDMDL
MODEL 2
REMARK VINA RESULT:      -8.0      4.772      7.541
REMARK  3 active torsions:
REMARK  status: ('A' for Active; 'I' for Inactive)
REMARK    1  A    between atoms: C3_3  and  C4_4 
REMARK    2  A    between atoms: C5_5  and  N1_6 
REMARK    3  A    between atoms: N1_6  and  C6_7 
ROOT
HETATM    1  C6  UNL     1      23.023  -0.201  53.993  1.00  0.00     0.157 A 
HETATM    2  C7  UNL     1      22.770  -1.235  55.008  1.00  0.00     0.120 A 
HETATM    3  N2  UNL     1      21.591  -1.686  54.964  1.00  0.00    -0.262 NA
HETATM    4  C8  UNL     1      20.785  -1.073  53.929  1.00  0.00     0.064 A 
HETATM    5  C9  UNL     1      19.588  -1.594  53.963  1.00  0.00     0.032 A 
HETATM    6  C10 UNL     1      18.315  -1.533  53.317  1.00  0.00     0.000 A 
HETATM    7  C11 UNL     1      17.506  -1.040  52.412  1.00  0.00    -0.001 A 
HETATM    8  C12 UNL     1      18.268  -0.007  51.626  1.00  0.00     0.195 A 
HETATM    9  O1  UNL     1      19.524  -0.024  52.214  1.00  0.00    -0.384 OA
HETATM   10  C13 UNL     1      20.426   0.854  51.678  1.00  0.00     0.196 A 
HETATM   11  C14 UNL     1      21.733   0.758  52.374  1.00  0.00     0.011 A 
HETATM   12  C15 UNL     1      21.707  -0.141  53.331  1.00  0.00    -0.004 A 
ENDROOT
BRANCH   1  13
HETATM   13  N1  UNL     1      24.086  -0.562  53.083  1.00  0.00    -0.386 N 
HETATM   14  H3  UNL     1      23.787  -0.566  52.060  1.00  0.00     0.160 HD
BRANCH  13  15
HETATM   15  C5  UNL     1      25.455  -0.923  53.122  1.00  0.00     0.081 C 
HETATM   16  C4  UNL     1      26.376   0.042  52.913  1.00  0.00     0.006 C 
BRANCH  16  17
HETATM   17  C3  UNL     1      27.350  -1.009  53.094  1.00  0.00     0.030 A 
HETATM   18  C2  UNL     1      28.331  -0.909  53.287  1.00  0.00    -0.053 A 
HETATM   19  C1  UNL     1      29.101  -0.811  53.439  1.00  0.00    -0.066 A 
HETATM   20  C16 UNL     1      28.438   0.497  53.335  1.00  0.00     0.055 A 
HETATM   21  C17 UNL     1      30.160  -0.646  53.648  1.00  0.00     0.049 A 
ENDBRANCH  16  17
ENDBRANCH  13  15
ENDBRANCH   1  13
TORSDOF 3
ENDMDL
MODEL 3
REMARK VINA RESULT:      -7.9      2.810      4.440
REMARK  3 active torsions:
REMARK  status: ('A' for Active; 'I' for Inactive)
REMARK    1  A    between atoms: C3_3  and  C4_4 
REMARK    2  A    between atoms: C5_5  and  N1_6 
REMARK    3  A    between atoms: N1_6  and  C6_7 
ROOT
HETATM    1  C6  UNL     1      25.359   2.158  52.461  1.00  0.00     0.157 A 
HETATM    2  C7  UNL     1      26.213   1.113  53.046  1.00  0.00     0.120 A 
HETATM    3  N2  UNL     1      25.550   0.163  53.549  1.00  0.00    -0.262 NA
HETATM    4  C8  UNL     1      24.118   0.339  53.424  1.00  0.00     0.064 A 
HETATM    5  C9  UNL     1      23.518  -0.683  53.973  1.00  0.00     0.032 A 
HETATM    6  C10 UNL     1      22.220  -1.218  54.236  1.00  0.00     0.000 A 
HETATM    7  C11 UNL     1      20.913  -1.151  54.173  1.00  0.00    -0.001 A 
HETATM    8  C12 UNL     1      20.550   0.128  53.468  1.00  0.00     0.195 A 
HETATM    9  O1  UNL     1      21.784   0.695  53.184  1.00  0.00    -0.384 OA
HETATM   10  C13 UNL     1      21.733   1.900  52.539  1.00  0.00     0.196 A 
HETATM   11  C14 UNL     1      23.099   2.420  52.282  1.00  0.00     0.011 A 
HETATM   12  C15 UNL     1      24.021   1.602  52.736  1.00  0.00    -0.004 A 
ENDROOT
BRANCH   1  13
HETATM   13  N1  UNL     1      25.600   2.348  51.048  1.00  0.00    -0.386 N 
HETATM   14  H3  UNL     1      24.948   1.780  50.425  1.00  0.00     0.160 HD
BRANCH  13  15
HETATM   15  C5  UNL     1      26.461   3.083  50.197  1.00  0.00     0.081 C 
HETATM   16  C4  UNL     1      25.973   4.189  49.598  1.00  0.00     0.006 C 
BRANCH  16  17
HETATM   17  C3  UNL     1      27.286   4.309  49.008  1.00  0.00     0.030 A 
HETATM   18  C2  UNL     1      27.704   5.129  48.604  1.00  0.00    -0.053 A 
HETATM   19  C1  UNL     1      28.017   5.784  48.290  1.00  0.00    -0.066 A 
HETATM   20  C16 UNL     1      26.667   6.065  48.798  1.00  0.00     0.055 A 
HETATM   21  C17 UNL     1      28.424   6.703  47.863  1.00  0.00     0.049 A 
ENDBRANCH  16  17
ENDBRANCH  13  15
ENDBRANCH   1  13
TORSDOF 3
ENDMDL
MODEL 4
REMARK VINA RESULT:      -7.3      3.211      6.971
REMARK  3 active torsions:
REMARK  status: ('A' for Active; 'I' for Inactive)
REMARK    1  A    between atoms: C3_3  and  C4_4 
REMARK    2  A    between atoms: C5_5  and  N1_6 
REMARK    3  A    between atoms: N1_6  and  C6_7 
ROOT
HETATM    1  C6  UNL     1      22.900   0.514  53.287  1.00  0.00     0.157 A 
HETATM    2  C7  UNL     1      21.690  -0.309  53.137  1.00  0.00     0.120 A 
HETATM    3  N2  UNL     1      21.146  -0.179  52.004  1.00  0.00    -0.262 NA
HETATM    4  C8  UNL     1      21.849   0.746  51.138  1.00  0.00     0.064 A 
HETATM    5  C9  UNL     1      21.215   0.820  49.999  1.00  0.00     0.032 A 
HETATM    6  C10 UNL     1      21.268   1.457  48.721  1.00  0.00     0.000 A 
HETATM    7  C11 UNL     1      21.830   2.273  47.865  1.00  0.00    -0.001 A 
HETATM    8  C12 UNL     1      23.049   2.862  48.521  1.00  0.00     0.195 A 
HETATM    9  O1  UNL     1      23.050   2.273  49.777  1.00  0.00    -0.384 OA
HETATM   10  C13 UNL     1      24.076   2.658  50.596  1.00  0.00     0.196 A 
HETATM   11  C14 UNL     1      23.986   1.973  51.910  1.00  0.00     0.011 A 
HETATM   12  C15 UNL     1      22.949   1.170  51.967  1.00  0.00    -0.004 A 
ENDROOT
BRANCH   1  13
HETATM   13  N1  UNL     1      24.080  -0.275  53.558  1.00  0.00    -0.386 N 
HETATM   14  H3  UNL     1      23.885  -1.320  53.636  1.00  0.00     0.160 HD
BRANCH  13  15
HETATM   15  C5  UNL     1      25.470  -0.092  53.758  1.00  0.00     0.081 C 
HETATM   16  C4  UNL     1      26.312  -1.038  53.291  1.00  0.00     0.006 C 
BRANCH  16  17
HETATM   17  C3  UNL     1      27.362  -0.205  53.830  1.00  0.00     0.030 A 
HETATM   18  C2  UNL     1      28.354  -0.361  53.782  1.00  0.00    -0.053 A 
HETATM   19  C1  UNL     1      29.131  -0.500  53.733  1.00  0.00    -0.066 A 
HETATM   20  C16 UNL     1      28.386  -1.569  53.052  1.00  0.00     0.055 A 
HETATM   21  C17 UNL     1      30.198  -0.717  53.651  1.00  0.00     0.049 A 
ENDBRANCH  16  17
ENDBRANCH  13  15
ENDBRANCH   1  13
TORSDOF 3
ENDMDL
MODEL 5
REMARK VINA RESULT:      -7.3      2.367      3.639
REMARK  3 active torsions:
REMARK  status: ('A' for Active; 'I' for Inactive)
REMARK    1  A    between atoms: C3_3  and  C4_4 
REMARK    2  A    between atoms: C5_5  and  N1_6 
REMARK    3  A    between atoms: N1_6  and  C6_7 
ROOT
HETATM    1  C6  UNL     1      24.582   2.867  50.152  1.00  0.00     0.157 A 
HETATM    2  C7  UNL     1      23.126   2.836  50.360  1.00  0.00     0.120 A 
HETATM    3  N2  UNL     1      22.784   2.076  51.310  1.00  0.00    -0.262 NA
HETATM    4  C8  UNL     1      23.907   1.429  51.955  1.00  0.00     0.064 A 
HETATM    5  C9  UNL     1      23.460   0.665  52.915  1.00  0.00     0.032 A 
HETATM    6  C10 UNL     1      23.897  -0.230  53.938  1.00  0.00     0.000 A 
HETATM    7  C11 UNL     1      24.845  -0.862  54.586  1.00  0.00    -0.001 A 
HETATM    8  C12 UNL     1      26.162  -0.475  53.971  1.00  0.00     0.195 A 
HETATM    9  O1  UNL     1      25.796   0.403  52.962  1.00  0.00    -0.384 OA
HETATM   10  C13 UNL     1      26.833   0.905  52.226  1.00  0.00     0.196 A 
HETATM   11  C14 UNL     1      26.337   1.830  51.176  1.00  0.00     0.011 A 
HETATM   12  C15 UNL     1      25.029   1.941  51.209  1.00  0.00    -0.004 A 
ENDROOT
BRANCH   1  13
HETATM   13  N1  UNL     1      25.137   4.193  50.304  1.00  0.00    -0.386 N 
HETATM   14  H3  UNL     1      24.938   4.631  51.255  1.00  0.00     0.160 HD
BRANCH  13  15
HETATM   15  C5  UNL     1      25.896   5.130  49.561  1.00  0.00     0.081 C 
HETATM   16  C4  UNL     1      27.055   4.715  49.006  1.00  0.00     0.006 C 
BRANCH  16  17
HETATM   17  C3  UNL     1      27.170   6.069  48.514  1.00  0.00     0.030 A 
HETATM   18  C2  UNL     1      27.975   6.504  48.100  1.00  0.00    -0.053 A 
HETATM   19  C1  UNL     1      28.619   6.830  47.776  1.00  0.00    -0.066 A 
HETATM   20  C16 UNL     1      28.891   5.432  48.138  1.00  0.00     0.055 A 
HETATM   21  C17 UNL     1      29.521   7.255  47.332  1.00  0.00     0.049 A 
ENDBRANCH  16  17
ENDBRANCH  13  15
ENDBRANCH   1  13
TORSDOF 3
ENDMDL
MODEL 6
REMARK VINA RESULT:      -7.2      3.680      7.289
REMARK  3 active torsions:
REMARK  status: ('A' for Active; 'I' for Inactive)
REMARK    1  A    between atoms: C3_3  and  C4_4 
REMARK    2  A    between atoms: C5_5  and  N1_6 
REMARK    3  A    between atoms: N1_6  and  C6_7 
ROOT
HETATM    1  C6  UNL     1      23.268  -0.056  53.754  1.00  0.00     0.157 A 
HETATM    2  C7  UNL     1      22.095  -0.931  53.903  1.00  0.00     0.120 A 
HETATM    3  N2  UNL     1      21.031  -0.400  53.477  1.00  0.00    -0.262 NA
HETATM    4  C8  UNL     1      21.231   0.935  52.951  1.00  0.00     0.064 A 
HETATM    5  C9  UNL     1      20.083   1.403  52.542  1.00  0.00     0.032 A 
HETATM    6  C10 UNL     1      19.486   2.553  51.942  1.00  0.00     0.000 A 
HETATM    7  C11 UNL     1      19.563   3.763  51.445  1.00  0.00    -0.001 A 
HETATM    8  C12 UNL     1      20.999   4.204  51.527  1.00  0.00     0.195 A 
HETATM    9  O1  UNL     1      21.634   3.116  52.107  1.00  0.00    -0.384 OA
HETATM   10  C13 UNL     1      22.978   3.267  52.306  1.00  0.00     0.196 A 
HETATM   11  C14 UNL     1      23.560   2.051  52.928  1.00  0.00     0.011 A 
HETATM   12  C15 UNL     1      22.647   1.130  53.136  1.00  0.00    -0.004 A 
ENDROOT
BRANCH   1  13
HETATM   13  N1  UNL     1      24.297  -0.639  52.923  1.00  0.00    -0.386 N 
HETATM   14  H3  UNL     1      23.974  -0.848  51.929  1.00  0.00     0.160 HD
BRANCH  13  15
HETATM   15  C5  UNL     1      25.654  -1.034  53.015  1.00  0.00     0.081 C 
HETATM   16  C4  UNL     1      26.604  -0.135  52.677  1.00  0.00     0.006 C 
BRANCH  16  17
HETATM   17  C3  UNL     1      27.545  -1.181  53.004  1.00  0.00     0.030 A 
HETATM   18  C2  UNL     1      28.503  -1.077  53.290  1.00  0.00    -0.053 A 
HETATM   19  C1  UNL     1      29.254  -0.975  53.514  1.00  0.00    -0.066 A 
HETATM   20  C16 UNL     1      28.617   0.330  53.284  1.00  0.00     0.055 A 
HETATM   21  C17 UNL     1      30.288  -0.805  53.822  1.00  0.00     0.049 A 
ENDBRANCH  16  17
ENDBRANCH  13  15
ENDBRANCH   1  13
TORSDOF 3
ENDMDL
MODEL 7
REMARK VINA RESULT:      -7.1      4.059      7.791
REMARK  3 active torsions:
REMARK  status: ('A' for Active; 'I' for Inactive)
REMARK    1  A    between atoms: C3_3  and  C4_4 
REMARK    2  A    between atoms: C5_5  and  N1_6 
REMARK    3  A    between atoms: N1_6  and  C6_7 
ROOT
HETATM    1  C6  UNL     1      24.973   3.172  49.991  1.00  0.00     0.157 A 
HETATM    2  C7  UNL     1      26.413   2.944  50.186  1.00  0.00     0.120 A 
HETATM    3  N2  UNL     1      27.125   3.870  49.706  1.00  0.00    -0.262 NA
HETATM    4  C8  UNL     1      26.347   4.922  49.084  1.00  0.00     0.064 A 
HETATM    5  C9  UNL     1      27.163   5.828  48.615  1.00  0.00     0.032 A 
HETATM    6  C10 UNL     1      27.180   7.077  47.922  1.00  0.00     0.000 A 
HETATM    7  C11 UNL     1      26.567   8.076  47.337  1.00  0.00    -0.001 A 
HETATM    8  C12 UNL     1      25.087   7.819  47.412  1.00  0.00     0.195 A 
HETATM    9  O1  UNL     1      25.009   6.607  48.082  1.00  0.00    -0.384 OA
HETATM   10  C13 UNL     1      23.741   6.132  48.275  1.00  0.00     0.196 A 
HETATM   11  C14 UNL     1      23.767   4.836  48.998  1.00  0.00     0.011 A 
HETATM   12  C15 UNL     1      24.995   4.461  49.275  1.00  0.00    -0.004 A 
ENDROOT
BRANCH   1  13
HETATM   13  N1  UNL     1      24.245   3.242  51.238  1.00  0.00    -0.386 N 
HETATM   14  H3  UNL     1      24.378   4.164  51.756  1.00  0.00     0.160 HD
BRANCH  13  15
HETATM   15  C5  UNL     1      23.374   2.443  52.018  1.00  0.00     0.081 C 
HETATM   16  C4  UNL     1      23.861   1.303  52.551  1.00  0.00     0.006 C 
BRANCH  16  17
HETATM   17  C3  UNL     1      22.535   1.130  53.100  1.00  0.00     0.030 A 
HETATM   18  C2  UNL     1      22.190   0.352  53.633  1.00  0.00    -0.053 A 
HETATM   19  C1  UNL     1      21.935  -0.269  54.052  1.00  0.00    -0.066 A 
HETATM   20  C16 UNL     1      23.345  -0.456  53.682  1.00  0.00     0.055 A 
HETATM   21  C17 UNL     1      21.610  -1.138  54.628  1.00  0.00     0.049 A 
ENDBRANCH  16  17
ENDBRANCH  13  15
ENDBRANCH   1  13
TORSDOF 3
ENDMDL
MODEL 8
REMARK VINA RESULT:      -7.0      2.925      7.224
REMARK  3 active torsions:
REMARK  status: ('A' for Active; 'I' for Inactive)
REMARK    1  A    between atoms: C3_3  and  C4_4 
REMARK    2  A    between atoms: C5_5  and  N1_6 
REMARK    3  A    between atoms: N1_6  and  C6_7 
ROOT
HETATM    1  C6  UNL     1      23.340   2.122  52.655  1.00  0.00     0.157 A 
HETATM    2  C7  UNL     1      22.912   1.038  51.759  1.00  0.00     0.120 A 
HETATM    3  N2  UNL     1      22.735   1.426  50.570  1.00  0.00    -0.262 NA
HETATM    4  C8  UNL     1      22.998   2.839  50.387  1.00  0.00     0.064 A 
HETATM    5  C9  UNL     1      22.785   3.149  49.137  1.00  0.00     0.032 A 
HETATM    6  C10 UNL     1      22.823   4.250  48.228  1.00  0.00     0.000 A 
HETATM    7  C11 UNL     1      23.036   5.515  47.961  1.00  0.00    -0.001 A 
HETATM    8  C12 UNL     1      23.462   6.190  49.236  1.00  0.00     0.195 A 
HETATM    9  O1  UNL     1      23.445   5.159  50.163  1.00  0.00    -0.384 OA
HETATM   10  C13 UNL     1      23.791   5.518  51.436  1.00  0.00     0.196 A 
HETATM   11  C14 UNL     1      23.741   4.347  52.348  1.00  0.00     0.011 A 
HETATM   12  C15 UNL     1      23.377   3.256  51.713  1.00  0.00    -0.004 A 
ENDROOT
BRANCH   1  13
HETATM   13  N1  UNL     1      24.626   1.866  53.265  1.00  0.00    -0.386 N 
HETATM   14  H3  UNL     1      24.818   2.469  54.122  1.00  0.00     0.160 HD
BRANCH  13  15
HETATM   15  C5  UNL     1      25.754   1.031  53.078  1.00  0.00     0.081 C 
HETATM   16  C4  UNL     1      26.523   0.748  54.150  1.00  0.00     0.006 C 
BRANCH  16  17
HETATM   17  C3  UNL     1      27.320  -0.028  53.229  1.00  0.00     0.030 A 
HETATM   18  C2  UNL     1      28.253  -0.376  53.367  1.00  0.00    -0.053 A 
HETATM   19  C1  UNL     1      28.987  -0.643  53.495  1.00  0.00    -0.066 A 
HETATM   20  C16 UNL     1      28.509   0.096  54.672  1.00  0.00     0.055 A 
HETATM   21  C17 UNL     1      30.000  -0.997  53.697  1.00  0.00     0.049 A 
ENDBRANCH  16  17
ENDBRANCH  13  15
ENDBRANCH   1  13
TORSDOF 3
ENDMDL
MODEL 9
REMARK VINA RESULT:      -7.0      2.616      4.031
REMARK  3 active torsions:
REMARK  status: ('A' for Active; 'I' for Inactive)
REMARK    1  A    between atoms: C3_3  and  C4_4 
REMARK    2  A    between atoms: C5_5  and  N1_6 
REMARK    3  A    between atoms: N1_6  and  C6_7 
ROOT
HETATM    1  C6  UNL     1      23.979   2.014  50.881  1.00  0.00     0.157 A 
HETATM    2  C7  UNL     1      22.574   2.443  50.951  1.00  0.00     0.120 A 
HETATM    3  N2  UNL     1      21.940   1.892  51.895  1.00  0.00    -0.262 NA
HETATM    4  C8  UNL     1      22.753   0.978  52.670  1.00  0.00     0.064 A 
HETATM    5  C9  UNL     1      22.017   0.455  53.613  1.00  0.00     0.032 A 
HETATM    6  C10 UNL     1      22.074  -0.459  54.709  1.00  0.00     0.000 A 
HETATM    7  C11 UNL     1      22.725  -1.305  55.469  1.00  0.00    -0.001 A 
HETATM    8  C12 UNL     1      24.141  -1.382  54.967  1.00  0.00     0.195 A 
HETATM    9  O1  UNL     1      24.145  -0.505  53.892  1.00  0.00    -0.384 OA
HETATM   10  C13 UNL     1      25.341  -0.396  53.238  1.00  0.00     0.196 A 
HETATM   11  C14 UNL     1      25.240   0.563  52.110  1.00  0.00     0.011 A 
HETATM   12  C15 UNL     1      24.033   1.070  52.013  1.00  0.00    -0.004 A 
ENDROOT
BRANCH   1  13
HETATM   13  N1  UNL     1      24.905   3.114  51.031  1.00  0.00    -0.386 N 
HETATM   14  H3  UNL     1      24.849   3.591  51.983  1.00  0.00     0.160 HD
BRANCH  13  15
HETATM   15  C5  UNL     1      25.907   3.782  50.285  1.00  0.00     0.081 C 
HETATM   16  C4  UNL     1      25.517   4.684  49.360  1.00  0.00     0.006 C 
BRANCH  16  17
HETATM   17  C3  UNL     1      26.929   4.861  49.107  1.00  0.00     0.030 A 
HETATM   18  C2  UNL     1      27.381   5.653  48.686  1.00  0.00    -0.053 A 
HETATM   19  C1  UNL     1      27.720   6.286  48.353  1.00  0.00    -0.066 A 
HETATM   20  C16 UNL     1      26.267   6.487  48.451  1.00  0.00     0.055 A 
HETATM   21  C17 UNL     1      28.161   7.171  47.890  1.00  0.00     0.049 A 
ENDBRANCH  16  17
ENDBRANCH  13  15
ENDBRANCH   1  13
TORSDOF 3
ENDMDL
