MODEL 1
REMARK VINA RESULT:      -8.2      0.000      0.000
REMARK  9 active torsions:
REMARK  status: ('A' for Active; 'I' for Inactive)
REMARK    1  A    between atoms: N1_2  and  C2_3 
REMARK    2  A    between atoms: C3_4  and  C4_5 
REMARK    3  A    between atoms: C4_5  and  C5_6 
REMARK    4  A    between atoms: N4_14  and  C11_15 
REMARK    5  A    between atoms: C12_16  and  C13_17 
REMARK    6  A    between atoms: C13_17  and  N5_18 
REMARK    7  A    between atoms: N5_18  and  C14_19 
REMARK    8  A    between atoms: C14_19  and  C16_21 
REMARK    9  A    between atoms: C21_26  and  C22_27 
ROOT
HETATM    1  C11 UNL     1      26.003   5.217  49.437  1.00  0.00     0.091 C 
HETATM    2  C12 UNL     1      25.798   4.017  49.881  1.00  0.00     0.006 C 
ENDROOT
BRANCH   1   3
HETATM    3  N4  UNL     1      26.977   6.218  49.025  1.00  0.00    -0.072 NA
HETATM    4  C9  UNL     1      26.696   7.074  48.099  1.00  0.00     0.288 A 
HETATM    5  C8  UNL     1      26.524   7.920  49.635  1.00  0.00     0.194 C 
HETATM    6  C10 UNL     1      26.423   7.955  47.144  1.00  0.00     0.308 A 
HETATM    7  N3  UNL     1      27.231   7.119  47.965  1.00  0.00     0.050 N 
HETATM    8  N2  UNL     1      27.316   9.072  50.091  1.00  0.00    -0.290 NA
HETATM    9  C7  UNL     1      28.650   9.115  49.425  1.00  0.00     0.109 C 
HETATM   10  C6  UNL     1      29.281   8.424  48.409  1.00  0.00     0.027 C 
HETATM   11  C5  UNL     1      28.679   7.158  47.804  1.00  0.00     0.241 C 
BRANCH  11  12
HETATM   12  C4  UNL     1      29.439   5.970  48.252  1.00  0.00     0.068 C 
BRANCH  12  13
HETATM   13  C3  UNL     1      30.820   6.274  48.705  1.00  0.00    -0.005 C 
HETATM   14  C2  UNL     1      31.770   5.349  48.508  1.00  0.00     0.111 C 
BRANCH  14  15
HETATM   15  N1  UNL     1      32.070   4.057  47.998  1.00  0.00    -0.284 NA
HETATM   16  C1  UNL     1      31.966   3.696  46.778  1.00  0.00     0.148 C 
ENDBRANCH  14  15
ENDBRANCH  12  13
ENDBRANCH  11  12
ENDBRANCH   1   3
BRANCH   2  17
HETATM   17  C13 UNL     1      26.464   2.785  50.295  1.00  0.00     0.148 C 
BRANCH  17  18
HETATM   18  N5  UNL     1      27.021   2.961  51.619  1.00  0.00    -0.389 N 
HETATM   19  H16 UNL     1      27.749   3.589  52.045  1.00  0.00     0.159 HD
BRANCH  18  20
HETATM   20  C14 UNL     1      26.456   2.083  52.567  1.00  0.00     0.017 C 
HETATM   21  C15 UNL     1      25.443   2.345  53.371  1.00  0.00     0.063 C 
BRANCH  20  22
HETATM   22  C16 UNL     1      27.000   0.739  52.716  1.00  0.00    -0.002 A 
HETATM   23  C17 UNL     1      26.290  -0.336  52.290  1.00  0.00     0.014 A 
HETATM   24  C18 UNL     1      26.790  -1.607  52.432  1.00  0.00     0.001 A 
HETATM   25  C19 UNL     1      28.012  -1.891  52.997  1.00  0.00     0.001 A 
HETATM   26  C20 UNL     1      28.738  -0.821  53.431  1.00  0.00     0.014 A 
HETATM   27  C21 UNL     1      28.220   0.440  53.280  1.00  0.00    -0.000 A 
BRANCH  27  28
HETATM   28  C22 UNL     1      29.047   1.525  53.761  1.00  0.00     0.390 C 
HETATM   29  O1  UNL     1      29.094   2.409  54.651  1.00  0.00    -0.405 OA
ENDBRANCH  27  28
ENDBRANCH  20  22
ENDBRANCH  18  20
ENDBRANCH  17  18
ENDBRANCH   2  17
TORSDOF 9
ENDMDL
MODEL 2
REMARK VINA RESULT:      -8.1      3.252      8.355
REMARK  9 active torsions:
REMARK  status: ('A' for Active; 'I' for Inactive)
REMARK    1  A    between atoms: N1_2  and  C2_3 
REMARK    2  A    between atoms: C3_4  and  C4_5 
REMARK    3  A    between atoms: C4_5  and  C5_6 
REMARK    4  A    between atoms: N4_14  and  C11_15 
REMARK    5  A    between atoms: C12_16  and  C13_17 
REMARK    6  A    between atoms: C13_17  and  N5_18 
REMARK    7  A    between atoms: N5_18  and  C14_19 
REMARK    8  A    between atoms: C14_19  and  C16_21 
REMARK    9  A    between atoms: C21_26  and  C22_27 
ROOT
HETATM    1  C11 UNL     1      24.104   3.439  53.381  1.00  0.00     0.091 C 
HETATM    2  C12 UNL     1      23.674   4.439  52.678  1.00  0.00     0.006 C 
ENDROOT
BRANCH   1   3
HETATM    3  N4  UNL     1      24.769   2.145  53.386  1.00  0.00    -0.072 NA
HETATM    4  C9  UNL     1      25.486   1.763  52.381  1.00  0.00     0.288 A 
HETATM    5  C8  UNL     1      26.611   2.310  53.622  1.00  0.00     0.194 C 
HETATM    6  C10 UNL     1      26.219   1.356  51.352  1.00  0.00     0.308 A 
HETATM    7  N3  UNL     1      25.384   1.231  52.499  1.00  0.00     0.050 N 
HETATM    8  N2  UNL     1      27.618   1.489  54.311  1.00  0.00    -0.290 NA
HETATM    9  C7  UNL     1      27.238   0.046  54.311  1.00  0.00     0.109 C 
HETATM   10  C6  UNL     1      26.251  -0.726  53.729  1.00  0.00     0.027 C 
HETATM   11  C5  UNL     1      25.066  -0.099  52.999  1.00  0.00     0.241 C 
BRANCH  11  12
HETATM   12  C4  UNL     1      23.838  -0.237  53.813  1.00  0.00     0.068 C 
BRANCH  12  13
HETATM   13  C3  UNL     1      22.696  -0.845  53.085  1.00  0.00    -0.005 C 
HETATM   14  C2  UNL     1      22.012  -0.080  52.224  1.00  0.00     0.111 C 
BRANCH  14  15
HETATM   15  N1  UNL     1      21.885   1.207  51.634  1.00  0.00    -0.284 NA
HETATM   16  C1  UNL     1      22.225   1.517  50.444  1.00  0.00     0.148 C 
ENDBRANCH  14  15
ENDBRANCH  12  13
ENDBRANCH  11  12
ENDBRANCH   1   3
BRANCH   2  17
HETATM   17  C13 UNL     1      23.566   4.963  51.319  1.00  0.00     0.148 C 
BRANCH  17  18
HETATM   18  N5  UNL     1      24.854   5.464  50.892  1.00  0.00    -0.389 N 
HETATM   19  H16 UNL     1      25.554   6.147  51.280  1.00  0.00     0.159 HD
BRANCH  18  20
HETATM   20  C14 UNL     1      25.276   4.910  49.667  1.00  0.00     0.017 C 
HETATM   21  C15 UNL     1      24.711   3.904  49.027  1.00  0.00     0.063 C 
BRANCH  20  22
HETATM   22  C16 UNL     1      26.440   5.466  48.989  1.00  0.00    -0.002 A 
HETATM   23  C17 UNL     1      27.596   4.758  48.923  1.00  0.00     0.014 A 
HETATM   24  C18 UNL     1      28.700   5.276  48.292  1.00  0.00     0.001 A 
HETATM   25  C19 UNL     1      28.730   6.514  47.692  1.00  0.00     0.001 A 
HETATM   26  C20 UNL     1      27.575   7.239  47.750  1.00  0.00     0.014 A 
HETATM   27  C21 UNL     1      26.485   6.703  48.385  1.00  0.00    -0.000 A 
BRANCH  27  28
HETATM   28  C22 UNL     1      25.297   7.528  48.404  1.00  0.00     0.390 C 
HETATM   29  O1  UNL     1      24.331   7.882  47.683  1.00  0.00    -0.405 OA
ENDBRANCH  27  28
ENDBRANCH  20  22
ENDBRANCH  18  20
ENDBRANCH  17  18
ENDBRANCH   2  17
TORSDOF 9
ENDMDL
MODEL 3
REMARK VINA RESULT:      -8.1      4.199      6.947
REMARK  9 active torsions:
REMARK  status: ('A' for Active; 'I' for Inactive)
REMARK    1  A    between atoms: N1_2  and  C2_3 
REMARK    2  A    between atoms: C3_4  and  C4_5 
REMARK    3  A    between atoms: C4_5  and  C5_6 
REMARK    4  A    between atoms: N4_14  and  C11_15 
REMARK    5  A    between atoms: C12_16  and  C13_17 
REMARK    6  A    between atoms: C13_17  and  N5_18 
REMARK    7  A    between atoms: N5_18  and  C14_19 
REMARK    8  A    between atoms: C14_19  and  C16_21 
REMARK    9  A    between atoms: C21_26  and  C22_27 
ROOT
HETATM    1  C11 UNL     1      24.306   3.474  49.920  1.00  0.00     0.091 C 
HETATM    2  C12 UNL     1      25.563   3.163  49.876  1.00  0.00     0.006 C 
ENDROOT
BRANCH   1   3
HETATM    3  N4  UNL     1      23.051   3.394  50.656  1.00  0.00    -0.072 NA
HETATM    4  C9  UNL     1      22.856   4.110  51.713  1.00  0.00     0.288 A 
HETATM    5  C8  UNL     1      21.997   4.909  50.399  1.00  0.00     0.194 C 
HETATM    6  C10 UNL     1      22.645   4.834  52.805  1.00  0.00     0.308 A 
HETATM    7  N3  UNL     1      22.502   3.734  51.913  1.00  0.00     0.050 N 
HETATM    8  N2  UNL     1      20.545   5.124  50.308  1.00  0.00    -0.290 NA
HETATM    9  C7  UNL     1      19.793   4.118  51.113  1.00  0.00     0.109 C 
HETATM   10  C6  UNL     1      20.112   3.119  52.012  1.00  0.00     0.027 C 
HETATM   11  C5  UNL     1      21.556   2.677  52.243  1.00  0.00     0.241 C 
BRANCH  11  12
HETATM   12  C4  UNL     1      21.784   1.351  51.627  1.00  0.00     0.068 C 
BRANCH  12  13
HETATM   13  C3  UNL     1      20.793   0.320  52.028  1.00  0.00    -0.005 C 
HETATM   14  C2  UNL     1      20.887  -0.207  53.256  1.00  0.00     0.111 C 
BRANCH  14  15
HETATM   15  N1  UNL     1      21.602  -0.213  54.485  1.00  0.00    -0.284 NA
HETATM   16  C1  UNL     1      22.425  -1.111  54.863  1.00  0.00     0.148 C 
ENDBRANCH  14  15
ENDBRANCH  12  13
ENDBRANCH  11  12
ENDBRANCH   1   3
BRANCH   2  17
HETATM   17  C13 UNL     1      26.630   2.471  50.593  1.00  0.00     0.148 C 
BRANCH  17  18
HETATM   18  N5  UNL     1      26.562   2.805  51.999  1.00  0.00    -0.389 N 
HETATM   19  H16 UNL     1      26.751   3.668  52.570  1.00  0.00     0.159 HD
BRANCH  18  20
HETATM   20  C14 UNL     1      26.142   1.722  52.796  1.00  0.00     0.017 C 
HETATM   21  C15 UNL     1      25.018   1.643  53.482  1.00  0.00     0.063 C 
BRANCH  20  22
HETATM   22  C16 UNL     1      26.989   0.541  52.907  1.00  0.00    -0.002 A 
HETATM   23  C17 UNL     1      26.516  -0.677  52.538  1.00  0.00     0.014 A 
HETATM   24  C18 UNL     1      27.305  -1.796  52.645  1.00  0.00     0.001 A 
HETATM   25  C19 UNL     1      28.596  -1.782  53.119  1.00  0.00     0.001 A 
HETATM   26  C20 UNL     1      29.086  -0.566  53.496  1.00  0.00     0.014 A 
HETATM   27  C21 UNL     1      28.282   0.540  53.381  1.00  0.00    -0.000 A 
BRANCH  27  28
HETATM   28  C22 UNL     1      28.870   1.794  53.797  1.00  0.00     0.390 C 
HETATM   29  O1  UNL     1      29.352   2.372  54.803  1.00  0.00    -0.405 OA
ENDBRANCH  27  28
ENDBRANCH  20  22
ENDBRANCH  18  20
ENDBRANCH  17  18
ENDBRANCH   2  17
TORSDOF 9
ENDMDL
MODEL 4
REMARK VINA RESULT:      -8.0      2.945      8.837
REMARK  9 active torsions:
REMARK  status: ('A' for Active; 'I' for Inactive)
REMARK    1  A    between atoms: N1_2  and  C2_3 
REMARK    2  A    between atoms: C3_4  and  C4_5 
REMARK    3  A    between atoms: C4_5  and  C5_6 
REMARK    4  A    between atoms: N4_14  and  C11_15 
REMARK    5  A    between atoms: C12_16  and  C13_17 
REMARK    6  A    between atoms: C13_17  and  N5_18 
REMARK    7  A    between atoms: N5_18  and  C14_19 
REMARK    8  A    between atoms: C14_19  and  C16_21 
REMARK    9  A    between atoms: C21_26  and  C22_27 
ROOT
HETATM    1  C11 UNL     1      26.570   2.535  50.949  1.00  0.00     0.091 C 
HETATM    2  C12 UNL     1      26.252   3.586  50.263  1.00  0.00     0.006 C 
ENDROOT
BRANCH   1   3
HETATM    3  N4  UNL     1      26.200   1.610  52.012  1.00  0.00    -0.072 NA
HETATM    4  C9  UNL     1      26.546   0.367  51.960  1.00  0.00     0.288 A 
HETATM    5  C8  UNL     1      27.660   1.153  53.075  1.00  0.00     0.194 C 
HETATM    6  C10 UNL     1      26.890  -0.914  51.915  1.00  0.00     0.308 A 
HETATM    7  N3  UNL     1      26.109   0.222  52.266  1.00  0.00     0.050 N 
HETATM    8  N2  UNL     1      27.812   0.860  54.508  1.00  0.00    -0.290 NA
HETATM    9  C7  UNL     1      26.569   0.265  55.079  1.00  0.00     0.109 C 
HETATM   10  C6  UNL     1      25.362  -0.189  54.584  1.00  0.00     0.027 C 
HETATM   11  C5  UNL     1      24.951   0.043  53.131  1.00  0.00     0.241 C 
BRANCH  11  12
HETATM   12  C4  UNL     1      23.892   1.073  53.062  1.00  0.00     0.068 C 
BRANCH  12  13
HETATM   13  C3  UNL     1      22.734   0.694  52.212  1.00  0.00    -0.005 C 
HETATM   14  C2  UNL     1      21.967  -0.332  52.606  1.00  0.00     0.111 C 
BRANCH  14  15
HETATM   15  N1  UNL     1      21.750  -1.332  53.593  1.00  0.00    -0.284 NA
HETATM   16  C1  UNL     1      21.620  -1.125  54.845  1.00  0.00     0.148 C 
ENDBRANCH  14  15
ENDBRANCH  12  13
ENDBRANCH  11  12
ENDBRANCH   1   3
BRANCH   2  17
HETATM   17  C13 UNL     1      25.231   4.617  50.093  1.00  0.00     0.148 C 
BRANCH  17  18
HETATM   18  N5  UNL     1      25.836   5.923  50.246  1.00  0.00    -0.389 N 
HETATM   19  H16 UNL     1      26.085   6.539  51.062  1.00  0.00     0.159 HD
BRANCH  18  20
HETATM   20  C14 UNL     1      26.174   6.514  49.012  1.00  0.00     0.017 C 
HETATM   21  C15 UNL     1      25.333   6.890  48.067  1.00  0.00     0.063 C 
BRANCH  20  22
HETATM   22  C16 UNL     1      27.574   6.766  48.695  1.00  0.00    -0.002 A 
HETATM   23  C17 UNL     1      28.347   5.777  48.178  1.00  0.00     0.014 A 
HETATM   24  C18 UNL     1      29.669   6.003  47.882  1.00  0.00     0.001 A 
HETATM   25  C19 UNL     1      30.302   7.209  48.076  1.00  0.00     0.001 A 
HETATM   26  C20 UNL     1      29.539   8.213  48.596  1.00  0.00     0.014 A 
HETATM   27  C21 UNL     1      28.222   7.966  48.885  1.00  0.00    -0.000 A 
BRANCH  27  28
HETATM   28  C22 UNL     1      27.476   9.079  49.431  1.00  0.00     0.390 C 
HETATM   29  O1  UNL     1      27.167   9.618  50.522  1.00  0.00    -0.405 OA
ENDBRANCH  27  28
ENDBRANCH  20  22
ENDBRANCH  18  20
ENDBRANCH  17  18
ENDBRANCH   2  17
TORSDOF 9
ENDMDL
MODEL 5
REMARK VINA RESULT:      -7.9      2.353      4.013
REMARK  9 active torsions:
REMARK  status: ('A' for Active; 'I' for Inactive)
REMARK    1  A    between atoms: N1_2  and  C2_3 
REMARK    2  A    between atoms: C3_4  and  C4_5 
REMARK    3  A    between atoms: C4_5  and  C5_6 
REMARK    4  A    between atoms: N4_14  and  C11_15 
REMARK    5  A    between atoms: C12_16  and  C13_17 
REMARK    6  A    between atoms: C13_17  and  N5_18 
REMARK    7  A    between atoms: N5_18  and  C14_19 
REMARK    8  A    between atoms: C14_19  and  C16_21 
REMARK    9  A    between atoms: C21_26  and  C22_27 
ROOT
HETATM    1  C11 UNL     1      23.312   3.377  52.249  1.00  0.00     0.091 C 
HETATM    2  C12 UNL     1      23.455   2.267  52.903  1.00  0.00     0.006 C 
ENDROOT
BRANCH   1   3
HETATM    3  N4  UNL     1      23.547   4.104  51.010  1.00  0.00    -0.072 NA
HETATM    4  C9  UNL     1      22.978   3.740  49.909  1.00  0.00     0.288 A 
HETATM    5  C8  UNL     1      22.068   5.123  50.511  1.00  0.00     0.194 C 
HETATM    6  C10 UNL     1      22.405   3.372  48.769  1.00  0.00     0.308 A 
HETATM    7  N3  UNL     1      23.393   3.954  49.612  1.00  0.00     0.050 N 
HETATM    8  N2  UNL     1      21.919   6.426  49.846  1.00  0.00    -0.290 NA
HETATM    9  C7  UNL     1      23.054   6.698  48.917  1.00  0.00     0.109 C 
HETATM   10  C6  UNL     1      24.138   5.992  48.433  1.00  0.00     0.027 C 
HETATM   11  C5  UNL     1      24.530   4.631  49.003  1.00  0.00     0.241 C 
BRANCH  11  12
HETATM   12  C4  UNL     1      25.756   4.758  49.822  1.00  0.00     0.068 C 
BRANCH  12  13
HETATM   13  C3  UNL     1      26.981   4.241  49.159  1.00  0.00    -0.005 C 
HETATM   14  C2  UNL     1      27.802   5.120  48.569  1.00  0.00     0.111 C 
BRANCH  14  15
HETATM   15  N1  UNL     1      28.044   6.487  48.264  1.00  0.00    -0.284 NA
HETATM   16  C1  UNL     1      28.935   6.925  47.462  1.00  0.00     0.148 C 
ENDBRANCH  14  15
ENDBRANCH  12  13
ENDBRANCH  11  12
ENDBRANCH   1   3
BRANCH   2  17
HETATM   17  C13 UNL     1      23.989   0.911  52.819  1.00  0.00     0.148 C 
BRANCH  17  18
HETATM   18  N5  UNL     1      25.271   0.856  53.488  1.00  0.00    -0.389 N 
HETATM   19  H16 UNL     1      25.592   0.893  54.489  1.00  0.00     0.159 HD
BRANCH  18  20
HETATM   20  C14 UNL     1      26.349   0.723  52.589  1.00  0.00     0.017 C 
HETATM   21  C15 UNL     1      26.517   1.390  51.463  1.00  0.00     0.063 C 
BRANCH  20  22
HETATM   22  C16 UNL     1      27.416  -0.226  52.882  1.00  0.00    -0.002 A 
HETATM   23  C17 UNL     1      27.254  -1.544  52.605  1.00  0.00     0.014 A 
HETATM   24  C18 UNL     1      28.252  -2.446  52.884  1.00  0.00     0.001 A 
HETATM   25  C19 UNL     1      29.459  -2.104  53.448  1.00  0.00     0.001 A 
HETATM   26  C20 UNL     1      29.637  -0.782  53.733  1.00  0.00     0.014 A 
HETATM   27  C21 UNL     1      28.628   0.102  53.447  1.00  0.00    -0.000 A 
BRANCH  27  28
HETATM   28  C22 UNL     1      28.890   1.487  53.775  1.00  0.00     0.390 C 
HETATM   29  O1  UNL     1      29.205   2.229  54.738  1.00  0.00    -0.405 OA
ENDBRANCH  27  28
ENDBRANCH  20  22
ENDBRANCH  18  20
ENDBRANCH  17  18
ENDBRANCH   2  17
TORSDOF 9
ENDMDL
MODEL 6
REMARK VINA RESULT:      -7.9      4.205      6.258
REMARK  9 active torsions:
REMARK  status: ('A' for Active; 'I' for Inactive)
REMARK    1  A    between atoms: N1_2  and  C2_3 
REMARK    2  A    between atoms: C3_4  and  C4_5 
REMARK    3  A    between atoms: C4_5  and  C5_6 
REMARK    4  A    between atoms: N4_14  and  C11_15 
REMARK    5  A    between atoms: C12_16  and  C13_17 
REMARK    6  A    between atoms: C13_17  and  N5_18 
REMARK    7  A    between atoms: N5_18  and  C14_19 
REMARK    8  A    between atoms: C14_19  and  C16_21 
REMARK    9  A    between atoms: C21_26  and  C22_27 
ROOT
HETATM    1  C11 UNL     1      23.040   4.175  52.188  1.00  0.00     0.091 C 
HETATM    2  C12 UNL     1      21.764   4.079  52.394  1.00  0.00     0.006 C 
ENDROOT
BRANCH   1   3
HETATM    3  N4  UNL     1      24.146   3.985  51.261  1.00  0.00    -0.072 NA
HETATM    4  C9  UNL     1      23.935   3.604  50.045  1.00  0.00     0.288 A 
HETATM    5  C8  UNL     1      24.225   5.340  49.985  1.00  0.00     0.194 C 
HETATM    6  C10 UNL     1      23.732   3.205  48.795  1.00  0.00     0.308 A 
HETATM    7  N3  UNL     1      24.436   3.370  50.022  1.00  0.00     0.050 N 
HETATM    8  N2  UNL     1      25.336   6.016  49.298  1.00  0.00    -0.290 NA
HETATM    9  C7  UNL     1      26.515   5.114  49.148  1.00  0.00     0.109 C 
HETATM   10  C6  UNL     1      26.785   3.779  49.377  1.00  0.00     0.027 C 
HETATM   11  C5  UNL     1      25.803   2.877  50.122  1.00  0.00     0.241 C 
BRANCH  11  12
HETATM   12  C4  UNL     1      26.315   2.582  51.479  1.00  0.00     0.068 C 
BRANCH  12  13
HETATM   13  C3  UNL     1      26.354   1.134  51.807  1.00  0.00    -0.005 C 
HETATM   14  C2  UNL     1      27.284   0.703  52.671  1.00  0.00     0.111 C 
BRANCH  14  15
HETATM   15  N1  UNL     1      28.376   1.067  53.506  1.00  0.00    -0.284 NA
HETATM   16  C1  UNL     1      28.657   0.540  54.634  1.00  0.00     0.148 C 
ENDBRANCH  14  15
ENDBRANCH  12  13
ENDBRANCH  11  12
ENDBRANCH   1   3
BRANCH   2  17
HETATM   17  C13 UNL     1      20.499   3.684  51.781  1.00  0.00     0.148 C 
BRANCH  17  18
HETATM   18  N5  UNL     1      20.080   2.409  52.322  1.00  0.00    -0.389 N 
HETATM   19  H16 UNL     1      19.327   2.091  52.984  1.00  0.00     0.159 HD
BRANCH  18  20
HETATM   20  C14 UNL     1      20.864   1.335  51.853  1.00  0.00     0.017 C 
HETATM   21  C15 UNL     1      21.094   1.025  50.592  1.00  0.00     0.063 C 
BRANCH  20  22
HETATM   22  C16 UNL     1      21.516   0.450  52.810  1.00  0.00    -0.002 A 
HETATM   23  C17 UNL     1      22.859   0.513  52.995  1.00  0.00     0.014 A 
HETATM   24  C18 UNL     1      23.483  -0.321  53.889  1.00  0.00     0.001 A 
HETATM   25  C19 UNL     1      22.825  -1.260  54.649  1.00  0.00     0.001 A 
HETATM   26  C20 UNL     1      21.474  -1.337  54.475  1.00  0.00     0.014 A 
HETATM   27  C21 UNL     1      20.871  -0.495  53.576  1.00  0.00    -0.000 A 
BRANCH  27  28
HETATM   28  C22 UNL     1      19.436  -0.633  53.447  1.00  0.00     0.390 C 
HETATM   29  O1  UNL     1      18.500  -0.463  52.628  1.00  0.00    -0.405 OA
ENDBRANCH  27  28
ENDBRANCH  20  22
ENDBRANCH  18  20
ENDBRANCH  17  18
ENDBRANCH   2  17
TORSDOF 9
ENDMDL
MODEL 7
REMARK VINA RESULT:      -7.6      2.719      7.926
REMARK  9 active torsions:
REMARK  status: ('A' for Active; 'I' for Inactive)
REMARK    1  A    between atoms: N1_2  and  C2_3 
REMARK    2  A    between atoms: C3_4  and  C4_5 
REMARK    3  A    between atoms: C4_5  and  C5_6 
REMARK    4  A    between atoms: N4_14  and  C11_15 
REMARK    5  A    between atoms: C12_16  and  C13_17 
REMARK    6  A    between atoms: C13_17  and  N5_18 
REMARK    7  A    between atoms: N5_18  and  C14_19 
REMARK    8  A    between atoms: C14_19  and  C16_21 
REMARK    9  A    between atoms: C21_26  and  C22_27 
ROOT
HETATM    1  C11 UNL     1      26.317   3.194  50.068  1.00  0.00     0.091 C 
HETATM    2  C12 UNL     1      26.726   4.219  49.389  1.00  0.00     0.006 C 
ENDROOT
BRANCH   1   3
HETATM    3  N4  UNL     1      25.243   2.590  50.843  1.00  0.00    -0.072 NA
HETATM    4  C9  UNL     1      24.425   3.320  51.526  1.00  0.00     0.288 A 
HETATM    5  C8  UNL     1      23.577   2.861  50.051  1.00  0.00     0.194 C 
HETATM    6  C10 UNL     1      23.583   4.059  52.237  1.00  0.00     0.308 A 
HETATM    7  N3  UNL     1      24.337   2.905  51.882  1.00  0.00     0.050 N 
HETATM    8  N2  UNL     1      22.357   2.046  49.964  1.00  0.00    -0.290 NA
HETATM    9  C7  UNL     1      22.210   1.153  51.151  1.00  0.00     0.109 C 
HETATM   10  C6  UNL     1      22.859   0.986  52.359  1.00  0.00     0.027 C 
HETATM   11  C5  UNL     1      24.179   1.689  52.667  1.00  0.00     0.241 C 
BRANCH  11  12
HETATM   12  C4  UNL     1      25.292   0.715  52.632  1.00  0.00     0.068 C 
BRANCH  12  13
HETATM   13  C3  UNL     1      25.416  -0.104  53.865  1.00  0.00    -0.005 C 
HETATM   14  C2  UNL     1      26.470   0.108  54.666  1.00  0.00     0.111 C 
BRANCH  14  15
HETATM   15  N1  UNL     1      27.658   0.860  54.877  1.00  0.00    -0.284 NA
HETATM   16  C1  UNL     1      28.842   0.472  54.603  1.00  0.00     0.148 C 
ENDBRANCH  14  15
ENDBRANCH  12  13
ENDBRANCH  11  12
ENDBRANCH   1   3
BRANCH   2  17
HETATM   17  C13 UNL     1      26.344   5.548  48.919  1.00  0.00     0.148 C 
BRANCH  17  18
HETATM   18  N5  UNL     1      27.346   6.508  49.326  1.00  0.00    -0.389 N 
HETATM   19  H16 UNL     1      27.616   6.966  50.234  1.00  0.00     0.159 HD
BRANCH  18  20
HETATM   20  C14 UNL     1      28.156   6.937  48.254  1.00  0.00     0.017 C 
HETATM   21  C15 UNL     1      27.755   7.599  47.185  1.00  0.00     0.063 C 
BRANCH  20  22
HETATM   22  C16 UNL     1      29.586   6.656  48.276  1.00  0.00    -0.002 A 
HETATM   23  C17 UNL     1      30.053   5.454  47.854  1.00  0.00     0.014 A 
HETATM   24  C18 UNL     1      31.398   5.178  47.877  1.00  0.00     0.001 A 
HETATM   25  C19 UNL     1      32.355   6.064  48.314  1.00  0.00     0.001 A 
HETATM   26  C20 UNL     1      31.901   7.278  48.742  1.00  0.00     0.014 A 
HETATM   27  C21 UNL     1      30.555   7.533  48.711  1.00  0.00    -0.000 A 
BRANCH  27  28
HETATM   28  C22 UNL     1      30.149   8.841  49.177  1.00  0.00     0.390 C 
HETATM   29  O1  UNL     1      30.610   9.893  49.684  1.00  0.00    -0.405 OA
ENDBRANCH  27  28
ENDBRANCH  20  22
ENDBRANCH  18  20
ENDBRANCH  17  18
ENDBRANCH   2  17
TORSDOF 9
ENDMDL
MODEL 8
REMARK VINA RESULT:      -7.5      4.065      5.733
REMARK  9 active torsions:
REMARK  status: ('A' for Active; 'I' for Inactive)
REMARK    1  A    between atoms: N1_2  and  C2_3 
REMARK    2  A    between atoms: C3_4  and  C4_5 
REMARK    3  A    between atoms: C4_5  and  C5_6 
REMARK    4  A    between atoms: N4_14  and  C11_15 
REMARK    5  A    between atoms: C12_16  and  C13_17 
REMARK    6  A    between atoms: C13_17  and  N5_18 
REMARK    7  A    between atoms: N5_18  and  C14_19 
REMARK    8  A    between atoms: C14_19  and  C16_21 
REMARK    9  A    between atoms: C21_26  and  C22_27 
ROOT
HETATM    1  C11 UNL     1      25.553   3.929  49.380  1.00  0.00     0.091 C 
HETATM    2  C12 UNL     1      26.336   3.138  50.042  1.00  0.00     0.006 C 
ENDROOT
BRANCH   1   3
HETATM    3  N4  UNL     1      24.389   4.803  49.408  1.00  0.00    -0.072 NA
HETATM    4  C9  UNL     1      23.448   4.627  50.275  1.00  0.00     0.288 A 
HETATM    5  C8  UNL     1      24.429   5.966  50.864  1.00  0.00     0.194 C 
HETATM    6  C10 UNL     1      22.471   4.452  51.156  1.00  0.00     0.308 A 
HETATM    7  N3  UNL     1      23.077   4.855  49.933  1.00  0.00     0.050 N 
HETATM    8  N2  UNL     1      23.984   7.355  51.058  1.00  0.00    -0.290 NA
HETATM    9  C7  UNL     1      22.821   7.683  50.183  1.00  0.00     0.109 C 
HETATM   10  C6  UNL     1      21.985   6.986  49.333  1.00  0.00     0.027 C 
HETATM   11  C5  UNL     1      22.267   5.539  48.935  1.00  0.00     0.241 C 
BRANCH  11  12
HETATM   12  C4  UNL     1      22.733   5.481  47.532  1.00  0.00     0.068 C 
BRANCH  12  13
HETATM   13  C3  UNL     1      21.900   4.620  46.654  1.00  0.00    -0.005 C 
HETATM   14  C2  UNL     1      21.936   3.294  46.846  1.00  0.00     0.111 C 
BRANCH  14  15
HETATM   15  N1  UNL     1      22.486   2.227  47.609  1.00  0.00    -0.284 NA
HETATM   16  C1  UNL     1      21.879   1.577  48.524  1.00  0.00     0.148 C 
ENDBRANCH  14  15
ENDBRANCH  12  13
ENDBRANCH  11  12
ENDBRANCH   1   3
BRANCH   2  17
HETATM   17  C13 UNL     1      26.582   2.556  51.360  1.00  0.00     0.148 C 
BRANCH  17  18
HETATM   18  N5  UNL     1      25.632   1.492  51.601  1.00  0.00    -0.389 N 
HETATM   19  H16 UNL     1      25.450   0.546  51.178  1.00  0.00     0.159 HD
BRANCH  18  20
HETATM   20  C14 UNL     1      24.737   1.788  52.648  1.00  0.00     0.017 C 
HETATM   21  C15 UNL     1      24.765   2.855  53.424  1.00  0.00     0.063 C 
BRANCH  20  22
HETATM   22  C16 UNL     1      23.649   0.865  52.946  1.00  0.00    -0.002 A 
HETATM   23  C17 UNL     1      22.410   1.082  52.436  1.00  0.00     0.014 A 
HETATM   24  C18 UNL     1      21.377   0.222  52.717  1.00  0.00     0.001 A 
HETATM   25  C19 UNL     1      21.503  -0.895  53.511  1.00  0.00     0.001 A 
HETATM   26  C20 UNL     1      22.742  -1.126  54.032  1.00  0.00     0.014 A 
HETATM   27  C21 UNL     1      23.760  -0.255  53.740  1.00  0.00    -0.000 A 
BRANCH  27  28
HETATM   28  C22 UNL     1      25.046  -0.566  54.326  1.00  0.00     0.390 C 
HETATM   29  O1  UNL     1      26.105  -1.201  54.098  1.00  0.00    -0.405 OA
ENDBRANCH  27  28
ENDBRANCH  20  22
ENDBRANCH  18  20
ENDBRANCH  17  18
ENDBRANCH   2  17
TORSDOF 9
ENDMDL
MODEL 9
REMARK VINA RESULT:      -7.4      4.899      8.781
REMARK  9 active torsions:
REMARK  status: ('A' for Active; 'I' for Inactive)
REMARK    1  A    between atoms: N1_2  and  C2_3 
REMARK    2  A    between atoms: C3_4  and  C4_5 
REMARK    3  A    between atoms: C4_5  and  C5_6 
REMARK    4  A    between atoms: N4_14  and  C11_15 
REMARK    5  A    between atoms: C12_16  and  C13_17 
REMARK    6  A    between atoms: C13_17  and  N5_18 
REMARK    7  A    between atoms: N5_18  and  C14_19 
REMARK    8  A    between atoms: C14_19  and  C16_21 
REMARK    9  A    between atoms: C21_26  and  C22_27 
ROOT
HETATM    1  C11 UNL     1      21.047   0.919  49.295  1.00  0.00     0.091 C 
HETATM    2  C12 UNL     1      21.679   1.495  48.321  1.00  0.00     0.006 C 
ENDROOT
BRANCH   1   3
HETATM    3  N4  UNL     1      20.923   0.736  50.734  1.00  0.00    -0.072 NA
HETATM    4  C9  UNL     1      20.381   1.646  51.474  1.00  0.00     0.288 A 
HETATM    5  C8  UNL     1      19.164   0.394  51.243  1.00  0.00     0.194 C 
HETATM    6  C10 UNL     1      19.833   2.575  52.247  1.00  0.00     0.308 A 
HETATM    7  N3  UNL     1      20.680   1.482  51.910  1.00  0.00     0.050 N 
HETATM    8  N2  UNL     1      18.562  -0.443  52.293  1.00  0.00    -0.290 NA
HETATM    9  C7  UNL     1      19.461  -0.564  53.477  1.00  0.00     0.109 C 
HETATM   10  C6  UNL     1      20.653   0.002  53.887  1.00  0.00     0.027 C 
HETATM   11  C5  UNL     1      21.492   0.872  52.954  1.00  0.00     0.241 C 
BRANCH  11  12
HETATM   12  C4  UNL     1      22.700   0.133  52.523  1.00  0.00     0.068 C 
BRANCH  12  13
HETATM   13  C3  UNL     1      23.418  -0.549  53.630  1.00  0.00    -0.005 C 
HETATM   14  C2  UNL     1      24.747  -0.690  53.533  1.00  0.00     0.111 C 
BRANCH  14  15
HETATM   15  N1  UNL     1      25.904  -0.446  52.745  1.00  0.00    -0.284 NA
HETATM   16  C1  UNL     1      26.932  -1.200  52.678  1.00  0.00     0.148 C 
ENDBRANCH  14  15
ENDBRANCH  12  13
ENDBRANCH  11  12
ENDBRANCH   1   3
BRANCH   2  17
HETATM   17  C13 UNL     1      22.771   2.411  48.005  1.00  0.00     0.148 C 
BRANCH  17  18
HETATM   18  N5  UNL     1      22.410   3.750  48.417  1.00  0.00    -0.389 N 
HETATM   19  H16 UNL     1      21.553   4.353  48.326  1.00  0.00     0.159 HD
BRANCH  18  20
HETATM   20  C14 UNL     1      23.451   4.407  49.105  1.00  0.00     0.017 C 
HETATM   21  C15 UNL     1      24.216   5.372  48.631  1.00  0.00     0.063 C 
BRANCH  20  22
HETATM   22  C16 UNL     1      23.754   4.031  50.480  1.00  0.00    -0.002 A 
HETATM   23  C17 UNL     1      24.765   3.165  50.745  1.00  0.00     0.014 A 
HETATM   24  C18 UNL     1      25.054   2.800  52.037  1.00  0.00     0.001 A 
HETATM   25  C19 UNL     1      24.369   3.264  53.136  1.00  0.00     0.001 A 
HETATM   26  C20 UNL     1      23.349   4.135  52.886  1.00  0.00     0.014 A 
HETATM   27  C21 UNL     1      23.077   4.486  51.589  1.00  0.00    -0.000 A 
BRANCH  27  28
HETATM   28  C22 UNL     1      21.984   5.416  51.403  1.00  0.00     0.390 C 
HETATM   29  O1  UNL     1      20.875   5.530  50.825  1.00  0.00    -0.405 OA
ENDBRANCH  27  28
ENDBRANCH  20  22
ENDBRANCH  18  20
ENDBRANCH  17  18
ENDBRANCH   2  17
TORSDOF 9
ENDMDL
