MODEL 1
REMARK VINA RESULT:      -7.7      0.000      0.000
REMARK  4 active torsions:
REMARK  status: ('A' for Active; 'I' for Inactive)
REMARK    1  A    between atoms: C3_3  and  C4_4 
REMARK       I    between atoms: C4_4  and  N1_6 
REMARK    2  A    between atoms: N1_6  and  C5_7 
REMARK    3  A    between atoms: C8_10  and  N2_11 
REMARK    4  A    between atoms: C8_10  and  C9_12 
ROOT
HETATM    1  C5  UNL     1      24.489  -0.502  54.075  1.00  0.00     0.130 A 
HETATM    2  C6  UNL     1      23.796   0.204  53.202  1.00  0.00     0.060 A 
HETATM    3  C7  UNL     1      22.340   0.263  53.208  1.00  0.00    -0.023 A 
HETATM    4  C8  UNL     1      21.840   0.946  52.203  1.00  0.00     0.043 C 
HETATM    5  C15 UNL     1      21.513  -0.411  54.240  1.00  0.00     0.088 A 
HETATM    6  C16 UNL     1      22.478  -1.155  55.130  1.00  0.00     0.096 A 
HETATM    7  N3  UNL     1      23.767  -1.212  55.083  1.00  0.00    -0.247 NA
ENDROOT
BRANCH   4   8
HETATM    8  N2  UNL     1      22.672   1.559  51.213  1.00  0.00    -0.398 N 
HETATM    9  H8  UNL     1      23.711   1.610  51.098  1.00  0.00     0.156 HD
HETATM   10  H9  UNL     1      22.608   2.111  50.347  1.00  0.00     0.156 HD
ENDBRANCH   4   8
BRANCH   4  11
HETATM   11  C9  UNL     1      20.495   1.328  51.808  1.00  0.00    -0.008 A 
HETATM   12  C10 UNL     1      20.098   2.640  52.051  1.00  0.00     0.014 A 
HETATM   13  C11 UNL     1      18.845   3.121  51.732  1.00  0.00     0.002 A 
HETATM   14  C12 UNL     1      17.919   2.280  51.139  1.00  0.00     0.019 A 
HETATM   15  C13 UNL     1      18.288   0.963  50.884  1.00  0.00     0.011 A 
HETATM   16 BR1  UNL     1      17.019  -0.220  50.065  1.00  0.00    -0.051 Br
HETATM   17  C14 UNL     1      19.562   0.509  51.220  1.00  0.00     0.032 A 
ENDBRANCH   4  11
BRANCH   1  18
HETATM   18  N1  UNL     1      25.890  -0.656  54.196  1.00  0.00    -0.308 N 
HETATM   19  C4  UNL     1      26.859   0.299  54.587  1.00  0.00     0.246 C 
HETATM   20  O1  UNL     1      26.435   1.431  54.873  1.00  0.00    -0.268 OA
HETATM   21  H6  UNL     1      26.193  -1.648  53.943  1.00  0.00     0.170 HD
BRANCH  19  22
HETATM   22  C3  UNL     1      28.247  -0.092  54.626  1.00  0.00     0.070 C 
HETATM   23  C2  UNL     1      28.886  -0.776  53.700  1.00  0.00    -0.026 C 
HETATM   24  C1  UNL     1      30.305  -1.199  53.700  1.00  0.00     0.036 C 
ENDBRANCH  19  22
ENDBRANCH   1  18
TORSDOF 4
ENDMDL
MODEL 2
REMARK VINA RESULT:      -7.3      1.691      2.701
REMARK  4 active torsions:
REMARK  status: ('A' for Active; 'I' for Inactive)
REMARK    1  A    between atoms: C3_3  and  C4_4 
REMARK       I    between atoms: C4_4  and  N1_6 
REMARK    2  A    between atoms: N1_6  and  C5_7 
REMARK    3  A    between atoms: C8_10  and  N2_11 
REMARK    4  A    between atoms: C8_10  and  C9_12 
ROOT
HETATM    1  C5  UNL     1      24.627   0.336  52.737  1.00  0.00     0.130 A 
HETATM    2  C6  UNL     1      23.503  -0.254  53.096  1.00  0.00     0.060 A 
HETATM    3  C7  UNL     1      22.202   0.131  52.567  1.00  0.00    -0.023 A 
HETATM    4  C8  UNL     1      21.200  -0.517  53.117  1.00  0.00     0.043 C 
HETATM    5  C15 UNL     1      22.035   1.176  51.526  1.00  0.00     0.088 A 
HETATM    6  C16 UNL     1      23.415   1.723  51.257  1.00  0.00     0.096 A 
HETATM    7  N3  UNL     1      24.552   1.380  51.764  1.00  0.00    -0.247 NA
ENDROOT
BRANCH   4   8
HETATM    8  N2  UNL     1      21.402  -1.500  54.138  1.00  0.00    -0.398 N 
HETATM    9  H8  UNL     1      22.238  -2.062  54.421  1.00  0.00     0.156 HD
HETATM   10  H9  UNL     1      20.895  -1.982  54.893  1.00  0.00     0.156 HD
ENDBRANCH   4   8
BRANCH   4  11
HETATM   11  C9  UNL     1      19.763  -0.532  52.904  1.00  0.00    -0.008 A 
HETATM   12  C10 UNL     1      19.021  -1.503  53.570  1.00  0.00     0.014 A 
HETATM   13  C11 UNL     1      17.653  -1.627  53.442  1.00  0.00     0.002 A 
HETATM   14  C12 UNL     1      16.960  -0.757  52.618  1.00  0.00     0.019 A 
HETATM   15  C13 UNL     1      17.676   0.224  51.939  1.00  0.00     0.011 A 
HETATM   16 BR1  UNL     1      16.736   1.439  50.790  1.00  0.00    -0.051 Br
HETATM   17  C14 UNL     1      19.058   0.322  52.090  1.00  0.00     0.032 A 
ENDBRANCH   4  11
BRANCH   1  18
HETATM   18  N1  UNL     1      25.952   0.077  53.158  1.00  0.00    -0.308 N 
HETATM   19  C4  UNL     1      26.754   0.806  54.068  1.00  0.00     0.246 C 
HETATM   20  O1  UNL     1      26.233   1.810  54.583  1.00  0.00    -0.268 OA
HETATM   21  H6  UNL     1      26.344  -0.798  52.688  1.00  0.00     0.170 HD
BRANCH  19  22
HETATM   22  C3  UNL     1      28.097   0.350  54.336  1.00  0.00     0.070 C 
HETATM   23  C2  UNL     1      28.793  -0.487  53.596  1.00  0.00    -0.026 C 
HETATM   24  C1  UNL     1      30.168  -0.981  53.833  1.00  0.00     0.036 C 
ENDBRANCH  19  22
ENDBRANCH   1  18
TORSDOF 4
ENDMDL
MODEL 3
REMARK VINA RESULT:      -7.3      4.600      5.654
REMARK  4 active torsions:
REMARK  status: ('A' for Active; 'I' for Inactive)
REMARK    1  A    between atoms: C3_3  and  C4_4 
REMARK       I    between atoms: C4_4  and  N1_6 
REMARK    2  A    between atoms: N1_6  and  C5_7 
REMARK    3  A    between atoms: C8_10  and  N2_11 
REMARK    4  A    between atoms: C8_10  and  C9_12 
ROOT
HETATM    1  C5  UNL     1      26.129   3.156  50.706  1.00  0.00     0.130 A 
HETATM    2  C6  UNL     1      24.886   2.766  50.909  1.00  0.00     0.060 A 
HETATM    3  C7  UNL     1      24.525   1.745  51.884  1.00  0.00    -0.023 A 
HETATM    4  C8  UNL     1      23.248   1.436  51.870  1.00  0.00     0.043 C 
HETATM    5  C15 UNL     1      25.518   1.106  52.783  1.00  0.00     0.088 A 
HETATM    6  C16 UNL     1      26.860   1.677  52.398  1.00  0.00     0.096 A 
HETATM    7  N3  UNL     1      27.154   2.563  51.506  1.00  0.00    -0.247 NA
ENDROOT
BRANCH   4   8
HETATM    8  N2  UNL     1      22.326   2.058  50.968  1.00  0.00    -0.398 N 
HETATM    9  H8  UNL     1      21.896   3.012  50.946  1.00  0.00     0.156 HD
HETATM   10  H9  UNL     1      21.793   1.861  50.110  1.00  0.00     0.156 HD
ENDBRANCH   4   8
BRANCH   4  11
HETATM   11  C9  UNL     1      22.412   0.547  52.658  1.00  0.00    -0.008 A 
HETATM   12  C10 UNL     1      23.009  -0.133  53.716  1.00  0.00     0.014 A 
HETATM   13  C11 UNL     1      22.324  -1.011  54.530  1.00  0.00     0.002 A 
HETATM   14  C12 UNL     1      20.978  -1.245  54.308  1.00  0.00     0.019 A 
HETATM   15  C13 UNL     1      20.355  -0.579  53.258  1.00  0.00     0.011 A 
HETATM   16 BR1  UNL     1      18.490  -0.891  52.930  1.00  0.00    -0.051 Br
HETATM   17  C14 UNL     1      21.075   0.301  52.453  1.00  0.00     0.032 A 
ENDBRANCH   4  11
BRANCH   1  18
HETATM   18  N1  UNL     1      26.632   4.125  49.806  1.00  0.00    -0.308 N 
HETATM   19  C4  UNL     1      26.143   5.426  49.536  1.00  0.00     0.246 C 
HETATM   20  O1  UNL     1      25.140   5.783  50.176  1.00  0.00    -0.268 OA
HETATM   21  H6  UNL     1      27.494   3.764  49.291  1.00  0.00     0.170 HD
BRANCH  19  22
HETATM   22  C3  UNL     1      26.824   6.237  48.556  1.00  0.00     0.070 C 
HETATM   23  C2  UNL     1      28.110   6.204  48.281  1.00  0.00    -0.026 C 
HETATM   24  C1  UNL     1      28.847   7.017  47.287  1.00  0.00     0.036 C 
ENDBRANCH  19  22
ENDBRANCH   1  18
TORSDOF 4
ENDMDL
MODEL 4
REMARK VINA RESULT:      -7.2      2.709      3.677
REMARK  4 active torsions:
REMARK  status: ('A' for Active; 'I' for Inactive)
REMARK    1  A    between atoms: C3_3  and  C4_4 
REMARK       I    between atoms: C4_4  and  N1_6 
REMARK    2  A    between atoms: N1_6  and  C5_7 
REMARK    3  A    between atoms: C8_10  and  N2_11 
REMARK    4  A    between atoms: C8_10  and  C9_12 
ROOT
HETATM    1  C5  UNL     1      23.159   1.206  52.479  1.00  0.00     0.130 A 
HETATM    2  C6  UNL     1      22.186   0.553  53.085  1.00  0.00     0.060 A 
HETATM    3  C7  UNL     1      20.955   0.162  52.411  1.00  0.00    -0.023 A 
HETATM    4  C8  UNL     1      20.077  -0.399  53.211  1.00  0.00     0.043 C 
HETATM    5  C15 UNL     1      20.719   0.403  50.966  1.00  0.00     0.088 A 
HETATM    6  C16 UNL     1      21.928   1.152  50.463  1.00  0.00     0.096 A 
HETATM    7  N3  UNL     1      22.996   1.511  51.093  1.00  0.00    -0.247 NA
ENDROOT
BRANCH   4   8
HETATM    8  N2  UNL     1      20.333  -0.591  54.606  1.00  0.00    -0.398 N 
HETATM    9  H8  UNL     1      19.931  -1.250  55.313  1.00  0.00     0.156 HD
HETATM   10  H9  UNL     1      20.921  -0.224  55.367  1.00  0.00     0.156 HD
ENDBRANCH   4   8
BRANCH   4  11
HETATM   11  C9  UNL     1      18.764  -0.991  53.018  1.00  0.00    -0.008 A 
HETATM   12  C10 UNL     1      17.792  -0.218  52.389  1.00  0.00     0.014 A 
HETATM   13  C11 UNL     1      16.507  -0.662  52.158  1.00  0.00     0.002 A 
HETATM   14  C12 UNL     1      16.139  -1.935  52.560  1.00  0.00     0.019 A 
HETATM   15  C13 UNL     1      17.089  -2.730  53.192  1.00  0.00     0.011 A 
HETATM   16 BR1  UNL     1      16.599  -4.496  53.761  1.00  0.00    -0.051 Br
HETATM   17  C14 UNL     1      18.379  -2.250  53.411  1.00  0.00     0.032 A 
ENDBRANCH   4  11
BRANCH   1  18
HETATM   18  N1  UNL     1      24.400   1.649  52.994  1.00  0.00    -0.308 N 
HETATM   19  C4  UNL     1      25.504   0.882  53.437  1.00  0.00     0.246 C 
HETATM   20  O1  UNL     1      25.384  -0.352  53.364  1.00  0.00    -0.268 OA
HETATM   21  H6  UNL     1      24.446   2.715  53.027  1.00  0.00     0.170 HD
BRANCH  19  22
HETATM   22  C3  UNL     1      26.673   1.565  53.937  1.00  0.00     0.070 C 
HETATM   23  C2  UNL     1      27.788   1.780  53.273  1.00  0.00    -0.026 C 
HETATM   24  C1  UNL     1      29.008   2.472  53.746  1.00  0.00     0.036 C 
ENDBRANCH  19  22
ENDBRANCH   1  18
TORSDOF 4
ENDMDL
MODEL 5
REMARK VINA RESULT:      -7.1      6.128      8.071
REMARK  4 active torsions:
REMARK  status: ('A' for Active; 'I' for Inactive)
REMARK    1  A    between atoms: C3_3  and  C4_4 
REMARK       I    between atoms: C4_4  and  N1_6 
REMARK    2  A    between atoms: N1_6  and  C5_7 
REMARK    3  A    between atoms: C8_10  and  N2_11 
REMARK    4  A    between atoms: C8_10  and  C9_12 
ROOT
HETATM    1  C5  UNL     1      22.843   2.308  50.510  1.00  0.00     0.130 A 
HETATM    2  C6  UNL     1      24.034   2.875  50.513  1.00  0.00     0.060 A 
HETATM    3  C7  UNL     1      24.438   3.875  49.533  1.00  0.00    -0.023 A 
HETATM    4  C8  UNL     1      25.692   4.248  49.654  1.00  0.00     0.043 C 
HETATM    5  C15 UNL     1      23.519   4.393  48.489  1.00  0.00     0.088 A 
HETATM    6  C16 UNL     1      22.229   3.629  48.650  1.00  0.00     0.096 A 
HETATM    7  N3  UNL     1      21.908   2.724  49.513  1.00  0.00    -0.247 NA
ENDROOT
BRANCH   4   8
HETATM    8  N2  UNL     1      26.553   3.704  50.659  1.00  0.00    -0.398 N 
HETATM    9  H8  UNL     1      26.809   2.721  50.912  1.00  0.00     0.156 HD
HETATM   10  H9  UNL     1      27.176   4.001  51.422  1.00  0.00     0.156 HD
ENDBRANCH   4   8
BRANCH   4  11
HETATM   11  C9  UNL     1      26.528   5.225  48.977  1.00  0.00    -0.008 A 
HETATM   12  C10 UNL     1      27.844   4.867  48.698  1.00  0.00     0.014 A 
HETATM   13  C11 UNL     1      28.737   5.709  48.069  1.00  0.00     0.002 A 
HETATM   14  C12 UNL     1      28.333   6.976  47.686  1.00  0.00     0.019 A 
HETATM   15  C13 UNL     1      27.023   7.361  47.953  1.00  0.00     0.011 A 
HETATM   16 BR1  UNL     1      26.442   9.115  47.433  1.00  0.00    -0.051 Br
HETATM   17  C14 UNL     1      26.145   6.487  48.590  1.00  0.00     0.032 A 
ENDBRANCH   4  11
BRANCH   1  18
HETATM   18  N1  UNL     1      22.310   1.332  51.384  1.00  0.00    -0.308 N 
HETATM   19  C4  UNL     1      21.391   1.499  52.448  1.00  0.00     0.246 C 
HETATM   20  O1  UNL     1      20.982   2.655  52.648  1.00  0.00    -0.268 OA
HETATM   21  H6  UNL     1      22.692   0.361  51.160  1.00  0.00     0.170 HD
BRANCH  19  22
HETATM   22  C3  UNL     1      20.996   0.344  53.217  1.00  0.00     0.070 C 
HETATM   23  C2  UNL     1      21.806  -0.554  53.737  1.00  0.00    -0.026 C 
HETATM   24  C1  UNL     1      21.446  -1.751  54.530  1.00  0.00     0.036 C 
ENDBRANCH  19  22
ENDBRANCH   1  18
TORSDOF 4
ENDMDL
MODEL 6
REMARK VINA RESULT:      -6.8      6.018      7.418
REMARK  4 active torsions:
REMARK  status: ('A' for Active; 'I' for Inactive)
REMARK    1  A    between atoms: C3_3  and  C4_4 
REMARK       I    between atoms: C4_4  and  N1_6 
REMARK    2  A    between atoms: N1_6  and  C5_7 
REMARK    3  A    between atoms: C8_10  and  N2_11 
REMARK    4  A    between atoms: C8_10  and  C9_12 
ROOT
HETATM    1  C5  UNL     1      25.757   5.177  49.120  1.00  0.00     0.130 A 
HETATM    2  C6  UNL     1      25.959   4.250  50.037  1.00  0.00     0.060 A 
HETATM    3  C7  UNL     1      24.899   3.379  50.531  1.00  0.00    -0.023 A 
HETATM    4  C8  UNL     1      25.285   2.587  51.505  1.00  0.00     0.043 C 
HETATM    5  C15 UNL     1      23.516   3.413  49.993  1.00  0.00     0.088 A 
HETATM    6  C16 UNL     1      23.490   4.524  48.973  1.00  0.00     0.096 A 
HETATM    7  N3  UNL     1      24.442   5.301  48.575  1.00  0.00    -0.247 NA
ENDROOT
BRANCH   4   8
HETATM    8  N2  UNL     1      26.623   2.603  52.012  1.00  0.00    -0.398 N 
HETATM    9  H8  UNL     1      27.525   2.229  51.635  1.00  0.00     0.156 HD
HETATM   10  H9  UNL     1      27.166   2.934  52.822  1.00  0.00     0.156 HD
ENDBRANCH   4   8
BRANCH   4  11
HETATM   11  C9  UNL     1      24.640   1.533  52.270  1.00  0.00    -0.008 A 
HETATM   12  C10 UNL     1      25.419   0.448  52.660  1.00  0.00     0.014 A 
HETATM   13  C11 UNL     1      24.920  -0.618  53.380  1.00  0.00     0.002 A 
HETATM   14  C12 UNL     1      23.585  -0.635  53.745  1.00  0.00     0.019 A 
HETATM   15  C13 UNL     1      22.782   0.436  53.367  1.00  0.00     0.011 A 
HETATM   16 BR1  UNL     1      20.928   0.432  53.860  1.00  0.00    -0.051 Br
HETATM   17  C14 UNL     1      23.317   1.498  52.640  1.00  0.00     0.032 A 
ENDBRANCH   4  11
BRANCH   1  18
HETATM   18  N1  UNL     1      26.674   6.088  48.547  1.00  0.00    -0.308 N 
HETATM   19  C4  UNL     1      28.040   5.895  48.232  1.00  0.00     0.246 C 
HETATM   20  O1  UNL     1      28.511   4.773  48.482  1.00  0.00    -0.268 OA
HETATM   21  H6  UNL     1      26.211   7.030  48.351  1.00  0.00     0.170 HD
BRANCH  19  22
HETATM   22  C3  UNL     1      28.785   6.989  47.657  1.00  0.00     0.070 C 
HETATM   23  C2  UNL     1      28.294   7.949  46.904  1.00  0.00    -0.026 C 
HETATM   24  C1  UNL     1      29.019   9.086  46.293  1.00  0.00     0.036 C 
ENDBRANCH  19  22
ENDBRANCH   1  18
TORSDOF 4
ENDMDL
MODEL 7
REMARK VINA RESULT:      -6.8      3.834      8.243
REMARK  4 active torsions:
REMARK  status: ('A' for Active; 'I' for Inactive)
REMARK    1  A    between atoms: C3_3  and  C4_4 
REMARK       I    between atoms: C4_4  and  N1_6 
REMARK    2  A    between atoms: N1_6  and  C5_7 
REMARK    3  A    between atoms: C8_10  and  N2_11 
REMARK    4  A    between atoms: C8_10  and  C9_12 
ROOT
HETATM    1  C5  UNL     1      21.411   1.417  52.729  1.00  0.00     0.130 A 
HETATM    2  C6  UNL     1      22.524   0.810  53.096  1.00  0.00     0.060 A 
HETATM    3  C7  UNL     1      23.838   1.429  52.987  1.00  0.00    -0.023 A 
HETATM    4  C8  UNL     1      24.823   0.627  53.321  1.00  0.00     0.043 C 
HETATM    5  C15 UNL     1      24.032   2.824  52.518  1.00  0.00     0.088 A 
HETATM    6  C16 UNL     1      22.662   3.336  52.149  1.00  0.00     0.096 A 
HETATM    7  N3  UNL     1      21.514   2.753  52.231  1.00  0.00    -0.247 NA
ENDROOT
BRANCH   4   8
HETATM    8  N2  UNL     1      24.595  -0.722  53.744  1.00  0.00    -0.398 N 
HETATM    9  H8  UNL     1      25.156  -1.381  54.332  1.00  0.00     0.156 HD
HETATM   10  H9  UNL     1      23.901  -1.477  53.661  1.00  0.00     0.156 HD
ENDBRANCH   4   8
BRANCH   4  11
HETATM   11  C9  UNL     1      26.264   0.782  53.429  1.00  0.00    -0.008 A 
HETATM   12  C10 UNL     1      26.768   2.074  53.548  1.00  0.00     0.014 A 
HETATM   13  C11 UNL     1      28.115   2.353  53.647  1.00  0.00     0.002 A 
HETATM   14  C12 UNL     1      29.032   1.316  53.631  1.00  0.00     0.019 A 
HETATM   15  C13 UNL     1      28.557   0.014  53.513  1.00  0.00     0.011 A 
HETATM   16 BR1  UNL     1      29.812  -1.438  53.486  1.00  0.00    -0.051 Br
HETATM   17  C14 UNL     1      27.189  -0.233  53.414  1.00  0.00     0.032 A 
ENDBRANCH   4  11
BRANCH   1  18
HETATM   18  N1  UNL     1      20.076   0.952  52.773  1.00  0.00    -0.308 N 
HETATM   19  C4  UNL     1      19.283   0.427  51.725  1.00  0.00     0.246 C 
HETATM   20  O1  UNL     1      19.822   0.353  50.608  1.00  0.00    -0.268 OA
HETATM   21  H6  UNL     1      19.670   1.035  53.756  1.00  0.00     0.170 HD
BRANCH  19  22
HETATM   22  C3  UNL     1      17.927   0.023  52.011  1.00  0.00     0.070 C 
HETATM   23  C2  UNL     1      17.086  -0.524  51.159  1.00  0.00    -0.026 C 
HETATM   24  C1  UNL     1      15.691  -0.951  51.408  1.00  0.00     0.036 C 
ENDBRANCH  19  22
ENDBRANCH   1  18
TORSDOF 4
ENDMDL
MODEL 8
REMARK VINA RESULT:      -6.7      1.819      2.680
REMARK  4 active torsions:
REMARK  status: ('A' for Active; 'I' for Inactive)
REMARK    1  A    between atoms: C3_3  and  C4_4 
REMARK       I    between atoms: C4_4  and  N1_6 
REMARK    2  A    between atoms: N1_6  and  C5_7 
REMARK    3  A    between atoms: C8_10  and  N2_11 
REMARK    4  A    between atoms: C8_10  and  C9_12 
ROOT
HETATM    1  C5  UNL     1      25.446   1.594  51.783  1.00  0.00     0.130 A 
HETATM    2  C6  UNL     1      24.206   1.237  52.057  1.00  0.00     0.060 A 
HETATM    3  C7  UNL     1      23.045   1.886  51.463  1.00  0.00    -0.023 A 
HETATM    4  C8  UNL     1      21.901   1.443  51.933  1.00  0.00     0.043 C 
HETATM    5  C15 UNL     1      23.158   2.961  50.445  1.00  0.00     0.088 A 
HETATM    6  C16 UNL     1      24.634   3.223  50.276  1.00  0.00     0.096 A 
HETATM    7  N3  UNL     1      25.644   2.648  50.839  1.00  0.00    -0.247 NA
ENDROOT
BRANCH   4   8
HETATM    8  N2  UNL     1      21.835   0.422  52.934  1.00  0.00    -0.398 N 
HETATM    9  H8  UNL     1      22.528   0.081  53.640  1.00  0.00     0.156 HD
HETATM   10  H9  UNL     1      21.189  -0.283  53.314  1.00  0.00     0.156 HD
ENDBRANCH   4   8
BRANCH   4  11
HETATM   11  C9  UNL     1      20.507   1.722  51.634  1.00  0.00    -0.008 A 
HETATM   12  C10 UNL     1      20.019   2.988  51.945  1.00  0.00     0.014 A 
HETATM   13  C11 UNL     1      18.713   3.370  51.720  1.00  0.00     0.002 A 
HETATM   14  C12 UNL     1      17.823   2.472  51.157  1.00  0.00     0.019 A 
HETATM   15  C13 UNL     1      18.282   1.199  50.835  1.00  0.00     0.011 A 
HETATM   16 BR1  UNL     1      17.065  -0.064  50.057  1.00  0.00    -0.051 Br
HETATM   17  C14 UNL     1      19.608   0.843  51.077  1.00  0.00     0.032 A 
ENDBRANCH   4  11
BRANCH   1  18
HETATM   18  N1  UNL     1      26.663   1.066  52.274  1.00  0.00    -0.308 N 
HETATM   19  C4  UNL     1      27.378   1.420  53.443  1.00  0.00     0.246 C 
HETATM   20  O1  UNL     1      26.876   2.311  54.149  1.00  0.00    -0.268 OA
HETATM   21  H6  UNL     1      27.041   0.303  51.631  1.00  0.00     0.170 HD
BRANCH  19  22
HETATM   22  C3  UNL     1      28.618   0.742  53.736  1.00  0.00     0.070 C 
HETATM   23  C2  UNL     1      28.890  -0.520  53.479  1.00  0.00    -0.026 C 
HETATM   24  C1  UNL     1      30.144  -1.254  53.762  1.00  0.00     0.036 C 
ENDBRANCH  19  22
ENDBRANCH   1  18
TORSDOF 4
ENDMDL
MODEL 9
REMARK VINA RESULT:      -6.7      6.878      8.423
REMARK  4 active torsions:
REMARK  status: ('A' for Active; 'I' for Inactive)
REMARK    1  A    between atoms: C3_3  and  C4_4 
REMARK       I    between atoms: C4_4  and  N1_6 
REMARK    2  A    between atoms: N1_6  and  C5_7 
REMARK    3  A    between atoms: C8_10  and  N2_11 
REMARK    4  A    between atoms: C8_10  and  C9_12 
ROOT
HETATM    1  C5  UNL     1      23.880   3.445  51.619  1.00  0.00     0.130 A 
HETATM    2  C6  UNL     1      24.918   3.611  50.821  1.00  0.00     0.060 A 
HETATM    3  C7  UNL     1      25.269   4.898  50.235  1.00  0.00    -0.023 A 
HETATM    4  C8  UNL     1      26.281   4.833  49.400  1.00  0.00     0.043 C 
HETATM    5  C15 UNL     1      24.529   6.148  50.539  1.00  0.00     0.088 A 
HETATM    6  C16 UNL     1      23.395   5.752  51.452  1.00  0.00     0.096 A 
HETATM    7  N3  UNL     1      23.091   4.594  51.935  1.00  0.00    -0.247 NA
ENDROOT
BRANCH   4   8
HETATM    8  N2  UNL     1      26.952   3.601  49.113  1.00  0.00    -0.398 N 
HETATM    9  H8  UNL     1      27.896   3.389  48.714  1.00  0.00     0.156 HD
HETATM   10  H9  UNL     1      26.811   2.583  49.170  1.00  0.00     0.156 HD
ENDBRANCH   4   8
BRANCH   4  11
HETATM   11  C9  UNL     1      27.021   5.816  48.626  1.00  0.00    -0.008 A 
HETATM   12  C10 UNL     1      26.307   6.880  48.083  1.00  0.00     0.014 A 
HETATM   13  C11 UNL     1      26.893   7.871  47.322  1.00  0.00     0.002 A 
HETATM   14  C12 UNL     1      28.254   7.829  47.071  1.00  0.00     0.019 A 
HETATM   15  C13 UNL     1      28.992   6.775  47.601  1.00  0.00     0.011 A 
HETATM   16 BR1  UNL     1      30.879   6.695  47.263  1.00  0.00    -0.051 Br
HETATM   17  C14 UNL     1      28.370   5.790  48.365  1.00  0.00     0.032 A 
ENDBRANCH   4  11
BRANCH   1  18
HETATM   18  N1  UNL     1      23.417   2.272  52.259  1.00  0.00    -0.308 N 
HETATM   19  C4  UNL     1      22.679   1.194  51.712  1.00  0.00     0.246 C 
HETATM   20  O1  UNL     1      22.398   1.273  50.504  1.00  0.00    -0.268 OA
HETATM   21  H6  UNL     1      23.692   2.258  53.290  1.00  0.00     0.170 HD
BRANCH  19  22
HETATM   22  C3  UNL     1      22.304   0.098  52.573  1.00  0.00     0.070 C 
HETATM   23  C2  UNL     1      22.087   0.169  53.869  1.00  0.00    -0.026 C 
HETATM   24  C1  UNL     1      21.704  -0.927  54.787  1.00  0.00     0.036 C 
ENDBRANCH  19  22
ENDBRANCH   1  18
TORSDOF 4
ENDMDL
