MODEL 1
REMARK VINA RESULT:      -7.9      0.000      0.000
REMARK  7 active torsions:
REMARK  status: ('A' for Active; 'I' for Inactive)
REMARK    1  A    between atoms: C5_6  and  N1_7 
REMARK    2  A    between atoms: N1_7  and  C6_8 
REMARK    3  A    between atoms: C9_11  and  O1_12 
REMARK    4  A    between atoms: O1_12  and  C10_13 
REMARK    5  A    between atoms: C10_13  and  C11_14 
REMARK    6  A    between atoms: C11_14  and  C12_15 
REMARK    7  A    between atoms: C12_15  and  N2_16 
ROOT
HETATM    1  C6  UNL     1      22.026   1.916  50.985  1.00  0.00     0.123 C 
HETATM    2  C7  UNL     1      22.820   2.867  50.571  1.00  0.00     0.095 A 
HETATM    3  C8  UNL     1      23.599   2.925  49.240  1.00  0.00     0.012 A 
HETATM    4  C9  UNL     1      24.168   3.699  50.084  1.00  0.00     0.130 A 
HETATM    5  C17 UNL     1      22.827   4.379  49.880  1.00  0.00     0.109 A 
HETATM    6  C18 UNL     1      23.171   5.275  50.737  1.00  0.00    -0.009 A 
HETATM    7  C19 UNL     1      22.771   4.033  51.582  1.00  0.00     0.089 A 
HETATM    8  O3  UNL     1      21.581   4.534  49.336  1.00  0.00    -0.328 OA
HETATM    9  C20 UNL     1      21.099   3.827  48.246  1.00  0.00     0.425 C 
HETATM   10  N3  UNL     1      21.028   2.569  47.951  1.00  0.00    -0.362 NA
HETATM   11  C21 UNL     1      21.477   1.482  48.756  1.00  0.00     0.200 C 
HETATM   12  N4  UNL     1      21.909   0.967  49.907  1.00  0.00    -0.230 NA
ENDROOT
BRANCH   4  13
HETATM   13  O1  UNL     1      25.354   3.817  50.774  1.00  0.00    -0.371 OA
BRANCH  13  14
HETATM   14  C10 UNL     1      26.406   2.888  50.674  1.00  0.00     0.171 C 
BRANCH  14  15
HETATM   15  C11 UNL     1      26.760   2.268  52.005  1.00  0.00     0.056 C 
BRANCH  15  16
HETATM   16  C12 UNL     1      26.748   0.774  51.767  1.00  0.00     0.274 C 
BRANCH  16  17
HETATM   17  N2  UNL     1      26.315   0.057  52.939  1.00  0.00     0.092 N 
HETATM   18  C13 UNL     1      26.625   0.822  54.140  1.00  0.00     0.298 C 
HETATM   19  C14 UNL     1      27.843   0.234  54.796  1.00  0.00     0.198 C 
HETATM   20  O2  UNL     1      28.809  -0.148  53.849  1.00  0.00    -0.388 OA
HETATM   21  C15 UNL     1      28.372  -1.240  53.095  1.00  0.00     0.198 C 
HETATM   22  C16 UNL     1      26.865  -1.273  53.025  1.00  0.00     0.298 C 
ENDBRANCH  16  17
ENDBRANCH  15  16
ENDBRANCH  14  15
ENDBRANCH  13  14
ENDBRANCH   4  13
BRANCH   1  23
HETATM   23  N1  UNL     1      21.236   1.630  52.114  1.00  0.00    -0.343 N 
HETATM   24  H4  UNL     1      20.462   2.295  52.251  1.00  0.00     0.167 HD
BRANCH  23  25
HETATM   25  C5  UNL     1      21.493   0.527  52.967  1.00  0.00     0.036 A 
HETATM   26  C4  UNL     1      20.444  -0.307  53.246  1.00  0.00     0.029 A 
HETATM   27  C3  UNL     1      20.546  -1.413  54.053  1.00  0.00     0.005 A 
HETATM   28  C2  UNL     1      21.784  -1.652  54.582  1.00  0.00     0.042 A 
HETATM   29  C1  UNL     1      22.850  -0.826  54.312  1.00  0.00     0.118 A 
HETATM   30  F1  UNL     1      24.063  -1.123  54.874  1.00  0.00    -0.206 F 
HETATM   31  C22 UNL     1      22.736   0.290  53.496  1.00  0.00     0.071 A 
ENDBRANCH  23  25
ENDBRANCH   1  23
TORSDOF 7
ENDMDL
MODEL 2
REMARK VINA RESULT:      -7.9      1.182      1.571
REMARK  7 active torsions:
REMARK  status: ('A' for Active; 'I' for Inactive)
REMARK    1  A    between atoms: C5_6  and  N1_7 
REMARK    2  A    between atoms: N1_7  and  C6_8 
REMARK    3  A    between atoms: C9_11  and  O1_12 
REMARK    4  A    between atoms: O1_12  and  C10_13 
REMARK    5  A    between atoms: C10_13  and  C11_14 
REMARK    6  A    between atoms: C11_14  and  C12_15 
REMARK    7  A    between atoms: C12_15  and  N2_16 
ROOT
HETATM    1  C6  UNL     1      21.975   2.065  51.142  1.00  0.00     0.123 C 
HETATM    2  C7  UNL     1      22.778   2.963  50.639  1.00  0.00     0.095 A 
HETATM    3  C8  UNL     1      23.534   2.898  49.295  1.00  0.00     0.012 A 
HETATM    4  C9  UNL     1      24.133   3.727  50.065  1.00  0.00     0.130 A 
HETATM    5  C17 UNL     1      22.801   4.414  49.829  1.00  0.00     0.109 A 
HETATM    6  C18 UNL     1      23.177   5.370  50.605  1.00  0.00    -0.009 A 
HETATM    7  C19 UNL     1      22.770   4.208  51.554  1.00  0.00     0.089 A 
HETATM    8  O3  UNL     1      21.549   4.551  49.294  1.00  0.00    -0.328 OA
HETATM    9  C20 UNL     1      21.034   3.768  48.274  1.00  0.00     0.425 C 
HETATM   10  N3  UNL     1      20.934   2.492  48.082  1.00  0.00    -0.362 NA
HETATM   11  C21 UNL     1      21.377   1.464  48.964  1.00  0.00     0.200 C 
HETATM   12  N4  UNL     1      21.820   1.035  50.146  1.00  0.00    -0.230 NA
ENDROOT
BRANCH   4  13
HETATM   13  O1  UNL     1      25.333   3.876  50.723  1.00  0.00    -0.371 OA
BRANCH  13  14
HETATM   14  C10 UNL     1      26.361   2.916  50.691  1.00  0.00     0.171 C 
BRANCH  14  15
HETATM   15  C11 UNL     1      26.022   1.677  51.485  1.00  0.00     0.056 C 
BRANCH  15  16
HETATM   16  C12 UNL     1      27.305   1.287  52.186  1.00  0.00     0.274 C 
BRANCH  16  17
HETATM   17  N2  UNL     1      27.248  -0.068  52.674  1.00  0.00     0.092 N 
HETATM   18  C13 UNL     1      25.967  -0.315  53.323  1.00  0.00     0.298 C 
HETATM   19  C14 UNL     1      26.156  -0.275  54.814  1.00  0.00     0.198 C 
HETATM   20  O2  UNL     1      27.035   0.752  55.198  1.00  0.00    -0.388 OA
HETATM   21  C15 UNL     1      28.340   0.482  54.782  1.00  0.00     0.198 C 
HETATM   22  C16 UNL     1      28.340  -0.398  53.556  1.00  0.00     0.298 C 
ENDBRANCH  16  17
ENDBRANCH  15  16
ENDBRANCH  14  15
ENDBRANCH  13  14
ENDBRANCH   4  13
BRANCH   1  23
HETATM   23  N1  UNL     1      21.200   1.886  52.303  1.00  0.00    -0.343 N 
HETATM   24  H4  UNL     1      20.661   2.722  52.568  1.00  0.00     0.167 HD
BRANCH  23  25
HETATM   25  C5  UNL     1      21.173   0.665  53.023  1.00  0.00     0.036 A 
HETATM   26  C4  UNL     1      22.313   0.305  53.690  1.00  0.00     0.029 A 
HETATM   27  C3  UNL     1      22.431  -0.845  54.429  1.00  0.00     0.005 A 
HETATM   28  C2  UNL     1      21.320  -1.642  54.471  1.00  0.00     0.042 A 
HETATM   29  C1  UNL     1      20.165  -1.297  53.809  1.00  0.00     0.118 A 
HETATM   30  F1  UNL     1      19.089  -2.140  53.893  1.00  0.00    -0.206 F 
HETATM   31  C22 UNL     1      20.057  -0.132  53.064  1.00  0.00     0.071 A 
ENDBRANCH  23  25
ENDBRANCH   1  23
TORSDOF 7
ENDMDL
MODEL 3
REMARK VINA RESULT:      -7.7      3.001      5.499
REMARK  7 active torsions:
REMARK  status: ('A' for Active; 'I' for Inactive)
REMARK    1  A    between atoms: C5_6  and  N1_7 
REMARK    2  A    between atoms: N1_7  and  C6_8 
REMARK    3  A    between atoms: C9_11  and  O1_12 
REMARK    4  A    between atoms: O1_12  and  C10_13 
REMARK    5  A    between atoms: C10_13  and  C11_14 
REMARK    6  A    between atoms: C11_14  and  C12_15 
REMARK    7  A    between atoms: C12_15  and  N2_16 
ROOT
HETATM    1  C6  UNL     1      23.902   2.823  50.981  1.00  0.00     0.123 C 
HETATM    2  C7  UNL     1      23.036   2.068  51.601  1.00  0.00     0.095 A 
HETATM    3  C8  UNL     1      22.543   2.206  53.056  1.00  0.00     0.012 A 
HETATM    4  C9  UNL     1      22.347   1.003  52.669  1.00  0.00     0.130 A 
HETATM    5  C17 UNL     1      21.407   1.785  51.770  1.00  0.00     0.109 A 
HETATM    6  C18 UNL     1      21.068   0.684  51.196  1.00  0.00    -0.009 A 
HETATM    7  C19 UNL     1      22.455   1.048  50.597  1.00  0.00     0.089 A 
HETATM    8  O3  UNL     1      20.793   2.910  51.291  1.00  0.00    -0.328 OA
HETATM    9  C20 UNL     1      20.837   4.155  51.898  1.00  0.00     0.425 C 
HETATM   10  N3  UNL     1      21.793   4.910  52.332  1.00  0.00    -0.362 NA
HETATM   11  C21 UNL     1      23.188   4.620  52.294  1.00  0.00     0.200 C 
HETATM   12  N4  UNL     1      24.232   3.905  51.875  1.00  0.00    -0.230 NA
ENDROOT
BRANCH   4  13
HETATM   13  O1  UNL     1      22.776  -0.276  52.945  1.00  0.00    -0.371 OA
BRANCH  13  14
HETATM   14  C10 UNL     1      23.842  -0.567  53.814  1.00  0.00     0.171 C 
BRANCH  14  15
HETATM   15  C11 UNL     1      25.181  -0.547  53.116  1.00  0.00     0.056 C 
BRANCH  15  16
HETATM   16  C12 UNL     1      26.171  -0.078  54.160  1.00  0.00     0.274 C 
BRANCH  16  17
HETATM   17  N2  UNL     1      27.528  -0.198  53.692  1.00  0.00     0.092 N 
HETATM   18  C13 UNL     1      28.460   0.120  54.766  1.00  0.00     0.298 C 
HETATM   19  C14 UNL     1      28.999   1.508  54.554  1.00  0.00     0.198 C 
HETATM   20  O2  UNL     1      27.999   2.389  54.108  1.00  0.00    -0.388 OA
HETATM   21  C15 UNL     1      27.590   2.073  52.811  1.00  0.00     0.198 C 
HETATM   22  C16 UNL     1      27.799   0.606  52.526  1.00  0.00     0.298 C 
ENDBRANCH  16  17
ENDBRANCH  15  16
ENDBRANCH  14  15
ENDBRANCH  13  14
ENDBRANCH   4  13
BRANCH   1  23
HETATM   23  N1  UNL     1      24.504   2.901  49.712  1.00  0.00    -0.343 N 
HETATM   24  H4  UNL     1      24.307   2.086  49.115  1.00  0.00     0.167 HD
BRANCH  23  25
HETATM   25  C5  UNL     1      25.300   4.003  49.309  1.00  0.00     0.036 A 
HETATM   26  C4  UNL     1      26.655   3.813  49.256  1.00  0.00     0.029 A 
HETATM   27  C3  UNL     1      27.546   4.787  48.883  1.00  0.00     0.005 A 
HETATM   28  C2  UNL     1      27.001   5.998  48.553  1.00  0.00     0.042 A 
HETATM   29  C1  UNL     1      25.642   6.208  48.598  1.00  0.00     0.118 A 
HETATM   30  F1  UNL     1      25.163   7.444  48.256  1.00  0.00    -0.206 F 
HETATM   31  C22 UNL     1      24.751   5.216  48.979  1.00  0.00     0.071 A 
ENDBRANCH  23  25
ENDBRANCH   1  23
TORSDOF 7
ENDMDL
MODEL 4
REMARK VINA RESULT:      -7.6      2.296      4.836
REMARK  7 active torsions:
REMARK  status: ('A' for Active; 'I' for Inactive)
REMARK    1  A    between atoms: C5_6  and  N1_7 
REMARK    2  A    between atoms: N1_7  and  C6_8 
REMARK    3  A    between atoms: C9_11  and  O1_12 
REMARK    4  A    between atoms: O1_12  and  C10_13 
REMARK    5  A    between atoms: C10_13  and  C11_14 
REMARK    6  A    between atoms: C11_14  and  C12_15 
REMARK    7  A    between atoms: C12_15  and  N2_16 
ROOT
HETATM    1  C6  UNL     1      24.121   3.633  51.466  1.00  0.00     0.123 C 
HETATM    2  C7  UNL     1      23.178   3.426  50.588  1.00  0.00     0.095 A 
HETATM    3  C8  UNL     1      21.714   3.913  50.651  1.00  0.00     0.012 A 
HETATM    4  C9  UNL     1      21.780   2.907  49.863  1.00  0.00     0.130 A 
HETATM    5  C17 UNL     1      22.596   3.949  49.121  1.00  0.00     0.109 A 
HETATM    6  C18 UNL     1      22.829   3.083  48.198  1.00  0.00    -0.009 A 
HETATM    7  C19 UNL     1      23.784   2.705  49.365  1.00  0.00     0.089 A 
HETATM    8  O3  UNL     1      23.159   5.181  48.926  1.00  0.00    -0.328 OA
HETATM    9  C20 UNL     1      22.861   6.314  49.667  1.00  0.00     0.425 C 
HETATM   10  N3  UNL     1      22.822   6.575  50.933  1.00  0.00    -0.362 NA
HETATM   11  C21 UNL     1      23.103   5.669  51.996  1.00  0.00     0.200 C 
HETATM   12  N4  UNL     1      23.577   4.516  52.468  1.00  0.00    -0.230 NA
ENDROOT
BRANCH   4  13
HETATM   13  O1  UNL     1      21.335   1.607  49.774  1.00  0.00    -0.371 OA
BRANCH  13  14
HETATM   14  C10 UNL     1      19.992   1.231  49.959  1.00  0.00     0.171 C 
BRANCH  14  15
HETATM   15  C11 UNL     1      19.565   1.301  51.405  1.00  0.00     0.056 C 
BRANCH  15  16
HETATM   16  C12 UNL     1      20.321   0.191  52.101  1.00  0.00     0.274 C 
BRANCH  16  17
HETATM   17  N2  UNL     1      21.178   0.706  53.139  1.00  0.00     0.092 N 
HETATM   18  C13 UNL     1      22.576   0.477  52.796  1.00  0.00     0.298 C 
HETATM   19  C14 UNL     1      23.091  -0.691  53.589  1.00  0.00     0.198 C 
HETATM   20  O2  UNL     1      22.137  -1.719  53.679  1.00  0.00    -0.388 OA
HETATM   21  C15 UNL     1      21.052  -1.332  54.468  1.00  0.00     0.198 C 
HETATM   22  C16 UNL     1      20.877   0.167  54.442  1.00  0.00     0.298 C 
ENDBRANCH  16  17
ENDBRANCH  15  16
ENDBRANCH  14  15
ENDBRANCH  13  14
ENDBRANCH   4  13
BRANCH   1  23
HETATM   23  N1  UNL     1      25.478   3.305  51.642  1.00  0.00    -0.343 N 
HETATM   24  H4  UNL     1      26.123   4.009  51.255  1.00  0.00     0.167 HD
BRANCH  23  25
HETATM   25  C5  UNL     1      25.900   2.118  52.293  1.00  0.00     0.036 A 
HETATM   26  C4  UNL     1      26.301   1.077  51.500  1.00  0.00     0.029 A 
HETATM   27  C3  UNL     1      26.736  -0.129  51.990  1.00  0.00     0.005 A 
HETATM   28  C2  UNL     1      26.752  -0.246  53.353  1.00  0.00     0.042 A 
HETATM   29  C1  UNL     1      26.355   0.790  54.166  1.00  0.00     0.118 A 
HETATM   30  F1  UNL     1      26.397   0.605  55.522  1.00  0.00    -0.206 F 
HETATM   31  C22 UNL     1      25.916   2.004  53.660  1.00  0.00     0.071 A 
ENDBRANCH  23  25
ENDBRANCH   1  23
TORSDOF 7
ENDMDL
MODEL 5
REMARK VINA RESULT:      -7.4      4.122      6.562
REMARK  7 active torsions:
REMARK  status: ('A' for Active; 'I' for Inactive)
REMARK    1  A    between atoms: C5_6  and  N1_7 
REMARK    2  A    between atoms: N1_7  and  C6_8 
REMARK    3  A    between atoms: C9_11  and  O1_12 
REMARK    4  A    between atoms: O1_12  and  C10_13 
REMARK    5  A    between atoms: C10_13  and  C11_14 
REMARK    6  A    between atoms: C11_14  and  C12_15 
REMARK    7  A    between atoms: C12_15  and  N2_16 
ROOT
HETATM    1  C6  UNL     1      25.149   6.434  49.594  1.00  0.00     0.123 C 
HETATM    2  C7  UNL     1      24.468   5.481  50.170  1.00  0.00     0.095 A 
HETATM    3  C8  UNL     1      23.733   5.540  51.525  1.00  0.00     0.012 A 
HETATM    4  C9  UNL     1      23.977   4.317  51.243  1.00  0.00     0.130 A 
HETATM    5  C17 UNL     1      22.998   4.707  50.152  1.00  0.00     0.109 A 
HETATM    6  C18 UNL     1      23.105   3.524  49.657  1.00  0.00    -0.009 A 
HETATM    7  C19 UNL     1      24.391   4.273  49.210  1.00  0.00     0.089 A 
HETATM    8  O3  UNL     1      22.153   5.550  49.481  1.00  0.00    -0.328 OA
HETATM    9  C20 UNL     1      21.720   6.778  49.955  1.00  0.00     0.425 C 
HETATM   10  N3  UNL     1      22.320   7.821  50.430  1.00  0.00    -0.362 NA
HETATM   11  C21 UNL     1      23.724   7.985  50.607  1.00  0.00     0.200 C 
HETATM   12  N4  UNL     1      24.989   7.615  50.406  1.00  0.00    -0.230 NA
ENDROOT
BRANCH   4  13
HETATM   13  O1  UNL     1      24.725   3.257  51.705  1.00  0.00    -0.371 OA
BRANCH  13  14
HETATM   14  C10 UNL     1      24.463   2.592  52.917  1.00  0.00     0.171 C 
BRANCH  14  15
HETATM   15  C11 UNL     1      24.299   1.102  52.736  1.00  0.00     0.056 C 
BRANCH  15  16
HETATM   16  C12 UNL     1      25.611   0.620  52.157  1.00  0.00     0.274 C 
BRANCH  16  17
HETATM   17  N2  UNL     1      26.153  -0.476  52.918  1.00  0.00     0.092 N 
HETATM   18  C13 UNL     1      25.613  -0.464  54.272  1.00  0.00     0.298 C 
HETATM   19  C14 UNL     1      26.648   0.094  55.209  1.00  0.00     0.198 C 
HETATM   20  O2  UNL     1      27.333   1.180  54.637  1.00  0.00    -0.388 OA
HETATM   21  C15 UNL     1      28.144   0.765  53.579  1.00  0.00     0.198 C 
HETATM   22  C16 UNL     1      27.595  -0.490  52.944  1.00  0.00     0.298 C 
ENDBRANCH  16  17
ENDBRANCH  15  16
ENDBRANCH  14  15
ENDBRANCH  13  14
ENDBRANCH   4  13
BRANCH   1  23
HETATM   23  N1  UNL     1      25.892   6.625  48.414  1.00  0.00    -0.343 N 
HETATM   24  H4  UNL     1      25.305   6.735  47.575  1.00  0.00     0.167 HD
BRANCH  23  25
HETATM   25  C5  UNL     1      27.309   6.663  48.400  1.00  0.00     0.036 A 
HETATM   26  C4  UNL     1      27.967   5.464  48.332  1.00  0.00     0.029 A 
HETATM   27  C3  UNL     1      29.334   5.348  48.307  1.00  0.00     0.005 A 
HETATM   28  C2  UNL     1      30.033   6.523  48.355  1.00  0.00     0.042 A 
HETATM   29  C1  UNL     1      29.389   7.737  48.422  1.00  0.00     0.118 A 
HETATM   30  F1  UNL     1      30.149   8.875  48.466  1.00  0.00    -0.206 F 
HETATM   31  C22 UNL     1      28.007   7.843  48.446  1.00  0.00     0.071 A 
ENDBRANCH  23  25
ENDBRANCH   1  23
TORSDOF 7
ENDMDL
MODEL 6
REMARK VINA RESULT:      -7.3      2.579      5.944
REMARK  7 active torsions:
REMARK  status: ('A' for Active; 'I' for Inactive)
REMARK    1  A    between atoms: C5_6  and  N1_7 
REMARK    2  A    between atoms: N1_7  and  C6_8 
REMARK    3  A    between atoms: C9_11  and  O1_12 
REMARK    4  A    between atoms: O1_12  and  C10_13 
REMARK    5  A    between atoms: C10_13  and  C11_14 
REMARK    6  A    between atoms: C11_14  and  C12_15 
REMARK    7  A    between atoms: C12_15  and  N2_16 
ROOT
HETATM    1  C6  UNL     1      24.013   0.480  53.214  1.00  0.00     0.123 C 
HETATM    2  C7  UNL     1      23.297   1.180  52.376  1.00  0.00     0.095 A 
HETATM    3  C8  UNL     1      22.289   0.651  51.335  1.00  0.00     0.012 A 
HETATM    4  C9  UNL     1      22.674   1.817  50.978  1.00  0.00     0.130 A 
HETATM    5  C17 UNL     1      21.923   2.108  52.263  1.00  0.00     0.109 A 
HETATM    6  C18 UNL     1      22.217   3.354  52.132  1.00  0.00    -0.009 A 
HETATM    7  C19 UNL     1      23.512   2.681  52.669  1.00  0.00     0.089 A 
HETATM    8  O3  UNL     1      21.181   1.793  53.369  1.00  0.00    -0.328 OA
HETATM    9  C20 UNL     1      20.570   0.570  53.591  1.00  0.00     0.425 C 
HETATM   10  N3  UNL     1      20.979  -0.658  53.564  1.00  0.00    -0.362 NA
HETATM   11  C21 UNL     1      22.298  -1.106  53.267  1.00  0.00     0.200 C 
HETATM   12  N4  UNL     1      23.600  -0.894  53.075  1.00  0.00    -0.230 NA
ENDROOT
BRANCH   4  13
HETATM   13  O1  UNL     1      23.383   2.431  49.969  1.00  0.00    -0.371 OA
BRANCH  13  14
HETATM   14  C10 UNL     1      22.858   2.667  48.685  1.00  0.00     0.171 C 
BRANCH  14  15
HETATM   15  C11 UNL     1      22.948   4.119  48.280  1.00  0.00     0.056 C 
BRANCH  15  16
HETATM   16  C12 UNL     1      23.983   4.729  49.201  1.00  0.00     0.274 C 
BRANCH  16  17
HETATM   17  N2  UNL     1      24.415   6.019  48.729  1.00  0.00     0.092 N 
HETATM   18  C13 UNL     1      25.749   6.318  49.233  1.00  0.00     0.298 C 
HETATM   19  C14 UNL     1      25.637   7.287  50.377  1.00  0.00     0.198 C 
HETATM   20  O2  UNL     1      24.544   6.985  51.207  1.00  0.00    -0.388 OA
HETATM   21  C15 UNL     1      23.333   7.220  50.552  1.00  0.00     0.198 C 
HETATM   22  C16 UNL     1      23.496   7.080  49.058  1.00  0.00     0.298 C 
ENDBRANCH  16  17
ENDBRANCH  15  16
ENDBRANCH  14  15
ENDBRANCH  13  14
ENDBRANCH   4  13
BRANCH   1  23
HETATM   23  N1  UNL     1      24.973   0.710  54.217  1.00  0.00    -0.343 N 
HETATM   24  H4  UNL     1      24.562   0.864  55.148  1.00  0.00     0.167 HD
BRANCH  23  25
HETATM   25  C5  UNL     1      26.366   0.723  53.955  1.00  0.00     0.036 A 
HETATM   26  C4  UNL     1      26.970   1.945  53.833  1.00  0.00     0.029 A 
HETATM   27  C3  UNL     1      28.309   2.111  53.582  1.00  0.00     0.005 A 
HETATM   28  C2  UNL     1      29.038   0.960  53.456  1.00  0.00     0.042 A 
HETATM   29  C1  UNL     1      28.449  -0.278  53.577  1.00  0.00     0.118 A 
HETATM   30  F1  UNL     1      29.236  -1.389  53.440  1.00  0.00    -0.206 F 
HETATM   31  C22 UNL     1      27.094  -0.433  53.830  1.00  0.00     0.071 A 
ENDBRANCH  23  25
ENDBRANCH   1  23
TORSDOF 7
ENDMDL
MODEL 7
REMARK VINA RESULT:      -7.3      3.133      5.573
REMARK  7 active torsions:
REMARK  status: ('A' for Active; 'I' for Inactive)
REMARK    1  A    between atoms: C5_6  and  N1_7 
REMARK    2  A    between atoms: N1_7  and  C6_8 
REMARK    3  A    between atoms: C9_11  and  O1_12 
REMARK    4  A    between atoms: O1_12  and  C10_13 
REMARK    5  A    between atoms: C10_13  and  C11_14 
REMARK    6  A    between atoms: C11_14  and  C12_15 
REMARK    7  A    between atoms: C12_15  and  N2_16 
ROOT
HETATM    1  C6  UNL     1      23.581   1.414  52.299  1.00  0.00     0.123 C 
HETATM    2  C7  UNL     1      23.543   2.641  51.857  1.00  0.00     0.095 A 
HETATM    3  C8  UNL     1      22.921   3.144  50.537  1.00  0.00     0.012 A 
HETATM    4  C9  UNL     1      23.788   3.997  50.934  1.00  0.00     0.130 A 
HETATM    5  C17 UNL     1      22.733   4.084  52.021  1.00  0.00     0.109 A 
HETATM    6  C18 UNL     1      23.459   4.953  52.632  1.00  0.00    -0.009 A 
HETATM    7  C19 UNL     1      24.118   3.580  52.940  1.00  0.00     0.089 A 
HETATM    8  O3  UNL     1      21.552   3.768  52.637  1.00  0.00    -0.328 OA
HETATM    9  C20 UNL     1      20.528   3.036  52.058  1.00  0.00     0.425 C 
HETATM   10  N3  UNL     1      20.470   1.895  51.450  1.00  0.00    -0.362 NA
HETATM   11  C21 UNL     1      21.560   1.014  51.194  1.00  0.00     0.200 C 
HETATM   12  N4  UNL     1      22.818   0.611  51.376  1.00  0.00    -0.230 NA
ENDROOT
BRANCH   4  13
HETATM   13  O1  UNL     1      25.002   4.522  50.552  1.00  0.00    -0.371 OA
BRANCH  13  14
HETATM   14  C10 UNL     1      25.790   3.983  49.519  1.00  0.00     0.171 C 
BRANCH  14  15
HETATM   15  C11 UNL     1      26.757   4.989  48.943  1.00  0.00     0.056 C 
BRANCH  15  16
HETATM   16  C12 UNL     1      26.204   6.344  49.327  1.00  0.00     0.274 C 
BRANCH  16  17
HETATM   17  N2  UNL     1      26.596   7.361  48.385  1.00  0.00     0.092 N 
HETATM   18  C13 UNL     1      28.022   7.635  48.506  1.00  0.00     0.298 C 
HETATM   19  C14 UNL     1      28.213   8.917  49.267  1.00  0.00     0.198 C 
HETATM   20  O2  UNL     1      27.310   9.024  50.338  1.00  0.00    -0.388 OA
HETATM   21  C15 UNL     1      26.001   9.192  49.880  1.00  0.00     0.198 C 
HETATM   22  C16 UNL     1      25.830   8.576  48.513  1.00  0.00     0.298 C 
ENDBRANCH  16  17
ENDBRANCH  15  16
ENDBRANCH  14  15
ENDBRANCH  13  14
ENDBRANCH   4  13
BRANCH   1  23
HETATM   23  N1  UNL     1      24.075   0.718  53.418  1.00  0.00    -0.343 N 
HETATM   24  H4  UNL     1      23.372   0.581  54.158  1.00  0.00     0.167 HD
BRANCH  23  25
HETATM   25  C5  UNL     1      25.413   0.257  53.503  1.00  0.00     0.036 A 
HETATM   26  C4  UNL     1      25.787  -0.742  52.645  1.00  0.00     0.029 A 
HETATM   27  C3  UNL     1      27.047  -1.283  52.612  1.00  0.00     0.005 A 
HETATM   28  C2  UNL     1      27.943  -0.761  53.505  1.00  0.00     0.042 A 
HETATM   29  C1  UNL     1      27.587   0.244  54.373  1.00  0.00     0.118 A 
HETATM   30  F1  UNL     1      28.532   0.721  55.240  1.00  0.00    -0.206 F 
HETATM   31  C22 UNL     1      26.309   0.783  54.398  1.00  0.00     0.071 A 
ENDBRANCH  23  25
ENDBRANCH   1  23
TORSDOF 7
ENDMDL
MODEL 8
REMARK VINA RESULT:      -7.2      2.604      5.034
REMARK  7 active torsions:
REMARK  status: ('A' for Active; 'I' for Inactive)
REMARK    1  A    between atoms: C5_6  and  N1_7 
REMARK    2  A    between atoms: N1_7  and  C6_8 
REMARK    3  A    between atoms: C9_11  and  O1_12 
REMARK    4  A    between atoms: O1_12  and  C10_13 
REMARK    5  A    between atoms: C10_13  and  C11_14 
REMARK    6  A    between atoms: C11_14  and  C12_15 
REMARK    7  A    between atoms: C12_15  and  N2_16 
ROOT
HETATM    1  C6  UNL     1      21.968   3.580  50.510  1.00  0.00     0.123 C 
HETATM    2  C7  UNL     1      21.783   2.421  51.082  1.00  0.00     0.095 A 
HETATM    3  C8  UNL     1      21.223   2.151  52.495  1.00  0.00     0.012 A 
HETATM    4  C9  UNL     1      21.904   1.135  52.122  1.00  0.00     0.130 A 
HETATM    5  C17 UNL     1      20.748   1.122  51.141  1.00  0.00     0.109 A 
HETATM    6  C18 UNL     1      21.267   0.092  50.569  1.00  0.00    -0.009 A 
HETATM    7  C19 UNL     1      22.098   1.305  50.063  1.00  0.00     0.089 A 
HETATM    8  O3  UNL     1      19.575   1.569  50.593  1.00  0.00    -0.328 OA
HETATM    9  C20 UNL     1      18.739   2.509  51.172  1.00  0.00     0.425 C 
HETATM   10  N3  UNL     1      18.918   3.695  51.657  1.00  0.00    -0.362 NA
HETATM   11  C21 UNL     1      20.151   4.406  51.727  1.00  0.00     0.200 C 
HETATM   12  N4  UNL     1      21.433   4.579  51.401  1.00  0.00    -0.230 NA
ENDROOT
BRANCH   4  13
HETATM   13  O1  UNL     1      23.054   0.456  52.457  1.00  0.00    -0.371 OA
BRANCH  13  14
HETATM   14  C10 UNL     1      24.044   0.978  53.310  1.00  0.00     0.171 C 
BRANCH  14  15
HETATM   15  C11 UNL     1      25.035   1.852  52.580  1.00  0.00     0.056 C 
BRANCH  15  16
HETATM   16  C12 UNL     1      26.259   1.898  53.469  1.00  0.00     0.274 C 
BRANCH  16  17
HETATM   17  N2  UNL     1      27.417   1.361  52.801  1.00  0.00     0.092 N 
HETATM   18  C13 UNL     1      27.085   0.094  52.161  1.00  0.00     0.298 C 
HETATM   19  C14 UNL     1      27.617  -1.034  53.001  1.00  0.00     0.198 C 
HETATM   20  O2  UNL     1      27.440  -0.788  54.373  1.00  0.00    -0.388 OA
HETATM   21  C15 UNL     1      28.254   0.260  54.807  1.00  0.00     0.198 C 
HETATM   22  C16 UNL     1      28.555   1.209  53.673  1.00  0.00     0.298 C 
ENDBRANCH  16  17
ENDBRANCH  15  16
ENDBRANCH  14  15
ENDBRANCH  13  14
ENDBRANCH   4  13
BRANCH   1  23
HETATM   23  N1  UNL     1      22.451   4.078  49.286  1.00  0.00    -0.343 N 
HETATM   24  H4  UNL     1      21.767   4.013  48.519  1.00  0.00     0.167 HD
BRANCH  23  25
HETATM   25  C5  UNL     1      23.756   4.614  49.140  1.00  0.00     0.036 A 
HETATM   26  C4  UNL     1      23.858   5.893  48.662  1.00  0.00     0.029 A 
HETATM   27  C3  UNL     1      25.052   6.541  48.472  1.00  0.00     0.005 A 
HETATM   28  C2  UNL     1      26.174   5.827  48.795  1.00  0.00     0.042 A 
HETATM   29  C1  UNL     1      26.092   4.542  49.278  1.00  0.00     0.118 A 
HETATM   30  F1  UNL     1      27.254   3.885  49.582  1.00  0.00    -0.206 F 
HETATM   31  C22 UNL     1      24.879   3.897  49.465  1.00  0.00     0.071 A 
ENDBRANCH  23  25
ENDBRANCH   1  23
TORSDOF 7
ENDMDL
MODEL 9
REMARK VINA RESULT:      -7.2      3.421      6.125
REMARK  7 active torsions:
REMARK  status: ('A' for Active; 'I' for Inactive)
REMARK    1  A    between atoms: C5_6  and  N1_7 
REMARK    2  A    between atoms: N1_7  and  C6_8 
REMARK    3  A    between atoms: C9_11  and  O1_12 
REMARK    4  A    between atoms: O1_12  and  C10_13 
REMARK    5  A    between atoms: C10_13  and  C11_14 
REMARK    6  A    between atoms: C11_14  and  C12_15 
REMARK    7  A    between atoms: C12_15  and  N2_16 
ROOT
HETATM    1  C6  UNL     1      23.360   4.014  50.578  1.00  0.00     0.123 C 
HETATM    2  C7  UNL     1      22.374   3.816  49.746  1.00  0.00     0.095 A 
HETATM    3  C8  UNL     1      20.878   4.117  49.977  1.00  0.00     0.012 A 
HETATM    4  C9  UNL     1      20.983   3.238  49.054  1.00  0.00     0.130 A 
HETATM    5  C17 UNL     1      21.619   4.456  48.410  1.00  0.00     0.109 A 
HETATM    6  C18 UNL     1      21.864   3.751  47.361  1.00  0.00    -0.009 A 
HETATM    7  C19 UNL     1      22.948   3.337  48.396  1.00  0.00     0.089 A 
HETATM    8  O3  UNL     1      22.031   5.760  48.351  1.00  0.00    -0.328 OA
HETATM    9  C20 UNL     1      21.678   6.743  49.261  1.00  0.00     0.425 C 
HETATM   10  N3  UNL     1      21.718   6.830  50.552  1.00  0.00    -0.362 NA
HETATM   11  C21 UNL     1      22.181   5.831  51.456  1.00  0.00     0.200 C 
HETATM   12  N4  UNL     1      22.812   4.689  51.728  1.00  0.00    -0.230 NA
ENDROOT
BRANCH   4  13
HETATM   13  O1  UNL     1      20.672   1.918  48.814  1.00  0.00    -0.371 OA
BRANCH  13  14
HETATM   14  C10 UNL     1      20.111   1.065  49.782  1.00  0.00     0.171 C 
BRANCH  14  15
HETATM   15  C11 UNL     1      21.152   0.453  50.688  1.00  0.00     0.056 C 
BRANCH  15  16
HETATM   16  C12 UNL     1      20.453   0.235  52.012  1.00  0.00     0.274 C 
BRANCH  16  17
HETATM   17  N2  UNL     1      21.161   0.870  53.094  1.00  0.00     0.092 N 
HETATM   18  C13 UNL     1      22.594   0.868  52.827  1.00  0.00     0.298 C 
HETATM   19  C14 UNL     1      23.245  -0.210  53.647  1.00  0.00     0.198 C 
HETATM   20  O2  UNL     1      22.462  -1.377  53.686  1.00  0.00    -0.388 OA
HETATM   21  C15 UNL     1      21.289  -1.173  54.416  1.00  0.00     0.198 C 
HETATM   22  C16 UNL     1      20.881   0.279  54.379  1.00  0.00     0.298 C 
ENDBRANCH  16  17
ENDBRANCH  15  16
ENDBRANCH  14  15
ENDBRANCH  13  14
ENDBRANCH   4  13
BRANCH   1  23
HETATM   23  N1  UNL     1      24.755   3.825  50.613  1.00  0.00    -0.343 N 
HETATM   24  H4  UNL     1      25.047   3.052  51.226  1.00  0.00     0.167 HD
BRANCH  23  25
HETATM   25  C5  UNL     1      25.654   4.629  49.867  1.00  0.00     0.036 A 
HETATM   26  C4  UNL     1      25.328   5.948  49.704  1.00  0.00     0.029 A 
HETATM   27  C3  UNL     1      26.103   6.843  49.010  1.00  0.00     0.005 A 
HETATM   28  C2  UNL     1      27.256   6.340  48.472  1.00  0.00     0.042 A 
HETATM   29  C1  UNL     1      27.601   5.017  48.627  1.00  0.00     0.118 A 
HETATM   30  F1  UNL     1      28.769   4.579  48.062  1.00  0.00    -0.206 F 
HETATM   31  C22 UNL     1      26.809   4.121  49.330  1.00  0.00     0.071 A 
ENDBRANCH  23  25
ENDBRANCH   1  23
TORSDOF 7
ENDMDL
