MODEL 1
REMARK VINA RESULT:      -8.3      0.000      0.000
REMARK  2 active torsions:
REMARK  status: ('A' for Active; 'I' for Inactive)
REMARK    1  A    between atoms: C7_10  and  N3_11 
REMARK    2  A    between atoms: N3_11  and  C8_12 
ROOT
HETATM    1  F1  UNL     1      26.386  -2.799  51.429  1.00  0.00    -0.206 F 
HETATM    2  C1  UNL     1      26.996  -1.973  52.310  1.00  0.00     0.120 C 
HETATM    3  C2  UNL     1      28.054  -2.463  53.041  1.00  0.00     0.056 C 
HETATM    4  C3  UNL     1      29.117  -1.610  53.218  1.00  0.00    -0.002 A 
HETATM    5  C4  UNL     1      30.114  -0.672  53.498  1.00  0.00     0.046 A 
HETATM    6  C5  UNL     1      28.857  -0.586  54.198  1.00  0.00     0.069 A 
HETATM    7  N1  UNL     1      27.994  -0.049  55.081  1.00  0.00    -0.241 NA
HETATM    8  C6  UNL     1      27.127   0.943  54.724  1.00  0.00     0.235 C 
HETATM    9  N2  UNL     1      26.617   1.426  53.553  1.00  0.00    -0.224 NA
HETATM   10  C7  UNL     1      26.126   0.620  52.615  1.00  0.00     0.131 C 
HETATM   11  C14 UNL     1      26.559  -0.678  52.464  1.00  0.00     0.092 C 
ENDROOT
BRANCH  10  12
HETATM   12  N3  UNL     1      25.125   1.018  51.695  1.00  0.00    -0.350 N 
HETATM   13  H4  UNL     1      25.094   0.780  50.684  1.00  0.00     0.166 HD
BRANCH  12  14
HETATM   14  C8  UNL     1      23.947   1.772  51.739  1.00  0.00     0.101 C 
HETATM   15  C9  UNL     1      22.825   1.398  52.332  1.00  0.00    -0.017 A 
HETATM   16  C10 UNL     1      21.630   2.241  52.337  1.00  0.00     0.030 A 
HETATM   17  C13 UNL     1      22.702   0.121  53.022  1.00  0.00     0.055 A 
HETATM   18  C11 UNL     1      20.497   1.904  52.914  1.00  0.00     0.090 A 
HETATM   19  N4  UNL     1      20.460   0.633  53.571  1.00  0.00    -0.357 N 
HETATM   20  C12 UNL     1      21.568  -0.254  53.620  1.00  0.00     0.104 A 
HETATM   21  H8  UNL     1      19.583   0.325  54.042  1.00  0.00     0.166 HD
HETATM   22 CL1  UNL     1      21.450  -1.802  54.444  1.00  0.00    -0.065 Cl
ENDBRANCH  12  14
ENDBRANCH  10  12
TORSDOF 2
ENDMDL
MODEL 2
REMARK VINA RESULT:      -8.2      2.377      6.237
REMARK  2 active torsions:
REMARK  status: ('A' for Active; 'I' for Inactive)
REMARK    1  A    between atoms: C7_10  and  N3_11 
REMARK    2  A    between atoms: N3_11  and  C8_12 
ROOT
HETATM    1  F1  UNL     1      24.902  -1.154  54.696  1.00  0.00    -0.206 F 
HETATM    2  C1  UNL     1      23.773  -0.718  54.091  1.00  0.00     0.120 C 
HETATM    3  C2  UNL     1      22.563  -1.187  54.549  1.00  0.00     0.056 C 
HETATM    4  C3  UNL     1      21.543  -0.269  54.622  1.00  0.00    -0.002 A 
HETATM    5  C4  UNL     1      20.495   0.652  54.549  1.00  0.00     0.046 A 
HETATM    6  C5  UNL     1      20.981   0.049  53.334  1.00  0.00     0.069 A 
HETATM    7  N1  UNL     1      20.998  -0.157  52.003  1.00  0.00    -0.241 NA
HETATM    8  C6  UNL     1      21.761   0.607  51.168  1.00  0.00     0.235 C 
HETATM    9  N2  UNL     1      22.842   1.430  51.305  1.00  0.00    -0.224 NA
HETATM   10  C7  UNL     1      23.915   1.070  52.003  1.00  0.00     0.131 C 
HETATM   11  C14 UNL     1      23.845   0.174  53.046  1.00  0.00     0.092 C 
ENDROOT
BRANCH  10  12
HETATM   12  N3  UNL     1      25.215   1.569  51.742  1.00  0.00    -0.350 N 
HETATM   13  H4  UNL     1      25.678   1.612  50.813  1.00  0.00     0.166 HD
BRANCH  12  14
HETATM   14  C8  UNL     1      26.259   2.123  52.491  1.00  0.00     0.101 C 
HETATM   15  C9  UNL     1      27.287   1.449  52.982  1.00  0.00    -0.017 A 
HETATM   16  C10 UNL     1      28.343   2.098  53.758  1.00  0.00     0.030 A 
HETATM   17  C13 UNL     1      27.437   0.014  52.782  1.00  0.00     0.055 A 
HETATM   18  C11 UNL     1      29.378   1.462  54.262  1.00  0.00     0.090 A 
HETATM   19  N4  UNL     1      29.451   0.053  54.021  1.00  0.00    -0.357 N 
HETATM   20  C12 UNL     1      28.475  -0.665  53.279  1.00  0.00     0.104 A 
HETATM   21  H8  UNL     1      30.254  -0.491  54.400  1.00  0.00     0.166 HD
HETATM   22 CL1  UNL     1      28.628  -2.396  53.022  1.00  0.00    -0.065 Cl
ENDBRANCH  12  14
ENDBRANCH  10  12
TORSDOF 2
ENDMDL
MODEL 3
REMARK VINA RESULT:      -8.1      3.023      3.889
REMARK  2 active torsions:
REMARK  status: ('A' for Active; 'I' for Inactive)
REMARK    1  A    between atoms: C7_10  and  N3_11 
REMARK    2  A    between atoms: N3_11  and  C8_12 
ROOT
HETATM    1  F1  UNL     1      26.421  -2.821  51.481  1.00  0.00    -0.206 F 
HETATM    2  C1  UNL     1      27.024  -1.982  52.354  1.00  0.00     0.120 C 
HETATM    3  C2  UNL     1      28.123  -2.438  53.045  1.00  0.00     0.056 C 
HETATM    4  C3  UNL     1      29.157  -1.545  53.201  1.00  0.00    -0.002 A 
HETATM    5  C4  UNL     1      30.124  -0.572  53.464  1.00  0.00     0.046 A 
HETATM    6  C5  UNL     1      28.887  -0.545  54.203  1.00  0.00     0.069 A 
HETATM    7  N1  UNL     1      28.031  -0.055  55.119  1.00  0.00    -0.241 NA
HETATM    8  C6  UNL     1      27.115   0.906  54.803  1.00  0.00     0.235 C 
HETATM    9  N2  UNL     1      26.550   1.383  53.655  1.00  0.00    -0.224 NA
HETATM   10  C7  UNL     1      26.062   0.570  52.722  1.00  0.00     0.131 C 
HETATM   11  C14 UNL     1      26.542  -0.707  52.539  1.00  0.00     0.092 C 
ENDROOT
BRANCH  10  12
HETATM   12  N3  UNL     1      25.018   0.939  51.838  1.00  0.00    -0.350 N 
HETATM   13  H4  UNL     1      24.654   0.368  51.050  1.00  0.00     0.166 HD
BRANCH  12  14
HETATM   14  C8  UNL     1      24.170   2.040  51.671  1.00  0.00     0.101 C 
HETATM   15  C9  UNL     1      24.459   3.124  50.969  1.00  0.00    -0.017 A 
HETATM   16  C10 UNL     1      23.521   4.238  50.839  1.00  0.00     0.030 A 
HETATM   17  C13 UNL     1      25.730   3.282  50.276  1.00  0.00     0.055 A 
HETATM   18  C11 UNL     1      23.770   5.331  50.151  1.00  0.00     0.090 A 
HETATM   19  N4  UNL     1      25.043   5.407  49.500  1.00  0.00    -0.357 N 
HETATM   20  C12 UNL     1      26.018   4.376  49.567  1.00  0.00     0.104 A 
HETATM   21  H8  UNL     1      25.283   6.254  48.943  1.00  0.00     0.166 HD
HETATM   22 CL1  UNL     1      27.562   4.539  48.743  1.00  0.00    -0.065 Cl
ENDBRANCH  12  14
ENDBRANCH  10  12
TORSDOF 2
ENDMDL
MODEL 4
REMARK VINA RESULT:      -7.9      5.260      6.698
REMARK  2 active torsions:
REMARK  status: ('A' for Active; 'I' for Inactive)
REMARK    1  A    between atoms: C7_10  and  N3_11 
REMARK    2  A    between atoms: N3_11  and  C8_12 
ROOT
HETATM    1  F1  UNL     1      22.957   1.541  51.215  1.00  0.00    -0.206 F 
HETATM    2  C1  UNL     1      24.080   1.347  51.945  1.00  0.00     0.120 C 
HETATM    3  C2  UNL     1      24.001   0.555  53.067  1.00  0.00     0.056 C 
HETATM    4  C3  UNL     1      25.056  -0.299  53.284  1.00  0.00    -0.002 A 
HETATM    5  C4  UNL     1      26.205  -1.048  53.550  1.00  0.00     0.046 A 
HETATM    6  C5  UNL     1      26.227   0.373  53.788  1.00  0.00     0.069 A 
HETATM    7  N1  UNL     1      26.798   1.531  54.171  1.00  0.00    -0.241 NA
HETATM    8  C6  UNL     1      27.484   2.318  53.292  1.00  0.00     0.235 C 
HETATM    9  N2  UNL     1      27.548   2.448  51.935  1.00  0.00    -0.224 NA
HETATM   10  C7  UNL     1      26.453   2.514  51.182  1.00  0.00     0.131 C 
HETATM   11  C14 UNL     1      25.265   1.932  51.565  1.00  0.00     0.092 C 
ENDROOT
BRANCH  10  12
HETATM   12  N3  UNL     1      26.408   3.179  49.933  1.00  0.00    -0.350 N 
HETATM   13  H4  UNL     1      26.714   2.788  49.020  1.00  0.00     0.166 HD
BRANCH  12  14
HETATM   14  C8  UNL     1      26.000   4.434  49.465  1.00  0.00     0.101 C 
HETATM   15  C9  UNL     1      26.783   5.311  48.856  1.00  0.00    -0.017 A 
HETATM   16  C10 UNL     1      26.285   6.606  48.394  1.00  0.00     0.030 A 
HETATM   17  C13 UNL     1      28.192   5.046  48.604  1.00  0.00     0.055 A 
HETATM   18  C11 UNL     1      27.031   7.502  47.786  1.00  0.00     0.090 A 
HETATM   19  N4  UNL     1      28.406   7.165  47.577  1.00  0.00    -0.357 N 
HETATM   20  C12 UNL     1      28.980   5.932  47.990  1.00  0.00     0.104 A 
HETATM   21  H8  UNL     1      29.034   7.845  47.099  1.00  0.00     0.166 HD
HETATM   22 CL1  UNL     1      30.678   5.585  47.701  1.00  0.00    -0.065 Cl
ENDBRANCH  12  14
ENDBRANCH  10  12
TORSDOF 2
ENDMDL
MODEL 5
REMARK VINA RESULT:      -7.8      4.118      4.911
REMARK  2 active torsions:
REMARK  status: ('A' for Active; 'I' for Inactive)
REMARK    1  A    between atoms: C7_10  and  N3_11 
REMARK    2  A    between atoms: N3_11  and  C8_12 
ROOT
HETATM    1  F1  UNL     1      25.010  -0.366  52.221  1.00  0.00    -0.206 F 
HETATM    2  C1  UNL     1      26.219  -0.085  52.759  1.00  0.00     0.120 C 
HETATM    3  C2  UNL     1      26.803  -1.021  53.581  1.00  0.00     0.056 C 
HETATM    4  C3  UNL     1      28.158  -1.201  53.433  1.00  0.00    -0.002 A 
HETATM    5  C4  UNL     1      29.552  -1.254  53.356  1.00  0.00     0.046 A 
HETATM    6  C5  UNL     1      28.932  -0.137  54.022  1.00  0.00     0.069 A 
HETATM    7  N1  UNL     1      28.935   1.027  54.700  1.00  0.00    -0.241 NA
HETATM    8  C6  UNL     1      28.922   2.231  54.057  1.00  0.00     0.235 C 
HETATM    9  N2  UNL     1      28.594   2.672  52.807  1.00  0.00    -0.224 NA
HETATM   10  C7  UNL     1      27.466   2.306  52.205  1.00  0.00     0.131 C 
HETATM   11  C14 UNL     1      26.841   1.111  52.484  1.00  0.00     0.092 C 
ENDROOT
BRANCH  10  12
HETATM   12  N3  UNL     1      26.809   3.101  51.234  1.00  0.00    -0.350 N 
HETATM   13  H4  UNL     1      27.224   3.902  50.718  1.00  0.00     0.166 HD
BRANCH  12  14
HETATM   14  C8  UNL     1      25.539   3.146  50.648  1.00  0.00     0.101 C 
HETATM   15  C9  UNL     1      25.103   4.106  49.847  1.00  0.00    -0.017 A 
HETATM   16  C10 UNL     1      23.760   4.086  49.271  1.00  0.00     0.030 A 
HETATM   17  C13 UNL     1      25.932   5.247  49.484  1.00  0.00     0.055 A 
HETATM   18  C11 UNL     1      23.291   5.019  48.472  1.00  0.00     0.090 A 
HETATM   19  N4  UNL     1      24.169   6.107  48.165  1.00  0.00    -0.357 N 
HETATM   20  C12 UNL     1      25.490   6.213  48.676  1.00  0.00     0.104 A 
HETATM   21  H8  UNL     1      23.839   6.869  47.536  1.00  0.00     0.166 HD
HETATM   22 CL1  UNL     1      26.513   7.579  48.256  1.00  0.00    -0.065 Cl
ENDBRANCH  12  14
ENDBRANCH  10  12
TORSDOF 2
ENDMDL
MODEL 6
REMARK VINA RESULT:      -7.7      2.743      3.348
REMARK  2 active torsions:
REMARK  status: ('A' for Active; 'I' for Inactive)
REMARK    1  A    between atoms: C7_10  and  N3_11 
REMARK    2  A    between atoms: N3_11  and  C8_12 
ROOT
HETATM    1  F1  UNL     1      24.322   0.152  52.330  1.00  0.00    -0.206 F 
HETATM    2  C1  UNL     1      25.594   0.234  52.784  1.00  0.00     0.120 C 
HETATM    3  C2  UNL     1      26.072  -0.784  53.577  1.00  0.00     0.056 C 
HETATM    4  C3  UNL     1      27.367  -1.181  53.342  1.00  0.00    -0.002 A 
HETATM    5  C4  UNL     1      28.725  -1.460  53.175  1.00  0.00     0.046 A 
HETATM    6  C5  UNL     1      28.340  -0.256  53.867  1.00  0.00     0.069 A 
HETATM    7  N1  UNL     1      28.577   0.893  54.528  1.00  0.00    -0.241 NA
HETATM    8  C6  UNL     1      28.716   2.082  53.873  1.00  0.00     0.235 C 
HETATM    9  N2  UNL     1      28.381   2.569  52.642  1.00  0.00    -0.224 NA
HETATM   10  C7  UNL     1      27.171   2.390  52.120  1.00  0.00     0.131 C 
HETATM   11  C14 UNL     1      26.381   1.313  52.454  1.00  0.00     0.092 C 
ENDROOT
BRANCH  10  12
HETATM   12  N3  UNL     1      26.589   3.280  51.185  1.00  0.00    -0.350 N 
HETATM   13  H4  UNL     1      26.637   4.318  51.216  1.00  0.00     0.166 HD
BRANCH  12  14
HETATM   14  C8  UNL     1      25.828   3.169  50.015  1.00  0.00     0.101 C 
HETATM   15  C9  UNL     1      24.511   3.272  49.950  1.00  0.00    -0.017 A 
HETATM   16  C10 UNL     1      23.782   3.144  48.689  1.00  0.00     0.030 A 
HETATM   17  C13 UNL     1      23.695   3.521  51.131  1.00  0.00     0.055 A 
HETATM   18  C11 UNL     1      22.475   3.240  48.584  1.00  0.00     0.090 A 
HETATM   19  N4  UNL     1      21.746   3.485  49.792  1.00  0.00    -0.357 N 
HETATM   20  C12 UNL     1      22.365   3.625  51.063  1.00  0.00     0.104 A 
HETATM   21  H8  UNL     1      20.709   3.569  49.756  1.00  0.00     0.166 HD
HETATM   22 CL1  UNL     1      21.407   3.924  52.505  1.00  0.00    -0.065 Cl
ENDBRANCH  12  14
ENDBRANCH  10  12
TORSDOF 2
ENDMDL
MODEL 7
REMARK VINA RESULT:      -7.7      3.057      6.649
REMARK  2 active torsions:
REMARK  status: ('A' for Active; 'I' for Inactive)
REMARK    1  A    between atoms: C7_10  and  N3_11 
REMARK    2  A    between atoms: N3_11  and  C8_12 
ROOT
HETATM    1  F1  UNL     1      27.063   2.759  51.241  1.00  0.00    -0.206 F 
HETATM    2  C1  UNL     1      25.722   2.795  51.062  1.00  0.00     0.120 C 
HETATM    3  C2  UNL     1      25.208   3.687  50.151  1.00  0.00     0.056 C 
HETATM    4  C3  UNL     1      24.175   3.230  49.367  1.00  0.00    -0.002 A 
HETATM    5  C4  UNL     1      23.038   2.781  48.691  1.00  0.00     0.046 A 
HETATM    6  C5  UNL     1      22.922   3.164  50.076  1.00  0.00     0.069 A 
HETATM    7  N1  UNL     1      22.255   3.361  51.229  1.00  0.00    -0.241 NA
HETATM    8  C6  UNL     1      22.122   2.371  52.159  1.00  0.00     0.235 C 
HETATM    9  N2  UNL     1      22.758   1.195  52.439  1.00  0.00    -0.224 NA
HETATM   10  C7  UNL     1      24.084   1.110  52.495  1.00  0.00     0.131 C 
HETATM   11  C14 UNL     1      24.904   1.954  51.780  1.00  0.00     0.092 C 
ENDROOT
BRANCH  10  12
HETATM   12  N3  UNL     1      24.768   0.153  53.285  1.00  0.00    -0.350 N 
HETATM   13  H4  UNL     1      24.658   0.014  54.308  1.00  0.00     0.166 HD
BRANCH  12  14
HETATM   14  C8  UNL     1      25.723  -0.846  53.068  1.00  0.00     0.101 C 
HETATM   15  C9  UNL     1      27.023  -0.715  53.276  1.00  0.00    -0.017 A 
HETATM   16  C10 UNL     1      27.964  -1.807  53.026  1.00  0.00     0.030 A 
HETATM   17  C13 UNL     1      27.607   0.524  53.769  1.00  0.00     0.055 A 
HETATM   18  C11 UNL     1      29.261  -1.715  53.220  1.00  0.00     0.090 A 
HETATM   19  N4  UNL     1      29.755  -0.463  53.706  1.00  0.00    -0.357 N 
HETATM   20  C12 UNL     1      28.920   0.654  53.978  1.00  0.00     0.104 A 
HETATM   21  H8  UNL     1      30.776  -0.345  53.874  1.00  0.00     0.166 HD
HETATM   22 CL1  UNL     1      29.596   2.163  54.573  1.00  0.00    -0.065 Cl
ENDBRANCH  12  14
ENDBRANCH  10  12
TORSDOF 2
ENDMDL
MODEL 8
REMARK VINA RESULT:      -7.5      3.624      6.005
REMARK  2 active torsions:
REMARK  status: ('A' for Active; 'I' for Inactive)
REMARK    1  A    between atoms: C7_10  and  N3_11 
REMARK    2  A    between atoms: N3_11  and  C8_12 
ROOT
HETATM    1  F1  UNL     1      26.793   2.493  49.401  1.00  0.00    -0.206 F 
HETATM    2  C1  UNL     1      25.921   3.468  49.747  1.00  0.00     0.120 C 
HETATM    3  C2  UNL     1      26.215   4.764  49.393  1.00  0.00     0.056 C 
HETATM    4  C3  UNL     1      25.162   5.528  48.947  1.00  0.00    -0.002 A 
HETATM    5  C4  UNL     1      24.050   6.313  48.636  1.00  0.00     0.046 A 
HETATM    6  C5  UNL     1      24.299   5.969  50.013  1.00  0.00     0.069 A 
HETATM    7  N1  UNL     1      24.036   5.979  51.334  1.00  0.00    -0.241 NA
HETATM    8  C6  UNL     1      23.238   5.035  51.913  1.00  0.00     0.235 C 
HETATM    9  N2  UNL     1      22.795   3.787  51.582  1.00  0.00    -0.224 NA
HETATM   10  C7  UNL     1      23.616   2.849  51.119  1.00  0.00     0.131 C 
HETATM   11  C14 UNL     1      24.770   3.159  50.435  1.00  0.00     0.092 C 
ENDROOT
BRANCH  10  12
HETATM   12  N3  UNL     1      23.384   1.462  51.284  1.00  0.00    -0.350 N 
HETATM   13  H4  UNL     1      23.570   0.722  50.578  1.00  0.00     0.166 HD
BRANCH  12  14
HETATM   14  C8  UNL     1      22.889   0.628  52.294  1.00  0.00     0.101 C 
HETATM   15  C9  UNL     1      23.613   0.098  53.267  1.00  0.00    -0.017 A 
HETATM   16  C10 UNL     1      23.026  -0.766  54.289  1.00  0.00     0.030 A 
HETATM   17  C13 UNL     1      25.044   0.342  53.387  1.00  0.00     0.055 A 
HETATM   18  C11 UNL     1      23.712  -1.311  55.271  1.00  0.00     0.090 A 
HETATM   19  N4  UNL     1      25.113  -1.022  55.318  1.00  0.00    -0.357 N 
HETATM   20  C12 UNL     1      25.773  -0.193  54.371  1.00  0.00     0.104 A 
HETATM   21  H8  UNL     1      25.695  -1.431  56.079  1.00  0.00     0.166 HD
HETATM   22 CL1  UNL     1      27.498   0.117  54.490  1.00  0.00    -0.065 Cl
ENDBRANCH  12  14
ENDBRANCH  10  12
TORSDOF 2
ENDMDL
MODEL 9
REMARK VINA RESULT:      -7.5      2.906      7.220
REMARK  2 active torsions:
REMARK  status: ('A' for Active; 'I' for Inactive)
REMARK    1  A    between atoms: C7_10  and  N3_11 
REMARK    2  A    between atoms: N3_11  and  C8_12 
ROOT
HETATM    1  F1  UNL     1      23.023   3.464  52.334  1.00  0.00    -0.206 F 
HETATM    2  C1  UNL     1      22.252   2.378  52.569  1.00  0.00     0.120 C 
HETATM    3  C2  UNL     1      20.887   2.507  52.448  1.00  0.00     0.056 C 
HETATM    4  C3  UNL     1      20.227   1.459  51.852  1.00  0.00    -0.002 A 
HETATM    5  C4  UNL     1      19.575   0.320  51.375  1.00  0.00     0.046 A 
HETATM    6  C5  UNL     1      20.087   0.318  52.722  1.00  0.00     0.069 A 
HETATM    7  N1  UNL     1      20.318  -0.225  53.932  1.00  0.00    -0.241 NA
HETATM    8  C6  UNL     1      21.446  -0.949  54.190  1.00  0.00     0.235 C 
HETATM    9  N2  UNL     1      22.680  -1.079  53.619  1.00  0.00    -0.224 NA
HETATM   10  C7  UNL     1      23.405  -0.023  53.264  1.00  0.00     0.131 C 
HETATM   11  C14 UNL     1      22.828   1.179  52.918  1.00  0.00     0.092 C 
ENDROOT
BRANCH  10  12
HETATM   12  N3  UNL     1      24.820  -0.035  53.207  1.00  0.00    -0.350 N 
HETATM   13  H4  UNL     1      25.443   0.793  53.297  1.00  0.00     0.166 HD
BRANCH  12  14
HETATM   14  C8  UNL     1      25.822  -0.997  53.036  1.00  0.00     0.101 C 
HETATM   15  C9  UNL     1      27.112  -0.801  53.254  1.00  0.00    -0.017 A 
HETATM   16  C10 UNL     1      28.104  -1.857  53.052  1.00  0.00     0.030 A 
HETATM   17  C13 UNL     1      27.634   0.480  53.711  1.00  0.00     0.055 A 
HETATM   18  C11 UNL     1      29.393  -1.700  53.258  1.00  0.00     0.090 A 
HETATM   19  N4  UNL     1      29.824  -0.411  53.707  1.00  0.00    -0.357 N 
HETATM   20  C12 UNL     1      28.937   0.675  53.931  1.00  0.00     0.104 A 
HETATM   21  H8  UNL     1      30.837  -0.242  53.883  1.00  0.00     0.166 HD
HETATM   22 CL1  UNL     1      29.537   2.233  54.481  1.00  0.00    -0.065 Cl
ENDBRANCH  12  14
ENDBRANCH  10  12
TORSDOF 2
ENDMDL
