MODEL 1
REMARK VINA RESULT:      -8.8      0.000      0.000
REMARK  2 active torsions:
REMARK  status: ('A' for Active; 'I' for Inactive)
REMARK    1  A    between atoms: C11_14  and  N2_15 
REMARK    2  A    between atoms: N2_15  and  C12_16 
ROOT
HETATM    1  C1  UNL     1      17.947   2.661  51.556  1.00  0.00     0.045 C 
HETATM    2  C2  UNL     1      18.917   1.866  51.689  1.00  0.00     0.049 C 
HETATM    3  C3  UNL     1      19.954   0.914  51.949  1.00  0.00     0.066 C 
HETATM    4  C4  UNL     1      21.111   0.370  51.483  1.00  0.00     0.082 C 
HETATM    5  C5  UNL     1      21.550   0.875  50.184  1.00  0.00     0.095 C 
HETATM    6  C6  UNL     1      22.532   1.959  50.173  1.00  0.00    -0.006 C 
HETATM    7  C7  UNL     1      23.122   2.371  51.259  1.00  0.00     0.001 C 
HETATM    8  C8  UNL     1      23.850   1.925  52.428  1.00  0.00     0.024 C 
HETATM    9  C9  UNL     1      24.548   2.954  52.841  1.00  0.00     0.050 C 
HETATM   10  C10 UNL     1      23.885   0.616  53.126  1.00  0.00     0.272 C 
HETATM   11  O1  UNL     1      24.995   0.546  53.628  1.00  0.00    -0.266 OA
HETATM   12  N1  UNL     1      22.788  -0.377  53.188  1.00  0.00    -0.225 N 
HETATM   13  O2  UNL     1      21.545  -0.539  52.456  1.00  0.00    -0.239 OA
HETATM   14  C11 UNL     1      22.887   3.775  51.145  1.00  0.00     0.065 C 
HETATM   15  C18 UNL     1      21.727   4.403  51.135  1.00  0.00     0.089 C 
HETATM   16  C19 UNL     1      21.835   5.822  50.997  1.00  0.00     0.103 C 
HETATM   17  N3  UNL     1      21.928   6.991  50.899  1.00  0.00    -0.191 NA
HETATM   18  C20 UNL     1      20.455   3.717  51.322  1.00  0.00     0.142 C 
HETATM   19  N4  UNL     1      20.167   2.525  51.487  1.00  0.00    -0.260 NA
HETATM   20  H9  UNL     1      23.096  -1.014  53.948  1.00  0.00     0.198 HD
ENDROOT
BRANCH  14  21
HETATM   21  N2  UNL     1      24.197   4.237  51.118  1.00  0.00    -0.354 N 
HETATM   22  H10 UNL     1      24.345   4.262  52.179  1.00  0.00     0.166 HD
BRANCH  21  23
HETATM   23  C12 UNL     1      25.241   4.667  50.279  1.00  0.00     0.033 A 
HETATM   24  C13 UNL     1      26.244   3.908  49.735  1.00  0.00     0.029 A 
HETATM   25  C14 UNL     1      27.248   4.358  48.910  1.00  0.00     0.004 A 
HETATM   26  C15 UNL     1      27.185   5.708  48.641  1.00  0.00     0.019 A 
HETATM   27  C16 UNL     1      26.220   6.541  49.140  1.00  0.00     0.013 A 
HETATM   28 BR1  UNL     1      26.223   8.404  48.704  1.00  0.00    -0.051 Br
HETATM   29  C17 UNL     1      25.254   6.017  49.956  1.00  0.00     0.048 A 
ENDBRANCH  21  23
ENDBRANCH  14  21
TORSDOF 2
ENDMDL
MODEL 2
REMARK VINA RESULT:      -8.7      2.145      3.883
REMARK  2 active torsions:
REMARK  status: ('A' for Active; 'I' for Inactive)
REMARK    1  A    between atoms: C11_14  and  N2_15 
REMARK    2  A    between atoms: N2_15  and  C12_16 
ROOT
HETATM    1  C1  UNL     1      22.687  -0.956  54.066  1.00  0.00     0.045 C 
HETATM    2  C2  UNL     1      21.921  -0.365  53.256  1.00  0.00     0.049 C 
HETATM    3  C3  UNL     1      21.001   0.182  52.305  1.00  0.00     0.066 C 
HETATM    4  C4  UNL     1      20.485   1.329  51.786  1.00  0.00     0.082 C 
HETATM    5  C5  UNL     1      20.987   2.560  52.393  1.00  0.00     0.095 C 
HETATM    6  C6  UNL     1      22.098   3.241  51.729  1.00  0.00    -0.006 C 
HETATM    7  C7  UNL     1      22.539   2.871  50.561  1.00  0.00     0.001 C 
HETATM    8  C8  UNL     1      22.128   2.546  49.210  1.00  0.00     0.024 C 
HETATM    9  C9  UNL     1      23.182   2.726  48.453  1.00  0.00     0.050 C 
HETATM   10  C10 UNL     1      20.829   2.085  48.661  1.00  0.00     0.272 C 
HETATM   11  O1  UNL     1      20.796   2.501  47.515  1.00  0.00    -0.266 OA
HETATM   12  N1  UNL     1      19.806   1.286  49.374  1.00  0.00    -0.225 N 
HETATM   13  O2  UNL     1      19.601   0.945  50.770  1.00  0.00    -0.239 OA
HETATM   14  C11 UNL     1      23.935   2.773  50.848  1.00  0.00     0.065 C 
HETATM   15  C18 UNL     1      24.529   1.964  51.704  1.00  0.00     0.089 C 
HETATM   16  C19 UNL     1      25.949   2.122  51.764  1.00  0.00     0.103 C 
HETATM   17  N3  UNL     1      27.119   2.244  51.799  1.00  0.00    -0.191 NA
HETATM   18  C20 UNL     1      23.810   0.949  52.464  1.00  0.00     0.142 C 
HETATM   19  N4  UNL     1      22.612   0.644  52.521  1.00  0.00    -0.260 NA
HETATM   20  H9  UNL     1      19.187   0.964  48.606  1.00  0.00     0.198 HD
ENDROOT
BRANCH  14  21
HETATM   21  N2  UNL     1      24.433   3.701  49.942  1.00  0.00    -0.354 N 
HETATM   22  H10 UNL     1      24.305   3.103  49.063  1.00  0.00     0.166 HD
BRANCH  21  23
HETATM   23  C12 UNL     1      25.012   4.976  49.815  1.00  0.00     0.033 A 
HETATM   24  C13 UNL     1      24.522   6.169  50.277  1.00  0.00     0.029 A 
HETATM   25  C14 UNL     1      25.117   7.402  50.142  1.00  0.00     0.004 A 
HETATM   26  C15 UNL     1      26.319   7.368  49.470  1.00  0.00     0.019 A 
HETATM   27  C16 UNL     1      26.884   6.224  48.974  1.00  0.00     0.013 A 
HETATM   28 BR1  UNL     1      28.560   6.288  48.054  1.00  0.00    -0.051 Br
HETATM   29  C17 UNL     1      26.229   5.035  49.148  1.00  0.00     0.048 A 
ENDBRANCH  21  23
ENDBRANCH  14  21
TORSDOF 2
ENDMDL
MODEL 3
REMARK VINA RESULT:      -8.4      2.162      4.574
REMARK  2 active torsions:
REMARK  status: ('A' for Active; 'I' for Inactive)
REMARK    1  A    between atoms: C11_14  and  N2_15 
REMARK    2  A    between atoms: N2_15  and  C12_16 
ROOT
HETATM    1  C1  UNL     1      27.542  -0.053  52.690  1.00  0.00     0.045 C 
HETATM    2  C2  UNL     1      26.283   0.037  52.700  1.00  0.00     0.049 C 
HETATM    3  C3  UNL     1      24.852   0.004  52.695  1.00  0.00     0.066 C 
HETATM    4  C4  UNL     1      23.719   0.736  52.879  1.00  0.00     0.082 C 
HETATM    5  C5  UNL     1      23.941   2.128  53.266  1.00  0.00     0.095 C 
HETATM    6  C6  UNL     1      23.934   3.137  52.207  1.00  0.00    -0.006 C 
HETATM    7  C7  UNL     1      23.594   2.854  50.982  1.00  0.00     0.001 C 
HETATM    8  C8  UNL     1      22.574   2.217  50.175  1.00  0.00     0.024 C 
HETATM    9  C9  UNL     1      22.671   2.742  48.979  1.00  0.00     0.050 C 
HETATM   10  C10 UNL     1      21.574   1.169  50.499  1.00  0.00     0.272 C 
HETATM   11  O1  UNL     1      20.630   1.383  49.756  1.00  0.00    -0.266 OA
HETATM   12  N1  UNL     1      21.717   0.100  51.513  1.00  0.00    -0.225 N 
HETATM   13  O2  UNL     1      22.644  -0.119  52.609  1.00  0.00    -0.239 OA
HETATM   14  C11 UNL     1      24.709   3.412  50.286  1.00  0.00     0.065 C 
HETATM   15  C18 UNL     1      25.976   3.058  50.373  1.00  0.00     0.089 C 
HETATM   16  C19 UNL     1      26.853   3.827  49.545  1.00  0.00     0.103 C 
HETATM   17  N3  UNL     1      27.570   4.451  48.852  1.00  0.00    -0.191 NA
HETATM   18  C20 UNL     1      26.430   1.935  51.183  1.00  0.00     0.142 C 
HETATM   19  N4  UNL     1      25.831   1.147  51.925  1.00  0.00    -0.260 NA
HETATM   20  H9  UNL     1      20.947  -0.553  51.271  1.00  0.00     0.198 HD
ENDROOT
BRANCH  14  21
HETATM   21  N2  UNL     1      24.054   4.344  49.490  1.00  0.00    -0.354 N 
HETATM   22  H10 UNL     1      23.675   3.650  48.767  1.00  0.00     0.166 HD
BRANCH  21  23
HETATM   23  C12 UNL     1      23.792   5.714  49.314  1.00  0.00     0.033 A 
HETATM   24  C13 UNL     1      23.082   6.544  50.142  1.00  0.00     0.029 A 
HETATM   25  C14 UNL     1      22.849   7.885  49.946  1.00  0.00     0.004 A 
HETATM   26  C15 UNL     1      23.410   8.384  48.790  1.00  0.00     0.019 A 
HETATM   27  C16 UNL     1      24.134   7.629  47.906  1.00  0.00     0.013 A 
HETATM   28 BR1  UNL     1      24.870   8.421  46.328  1.00  0.00    -0.051 Br
HETATM   29  C17 UNL     1      24.321   6.300  48.172  1.00  0.00     0.048 A 
ENDBRANCH  21  23
ENDBRANCH  14  21
TORSDOF 2
ENDMDL
MODEL 4
REMARK VINA RESULT:      -8.2      3.611      6.087
REMARK  2 active torsions:
REMARK  status: ('A' for Active; 'I' for Inactive)
REMARK    1  A    between atoms: C11_14  and  N2_15 
REMARK    2  A    between atoms: N2_15  and  C12_16 
ROOT
HETATM    1  C1  UNL     1      20.560   6.062  48.108  1.00  0.00     0.045 C 
HETATM    2  C2  UNL     1      21.763   6.353  48.350  1.00  0.00     0.049 C 
HETATM    3  C3  UNL     1      23.135   6.736  48.499  1.00  0.00     0.066 C 
HETATM    4  C4  UNL     1      24.179   6.828  49.367  1.00  0.00     0.082 C 
HETATM    5  C5  UNL     1      23.879   6.419  50.737  1.00  0.00     0.095 C 
HETATM    6  C6  UNL     1      24.207   5.047  51.124  1.00  0.00    -0.006 C 
HETATM    7  C7  UNL     1      24.880   4.250  50.345  1.00  0.00     0.001 C 
HETATM    8  C8  UNL     1      26.078   4.149  49.537  1.00  0.00     0.024 C 
HETATM    9  C9  UNL     1      26.338   2.871  49.424  1.00  0.00     0.050 C 
HETATM   10  C10 UNL     1      26.925   5.187  48.899  1.00  0.00     0.272 C 
HETATM   11  O1  UNL     1      28.046   4.709  48.856  1.00  0.00    -0.266 OA
HETATM   12  N1  UNL     1      26.479   6.516  48.423  1.00  0.00    -0.225 N 
HETATM   13  O2  UNL     1      25.272   7.297  48.628  1.00  0.00    -0.239 OA
HETATM   14  C11 UNL     1      24.023   3.108  50.366  1.00  0.00     0.065 C 
HETATM   15  C18 UNL     1      22.778   3.024  49.938  1.00  0.00     0.089 C 
HETATM   16  C19 UNL     1      22.189   1.732  50.111  1.00  0.00     0.103 C 
HETATM   17  N3  UNL     1      21.713   0.663  50.242  1.00  0.00    -0.191 NA
HETATM   18  C20 UNL     1      22.091   4.127  49.279  1.00  0.00     0.142 C 
HETATM   19  N4  UNL     1      22.438   5.285  49.013  1.00  0.00    -0.260 NA
HETATM   20  H9  UNL     1      27.274   6.830  47.835  1.00  0.00     0.198 HD
ENDROOT
BRANCH  14  21
HETATM   21  N2  UNL     1      24.895   2.161  50.889  1.00  0.00    -0.354 N 
HETATM   22  H10 UNL     1      25.617   2.202  50.100  1.00  0.00     0.166 HD
BRANCH  21  23
HETATM   23  C12 UNL     1      25.099   1.256  51.946  1.00  0.00     0.033 A 
HETATM   24  C13 UNL     1      24.159   0.740  52.801  1.00  0.00     0.029 A 
HETATM   25  C14 UNL     1      24.390  -0.150  53.823  1.00  0.00     0.004 A 
HETATM   26  C15 UNL     1      25.711  -0.522  53.949  1.00  0.00     0.019 A 
HETATM   27  C16 UNL     1      26.715  -0.058  53.141  1.00  0.00     0.013 A 
HETATM   28 BR1  UNL     1      28.519  -0.639  53.403  1.00  0.00    -0.051 Br
HETATM   29  C17 UNL     1      26.404   0.828  52.146  1.00  0.00     0.048 A 
ENDBRANCH  21  23
ENDBRANCH  14  21
TORSDOF 2
ENDMDL
MODEL 5
REMARK VINA RESULT:      -8.0      7.464     10.800
REMARK  2 active torsions:
REMARK  status: ('A' for Active; 'I' for Inactive)
REMARK    1  A    between atoms: C11_14  and  N2_15 
REMARK    2  A    between atoms: N2_15  and  C12_16 
ROOT
HETATM    1  C1  UNL     1      30.478  11.971  48.920  1.00  0.00     0.045 C 
HETATM    2  C2  UNL     1      29.689  11.037  48.606  1.00  0.00     0.049 C 
HETATM    3  C3  UNL     1      28.718  10.016  48.357  1.00  0.00     0.066 C 
HETATM    4  C4  UNL     1      28.326   9.035  47.498  1.00  0.00     0.082 C 
HETATM    5  C5  UNL     1      29.148   8.904  46.297  1.00  0.00     0.095 C 
HETATM    6  C6  UNL     1      30.215   7.904  46.310  1.00  0.00    -0.006 C 
HETATM    7  C7  UNL     1      30.350   7.047  47.281  1.00  0.00     0.001 C 
HETATM    8  C8  UNL     1      29.636   6.076  48.085  1.00  0.00     0.024 C 
HETATM    9  C9  UNL     1      30.539   5.251  48.552  1.00  0.00     0.050 C 
HETATM   10  C10 UNL     1      28.194   5.935  48.407  1.00  0.00     0.272 C 
HETATM   11  O1  UNL     1      28.017   4.741  48.582  1.00  0.00    -0.266 OA
HETATM   12  N1  UNL     1      27.201   7.030  48.493  1.00  0.00    -0.225 N 
HETATM   13  O2  UNL     1      27.209   8.421  48.077  1.00  0.00    -0.239 OA
HETATM   14  C11 UNL     1      31.734   7.234  47.580  1.00  0.00     0.065 C 
HETATM   15  C18 UNL     1      32.326   8.330  48.014  1.00  0.00     0.089 C 
HETATM   16  C19 UNL     1      33.736   8.190  48.208  1.00  0.00     0.103 C 
HETATM   17  N3  UNL     1      34.894   8.068  48.382  1.00  0.00    -0.191 NA
HETATM   18  C20 UNL     1      31.596   9.549  48.337  1.00  0.00     0.142 C 
HETATM   19  N4  UNL     1      30.397   9.845  48.269  1.00  0.00    -0.260 NA
HETATM   20  H9  UNL     1      26.398   6.577  48.970  1.00  0.00     0.198 HD
ENDROOT
BRANCH  14  21
HETATM   21  N2  UNL     1      32.208   5.949  47.342  1.00  0.00    -0.354 N 
HETATM   22  H10 UNL     1      31.552   5.444  48.022  1.00  0.00     0.166 HD
BRANCH  21  23
HETATM   23  C12 UNL     1      33.161   5.196  46.635  1.00  0.00     0.033 A 
HETATM   24  C13 UNL     1      34.128   4.372  47.151  1.00  0.00     0.029 A 
HETATM   25  C14 UNL     1      35.044   3.641  46.431  1.00  0.00     0.004 A 
HETATM   26  C15 UNL     1      34.927   3.793  45.066  1.00  0.00     0.019 A 
HETATM   27  C16 UNL     1      33.993   4.593  44.464  1.00  0.00     0.013 A 
HETATM   28 BR1  UNL     1      33.917   4.733  42.558  1.00  0.00    -0.051 Br
HETATM   29  C17 UNL     1      33.116   5.290  45.251  1.00  0.00     0.048 A 
ENDBRANCH  21  23
ENDBRANCH  14  21
TORSDOF 2
ENDMDL
MODEL 6
REMARK VINA RESULT:      -8.0      3.630      7.172
REMARK  2 active torsions:
REMARK  status: ('A' for Active; 'I' for Inactive)
REMARK    1  A    between atoms: C11_14  and  N2_15 
REMARK    2  A    between atoms: N2_15  and  C12_16 
ROOT
HETATM    1  C1  UNL     1      27.267   1.094  52.263  1.00  0.00     0.045 C 
HETATM    2  C2  UNL     1      26.633   2.047  51.733  1.00  0.00     0.049 C 
HETATM    3  C3  UNL     1      26.001   3.213  51.195  1.00  0.00     0.066 C 
HETATM    4  C4  UNL     1      25.054   3.669  50.330  1.00  0.00     0.082 C 
HETATM    5  C5  UNL     1      24.357   2.630  49.575  1.00  0.00     0.095 C 
HETATM    6  C6  UNL     1      23.074   2.158  50.094  1.00  0.00    -0.006 C 
HETATM    7  C7  UNL     1      22.480   2.732  51.101  1.00  0.00     0.001 C 
HETATM    8  C8  UNL     1      22.050   4.012  51.623  1.00  0.00     0.024 C 
HETATM    9  C9  UNL     1      21.089   3.757  52.476  1.00  0.00     0.050 C 
HETATM   10  C10 UNL     1      22.516   5.394  51.348  1.00  0.00     0.272 C 
HETATM   11  O1  UNL     1      21.543   6.106  51.531  1.00  0.00    -0.266 OA
HETATM   12  N1  UNL     1      23.881   5.798  50.942  1.00  0.00    -0.225 N 
HETATM   13  O2  UNL     1      25.037   5.064  50.457  1.00  0.00    -0.239 OA
HETATM   14  C11 UNL     1      22.222   1.587  51.915  1.00  0.00     0.065 C 
HETATM   15  C18 UNL     1      23.101   0.771  52.463  1.00  0.00     0.089 C 
HETATM   16  C19 UNL     1      22.515  -0.292  53.219  1.00  0.00     0.103 C 
HETATM   17  N3  UNL     1      22.029  -1.158  53.852  1.00  0.00    -0.191 NA
HETATM   18  C20 UNL     1      24.540   0.979  52.370  1.00  0.00     0.142 C 
HETATM   19  N4  UNL     1      25.223   1.842  51.802  1.00  0.00    -0.260 NA
HETATM   20  H9  UNL     1      23.873   6.825  51.090  1.00  0.00     0.198 HD
ENDROOT
BRANCH  14  21
HETATM   21  N2  UNL     1      20.836   1.651  51.989  1.00  0.00    -0.354 N 
HETATM   22  H10 UNL     1      20.784   2.431  52.721  1.00  0.00     0.166 HD
BRANCH  21  23
HETATM   23  C12 UNL     1      19.639   1.082  51.520  1.00  0.00     0.033 A 
HETATM   24  C13 UNL     1      18.975   1.368  50.356  1.00  0.00     0.029 A 
HETATM   25  C14 UNL     1      17.807   0.787  49.921  1.00  0.00     0.004 A 
HETATM   26  C15 UNL     1      17.307  -0.167  50.780  1.00  0.00     0.019 A 
HETATM   27  C16 UNL     1      17.903  -0.517  51.962  1.00  0.00     0.013 A 
HETATM   28 BR1  UNL     1      17.123  -1.857  53.083  1.00  0.00    -0.051 Br
HETATM   29  C17 UNL     1      19.064   0.108  52.326  1.00  0.00     0.048 A 
ENDBRANCH  21  23
ENDBRANCH  14  21
TORSDOF 2
ENDMDL
MODEL 7
REMARK VINA RESULT:      -7.9      4.037      6.656
REMARK  2 active torsions:
REMARK  status: ('A' for Active; 'I' for Inactive)
REMARK    1  A    between atoms: C11_14  and  N2_15 
REMARK    2  A    between atoms: N2_15  and  C12_16 
ROOT
HETATM    1  C1  UNL     1      21.927   7.021  46.041  1.00  0.00     0.045 C 
HETATM    2  C2  UNL     1      23.053   7.229  46.572  1.00  0.00     0.049 C 
HETATM    3  C3  UNL     1      24.373   7.506  47.051  1.00  0.00     0.066 C 
HETATM    4  C4  UNL     1      25.165   7.586  48.155  1.00  0.00     0.082 C 
HETATM    5  C5  UNL     1      24.483   7.328  49.422  1.00  0.00     0.095 C 
HETATM    6  C6  UNL     1      24.555   5.973  49.968  1.00  0.00    -0.006 C 
HETATM    7  C7  UNL     1      25.317   5.055  49.447  1.00  0.00     0.001 C 
HETATM    8  C8  UNL     1      26.664   4.781  48.991  1.00  0.00     0.024 C 
HETATM    9  C9  UNL     1      26.807   3.480  49.032  1.00  0.00     0.050 C 
HETATM   10  C10 UNL     1      27.750   5.682  48.533  1.00  0.00     0.272 C 
HETATM   11  O1  UNL     1      28.788   5.108  48.817  1.00  0.00    -0.266 OA
HETATM   12  N1  UNL     1      27.583   6.996  47.871  1.00  0.00    -0.225 N 
HETATM   13  O2  UNL     1      26.453   7.892  47.701  1.00  0.00    -0.239 OA
HETATM   14  C11 UNL     1      24.366   3.997  49.315  1.00  0.00     0.065 C 
HETATM   15  C18 UNL     1      23.271   3.981  48.581  1.00  0.00     0.089 C 
HETATM   16  C19 UNL     1      22.524   2.765  48.676  1.00  0.00     0.103 C 
HETATM   17  N3  UNL     1      21.921   1.757  48.746  1.00  0.00    -0.191 NA
HETATM   18  C20 UNL     1      22.896   5.076  47.695  1.00  0.00     0.142 C 
HETATM   19  N4  UNL     1      23.419   6.171  47.456  1.00  0.00    -0.260 NA
HETATM   20  H9  UNL     1      28.531   7.187  47.494  1.00  0.00     0.198 HD
ENDROOT
BRANCH  14  21
HETATM   21  N2  UNL     1      24.971   3.030  50.109  1.00  0.00    -0.354 N 
HETATM   22  H10 UNL     1      25.846   2.898  49.506  1.00  0.00     0.166 HD
BRANCH  21  23
HETATM   23  C12 UNL     1      24.819   2.241  51.263  1.00  0.00     0.033 A 
HETATM   24  C13 UNL     1      23.711   2.130  52.063  1.00  0.00     0.029 A 
HETATM   25  C14 UNL     1      23.592   1.342  53.184  1.00  0.00     0.004 A 
HETATM   26  C15 UNL     1      24.727   0.618  53.478  1.00  0.00     0.019 A 
HETATM   27  C16 UNL     1      25.877   0.666  52.736  1.00  0.00     0.013 A 
HETATM   28 BR1  UNL     1      27.398  -0.381  53.234  1.00  0.00    -0.051 Br
HETATM   29  C17 UNL     1      25.917   1.476  51.634  1.00  0.00     0.048 A 
ENDBRANCH  21  23
ENDBRANCH  14  21
TORSDOF 2
ENDMDL
MODEL 8
REMARK VINA RESULT:      -7.5      5.972      9.648
REMARK  2 active torsions:
REMARK  status: ('A' for Active; 'I' for Inactive)
REMARK    1  A    between atoms: C11_14  and  N2_15 
REMARK    2  A    between atoms: N2_15  and  C12_16 
ROOT
HETATM    1  C1  UNL     1      32.433   5.201  48.236  1.00  0.00     0.045 C 
HETATM    2  C2  UNL     1      32.033   6.386  48.074  1.00  0.00     0.049 C 
HETATM    3  C3  UNL     1      31.681   7.770  47.973  1.00  0.00     0.066 C 
HETATM    4  C4  UNL     1      30.883   8.674  47.343  1.00  0.00     0.082 C 
HETATM    5  C5  UNL     1      30.010   8.114  46.314  1.00  0.00     0.095 C 
HETATM    6  C6  UNL     1      28.638   7.780  46.695  1.00  0.00    -0.006 C 
HETATM    7  C7  UNL     1      28.144   8.100  47.857  1.00  0.00     0.001 C 
HETATM    8  C8  UNL     1      27.975   9.197  48.787  1.00  0.00     0.024 C 
HETATM    9  C9  UNL     1      26.953   8.883  49.543  1.00  0.00     0.050 C 
HETATM   10  C10 UNL     1      28.731  10.461  48.966  1.00  0.00     0.272 C 
HETATM   11  O1  UNL     1      27.925  11.261  49.409  1.00  0.00    -0.266 OA
HETATM   12  N1  UNL     1      30.165  10.679  48.665  1.00  0.00    -0.225 N 
HETATM   13  O2  UNL     1      31.156   9.919  47.924  1.00  0.00    -0.239 OA
HETATM   14  C11 UNL     1      27.622   6.833  48.257  1.00  0.00     0.065 C 
HETATM   15  C18 UNL     1      28.288   5.715  48.473  1.00  0.00     0.089 C 
HETATM   16  C19 UNL     1      27.464   4.611  48.857  1.00  0.00     0.103 C 
HETATM   17  N3  UNL     1      26.785   3.708  49.187  1.00  0.00    -0.191 NA
HETATM   18  C20 UNL     1      29.742   5.635  48.400  1.00  0.00     0.142 C 
HETATM   19  N4  UNL     1      30.610   6.472  48.124  1.00  0.00    -0.260 NA
HETATM   20  H9  UNL     1      30.368  11.577  49.144  1.00  0.00     0.198 HD
ENDROOT
BRANCH  14  21
HETATM   21  N2  UNL     1      26.278   7.159  48.399  1.00  0.00    -0.354 N 
HETATM   22  H10 UNL     1      26.359   7.612  49.366  1.00  0.00     0.166 HD
BRANCH  21  23
HETATM   23  C12 UNL     1      25.010   7.068  47.798  1.00  0.00     0.033 A 
HETATM   24  C13 UNL     1      24.525   7.805  46.750  1.00  0.00     0.029 A 
HETATM   25  C14 UNL     1      23.280   7.687  46.179  1.00  0.00     0.004 A 
HETATM   26  C15 UNL     1      22.491   6.717  46.759  1.00  0.00     0.019 A 
HETATM   27  C16 UNL     1      22.893   5.935  47.809  1.00  0.00     0.013 A 
HETATM   28 BR1  UNL     1      21.717   4.616  48.542  1.00  0.00    -0.051 Br
HETATM   29  C17 UNL     1      24.148   6.114  48.323  1.00  0.00     0.048 A 
ENDBRANCH  21  23
ENDBRANCH  14  21
TORSDOF 2
ENDMDL
MODEL 9
REMARK VINA RESULT:      -7.4      7.056     10.088
REMARK  2 active torsions:
REMARK  status: ('A' for Active; 'I' for Inactive)
REMARK    1  A    between atoms: C11_14  and  N2_15 
REMARK    2  A    between atoms: N2_15  and  C12_16 
ROOT
HETATM    1  C1  UNL     1      27.977  12.220  48.363  1.00  0.00     0.045 C 
HETATM    2  C2  UNL     1      27.500  11.062  48.214  1.00  0.00     0.049 C 
HETATM    3  C3  UNL     1      26.890   9.768  48.161  1.00  0.00     0.066 C 
HETATM    4  C4  UNL     1      26.720   8.645  47.411  1.00  0.00     0.082 C 
HETATM    5  C5  UNL     1      27.355   8.681  46.095  1.00  0.00     0.095 C 
HETATM    6  C6  UNL     1      28.680   8.076  45.965  1.00  0.00    -0.006 C 
HETATM    7  C7  UNL     1      29.227   7.391  46.928  1.00  0.00     0.001 C 
HETATM    8  C8  UNL     1      28.994   6.315  47.869  1.00  0.00     0.024 C 
HETATM    9  C9  UNL     1      30.175   5.861  48.207  1.00  0.00     0.050 C 
HETATM   10  C10 UNL     1      27.741   5.752  48.429  1.00  0.00     0.272 C 
HETATM   11  O1  UNL     1      27.991   4.582  48.670  1.00  0.00    -0.266 OA
HETATM   12  N1  UNL     1      26.468   6.478  48.642  1.00  0.00    -0.225 N 
HETATM   13  O2  UNL     1      25.961   7.759  48.186  1.00  0.00    -0.239 OA
HETATM   14  C11 UNL     1      30.502   8.032  46.988  1.00  0.00     0.065 C 
HETATM   15  C18 UNL     1      30.761   9.291  47.283  1.00  0.00     0.089 C 
HETATM   16  C19 UNL     1      32.151   9.623  47.247  1.00  0.00     0.103 C 
HETATM   17  N3  UNL     1      33.298   9.889  47.231  1.00  0.00    -0.191 NA
HETATM   18  C20 UNL     1      29.728  10.238  47.682  1.00  0.00     0.142 C 
HETATM   19  N4  UNL     1      28.501  10.132  47.803  1.00  0.00    -0.260 NA
HETATM   20  H9  UNL     1      25.936   5.835  49.259  1.00  0.00     0.198 HD
ENDROOT
BRANCH  14  21
HETATM   21  N2  UNL     1      31.330   6.949  46.717  1.00  0.00    -0.354 N 
HETATM   22  H10 UNL     1      31.176   6.436  47.645  1.00  0.00     0.166 HD
BRANCH  21  23
HETATM   23  C12 UNL     1      32.216   6.395  45.777  1.00  0.00     0.033 A 
HETATM   24  C13 UNL     1      32.374   6.751  44.463  1.00  0.00     0.029 A 
HETATM   25  C14 UNL     1      33.256   6.194  43.568  1.00  0.00     0.004 A 
HETATM   26  C15 UNL     1      34.029   5.186  44.103  1.00  0.00     0.019 A 
HETATM   27  C16 UNL     1      33.940   4.765  45.403  1.00  0.00     0.013 A 
HETATM   28 BR1  UNL     1      35.061   3.354  46.046  1.00  0.00    -0.051 Br
HETATM   29  C17 UNL     1      33.035   5.370  46.232  1.00  0.00     0.048 A 
ENDBRANCH  21  23
ENDBRANCH  14  21
TORSDOF 2
ENDMDL
