MODEL 1
REMARK VINA RESULT:      -7.0      0.000      0.000
REMARK  4 active torsions:
REMARK  status: ('A' for Active; 'I' for Inactive)
REMARK    1  A    between atoms: C3_3  and  N1_7 
REMARK    2  A    between atoms: C4_4  and  C5_5 
REMARK       I    between atoms: N1_7  and  C7_8 
REMARK    3  A    between atoms: C7_8  and  C8_10 
REMARK    4  A    between atoms: C9_11  and  S1_12 
ROOT
HETATM    1  C1  UNL     1      26.733   3.999  49.414  1.00  0.00     0.019 C 
HETATM    2  C2  UNL     1      26.481   3.154  50.230  1.00  0.00    -0.060 C 
HETATM    3  C3  UNL     1      26.185   2.154  51.219  1.00  0.00     0.088 C 
HETATM    4  C4  UNL     1      27.085   1.690  52.071  1.00  0.00     0.035 C 
ENDROOT
BRANCH   3   5
HETATM    5  N1  UNL     1      24.858   1.645  51.279  1.00  0.00    -0.316 N 
HETATM    6  C7  UNL     1      23.846   2.237  52.076  1.00  0.00     0.260 C 
HETATM    7  O1  UNL     1      24.330   3.248  52.687  1.00  0.00    -0.267 OA
HETATM    8  H6  UNL     1      24.643   0.809  50.709  1.00  0.00     0.170 HD
BRANCH   6   9
HETATM    9  C8  UNL     1      22.474   1.766  52.179  1.00  0.00     0.078 A 
HETATM   10  C9  UNL     1      21.248   2.126  51.664  1.00  0.00     0.088 A 
HETATM   11  N2  UNL     1      20.273   1.315  52.107  1.00  0.00    -0.344 N 
HETATM   12  C11 UNL     1      18.869   1.462  51.724  1.00  0.00     0.157 C 
HETATM   13  C12 UNL     1      20.840   0.414  52.917  1.00  0.00     0.046 A 
HETATM   14  C13 UNL     1      20.186  -0.603  53.583  1.00  0.00     0.030 A 
HETATM   15  C17 UNL     1      22.194   0.667  52.980  1.00  0.00     0.009 A 
HETATM   16  C14 UNL     1      20.950  -1.434  54.376  1.00  0.00     0.002 A 
HETATM   17  C15 UNL     1      22.312  -1.238  54.485  1.00  0.00     0.001 A 
HETATM   18  C16 UNL     1      22.901  -0.200  53.791  1.00  0.00     0.015 A 
BRANCH  10  19
HETATM   19  S1  UNL     1      21.113   3.519  50.554  1.00  0.00    -0.116 SA
HETATM   20  C10 UNL     1      21.463   5.026  51.497  1.00  0.00     0.097 C 
ENDBRANCH  10  19
ENDBRANCH   6   9
ENDBRANCH   3   5
BRANCH   4  21
HETATM   21  C5  UNL     1      26.752   0.674  53.063  1.00  0.00    -0.024 C 
HETATM   22  C6  UNL     1      26.628   0.927  54.356  1.00  0.00     0.031 C 
ENDBRANCH   4  21
TORSDOF 4
ENDMDL
MODEL 2
REMARK VINA RESULT:      -7.0      1.991      5.665
REMARK  4 active torsions:
REMARK  status: ('A' for Active; 'I' for Inactive)
REMARK    1  A    between atoms: C3_3  and  N1_7 
REMARK    2  A    between atoms: C4_4  and  C5_5 
REMARK       I    between atoms: N1_7  and  C7_8 
REMARK    3  A    between atoms: C7_8  and  C8_10 
REMARK    4  A    between atoms: C9_11  and  S1_12 
ROOT
HETATM    1  C1  UNL     1      22.405  -0.492  53.869  1.00  0.00     0.019 C 
HETATM    2  C2  UNL     1      23.469  -0.066  53.509  1.00  0.00    -0.060 C 
HETATM    3  C3  UNL     1      24.742   0.431  53.064  1.00  0.00     0.088 C 
HETATM    4  C4  UNL     1      25.819  -0.329  52.957  1.00  0.00     0.035 C 
ENDROOT
BRANCH   3   5
HETATM    5  N1  UNL     1      24.839   1.809  52.724  1.00  0.00    -0.316 N 
HETATM    6  C7  UNL     1      24.239   2.355  51.561  1.00  0.00     0.260 C 
HETATM    7  O1  UNL     1      23.638   1.427  50.923  1.00  0.00    -0.267 OA
HETATM    8  H6  UNL     1      25.372   2.422  53.366  1.00  0.00     0.170 HD
BRANCH   6   9
HETATM    9  C8  UNL     1      24.302   3.751  51.159  1.00  0.00     0.078 A 
HETATM   10  C9  UNL     1      23.566   4.894  51.384  1.00  0.00     0.088 A 
HETATM   11  N2  UNL     1      24.092   5.950  50.744  1.00  0.00    -0.344 N 
HETATM   12  C11 UNL     1      23.518   7.295  50.803  1.00  0.00     0.157 C 
HETATM   13  C12 UNL     1      25.178   5.521  50.090  1.00  0.00     0.046 A 
HETATM   14  C13 UNL     1      26.011   6.293  49.306  1.00  0.00     0.030 A 
HETATM   15  C17 UNL     1      25.331   4.171  50.327  1.00  0.00     0.009 A 
HETATM   16  C14 UNL     1      27.085   5.663  48.712  1.00  0.00     0.002 A 
HETATM   17  C15 UNL     1      27.298   4.313  48.907  1.00  0.00     0.001 A 
HETATM   18  C16 UNL     1      26.425   3.602  49.704  1.00  0.00     0.015 A 
BRANCH  10  19
HETATM   19  S1  UNL     1      22.112   4.838  52.422  1.00  0.00    -0.116 SA
HETATM   20  C10 UNL     1      20.849   3.858  51.568  1.00  0.00     0.097 C 
ENDBRANCH  10  19
ENDBRANCH   6   9
ENDBRANCH   3   5
BRANCH   4  21
HETATM   21  C5  UNL     1      27.097   0.208  52.502  1.00  0.00    -0.024 C 
HETATM   22  C6  UNL     1      28.169   0.300  53.273  1.00  0.00     0.031 C 
ENDBRANCH   4  21
TORSDOF 4
ENDMDL
MODEL 3
REMARK VINA RESULT:      -7.0      2.328      4.398
REMARK  4 active torsions:
REMARK  status: ('A' for Active; 'I' for Inactive)
REMARK    1  A    between atoms: C3_3  and  N1_7 
REMARK    2  A    between atoms: C4_4  and  C5_5 
REMARK       I    between atoms: N1_7  and  C7_8 
REMARK    3  A    between atoms: C7_8  and  C8_10 
REMARK    4  A    between atoms: C9_11  and  S1_12 
ROOT
HETATM    1  C1  UNL     1      22.231   6.790  50.800  1.00  0.00     0.019 C 
HETATM    2  C2  UNL     1      23.204   6.106  50.631  1.00  0.00    -0.060 C 
HETATM    3  C3  UNL     1      24.378   5.302  50.431  1.00  0.00     0.088 C 
HETATM    4  C4  UNL     1      25.260   5.535  49.472  1.00  0.00     0.035 C 
ENDROOT
BRANCH   3   5
HETATM    5  N1  UNL     1      24.595   4.206  51.311  1.00  0.00    -0.316 N 
HETATM    6  C7  UNL     1      23.974   2.944  51.131  1.00  0.00     0.260 C 
HETATM    7  O1  UNL     1      23.231   2.986  50.094  1.00  0.00    -0.267 OA
HETATM    8  H6  UNL     1      25.238   4.356  52.109  1.00  0.00     0.170 HD
BRANCH   6   9
HETATM    9  C8  UNL     1      24.154   1.788  51.993  1.00  0.00     0.078 A 
HETATM   10  C9  UNL     1      25.204   0.991  52.396  1.00  0.00     0.088 A 
HETATM   11  N2  UNL     1      24.793   0.024  53.233  1.00  0.00    -0.344 N 
HETATM   12  C11 UNL     1      25.693  -0.969  53.819  1.00  0.00     0.157 C 
HETATM   13  C12 UNL     1      23.472   0.169  53.393  1.00  0.00     0.046 A 
HETATM   14  C13 UNL     1      22.658  -0.623  54.177  1.00  0.00     0.030 A 
HETATM   15  C17 UNL     1      23.052   1.247  52.641  1.00  0.00     0.009 A 
HETATM   16  C14 UNL     1      21.315  -0.312  54.211  1.00  0.00     0.002 A 
HETATM   17  C15 UNL     1      20.826   0.754  53.483  1.00  0.00     0.001 A 
HETATM   18  C16 UNL     1      21.697   1.505  52.720  1.00  0.00     0.015 A 
BRANCH  10  19
HETATM   19  S1  UNL     1      26.858   1.315  51.804  1.00  0.00    -0.116 SA
HETATM   20  C10 UNL     1      27.796   2.087  53.149  1.00  0.00     0.097 C 
ENDBRANCH  10  19
ENDBRANCH   6   9
ENDBRANCH   3   5
BRANCH   4  21
HETATM   21  C5  UNL     1      26.442   4.699  49.297  1.00  0.00    -0.024 C 
HETATM   22  C6  UNL     1      27.511   5.076  48.613  1.00  0.00     0.031 C 
ENDBRANCH   4  21
TORSDOF 4
ENDMDL
MODEL 4
REMARK VINA RESULT:      -7.0      0.717      2.255
REMARK  4 active torsions:
REMARK  status: ('A' for Active; 'I' for Inactive)
REMARK    1  A    between atoms: C3_3  and  N1_7 
REMARK    2  A    between atoms: C4_4  and  C5_5 
REMARK       I    between atoms: N1_7  and  C7_8 
REMARK    3  A    between atoms: C7_8  and  C8_10 
REMARK    4  A    between atoms: C9_11  and  S1_12 
ROOT
HETATM    1  C1  UNL     1      28.004   0.061  53.684  1.00  0.00     0.019 C 
HETATM    2  C2  UNL     1      27.334   0.712  52.929  1.00  0.00    -0.060 C 
HETATM    3  C3  UNL     1      26.544   1.486  52.012  1.00  0.00     0.088 C 
HETATM    4  C4  UNL     1      27.044   2.459  51.267  1.00  0.00     0.035 C 
ENDROOT
BRANCH   3   5
HETATM    5  N1  UNL     1      25.158   1.186  51.906  1.00  0.00    -0.316 N 
HETATM    6  C7  UNL     1      24.172   1.829  52.697  1.00  0.00     0.260 C 
HETATM    7  O1  UNL     1      24.738   2.672  53.470  1.00  0.00    -0.267 OA
HETATM    8  H6  UNL     1      24.878   0.467  51.216  1.00  0.00     0.170 HD
BRANCH   6   9
HETATM    9  C8  UNL     1      22.743   1.567  52.635  1.00  0.00     0.078 A 
HETATM   10  C9  UNL     1      21.636   2.167  52.076  1.00  0.00     0.088 A 
HETATM   11  N2  UNL     1      20.516   1.473  52.339  1.00  0.00    -0.344 N 
HETATM   12  C11 UNL     1      19.191   1.877  51.870  1.00  0.00     0.157 C 
HETATM   13  C12 UNL     1      20.867   0.411  53.073  1.00  0.00     0.046 A 
HETATM   14  C13 UNL     1      20.014  -0.560  53.556  1.00  0.00     0.030 A 
HETATM   15  C17 UNL     1      22.232   0.443  53.271  1.00  0.00     0.009 A 
HETATM   16  C14 UNL     1      20.571  -1.581  54.297  1.00  0.00     0.002 A 
HETATM   17  C15 UNL     1      21.930  -1.612  54.533  1.00  0.00     0.001 A 
HETATM   18  C16 UNL     1      22.726  -0.608  54.020  1.00  0.00     0.015 A 
BRANCH  10  19
HETATM   19  S1  UNL     1      21.809   3.678  51.139  1.00  0.00    -0.116 SA
HETATM   20  C10 UNL     1      22.273   5.002  52.286  1.00  0.00     0.097 C 
ENDBRANCH  10  19
ENDBRANCH   6   9
ENDBRANCH   3   5
BRANCH   4  21
HETATM   21  C5  UNL     1      26.214   3.226  50.346  1.00  0.00    -0.024 C 
HETATM   22  C6  UNL     1      26.699   3.940  49.343  1.00  0.00     0.031 C 
ENDBRANCH   4  21
TORSDOF 4
ENDMDL
MODEL 5
REMARK VINA RESULT:      -7.0      1.379      5.343
REMARK  4 active torsions:
REMARK  status: ('A' for Active; 'I' for Inactive)
REMARK    1  A    between atoms: C3_3  and  N1_7 
REMARK    2  A    between atoms: C4_4  and  C5_5 
REMARK       I    between atoms: N1_7  and  C7_8 
REMARK    3  A    between atoms: C7_8  and  C8_10 
REMARK    4  A    between atoms: C9_11  and  S1_12 
ROOT
HETATM    1  C1  UNL     1      18.290   0.467  50.479  1.00  0.00     0.019 C 
HETATM    2  C2  UNL     1      19.162   0.281  51.285  1.00  0.00    -0.060 C 
HETATM    3  C3  UNL     1      20.198   0.041  52.251  1.00  0.00     0.088 C 
HETATM    4  C4  UNL     1      19.959  -0.399  53.476  1.00  0.00     0.035 C 
ENDROOT
BRANCH   3   5
HETATM    5  N1  UNL     1      21.544   0.292  51.863  1.00  0.00    -0.316 N 
HETATM    6  C7  UNL     1      22.168   1.554  52.035  1.00  0.00     0.260 C 
HETATM    7  O1  UNL     1      21.338   2.363  52.569  1.00  0.00    -0.267 OA
HETATM    8  H6  UNL     1      22.072  -0.492  51.442  1.00  0.00     0.170 HD
BRANCH   6   9
HETATM    9  C8  UNL     1      23.536   1.872  51.660  1.00  0.00     0.078 A 
HETATM   10  C9  UNL     1      24.167   2.797  50.857  1.00  0.00     0.088 A 
HETATM   11  N2  UNL     1      25.500   2.635  50.876  1.00  0.00    -0.344 N 
HETATM   12  C11 UNL     1      26.424   3.476  50.115  1.00  0.00     0.157 C 
HETATM   13  C12 UNL     1      25.766   1.605  51.688  1.00  0.00     0.046 A 
HETATM   14  C13 UNL     1      27.019   1.108  51.985  1.00  0.00     0.030 A 
HETATM   15  C17 UNL     1      24.576   1.116  52.185  1.00  0.00     0.009 A 
HETATM   16  C14 UNL     1      27.086   0.035  52.849  1.00  0.00     0.002 A 
HETATM   17  C15 UNL     1      25.933  -0.504  53.384  1.00  0.00     0.001 A 
HETATM   18  C16 UNL     1      24.713   0.043  53.044  1.00  0.00     0.015 A 
BRANCH  10  19
HETATM   19  S1  UNL     1      23.210   4.008  49.957  1.00  0.00    -0.116 SA
HETATM   20  C10 UNL     1      22.735   5.321  51.112  1.00  0.00     0.097 C 
ENDBRANCH  10  19
ENDBRANCH   6   9
ENDBRANCH   3   5
BRANCH   4  21
HETATM   21  C5  UNL     1      21.035  -0.633  54.432  1.00  0.00    -0.024 C 
HETATM   22  C6  UNL     1      21.683  -1.781  54.540  1.00  0.00     0.031 C 
ENDBRANCH   4  21
TORSDOF 4
ENDMDL
MODEL 6
REMARK VINA RESULT:      -6.9      1.918      4.251
REMARK  4 active torsions:
REMARK  status: ('A' for Active; 'I' for Inactive)
REMARK    1  A    between atoms: C3_3  and  N1_7 
REMARK    2  A    between atoms: C4_4  and  C5_5 
REMARK       I    between atoms: N1_7  and  C7_8 
REMARK    3  A    between atoms: C7_8  and  C8_10 
REMARK    4  A    between atoms: C9_11  and  S1_12 
ROOT
HETATM    1  C1  UNL     1      22.321   7.075  50.722  1.00  0.00     0.019 C 
HETATM    2  C2  UNL     1      23.223   6.287  50.630  1.00  0.00    -0.060 C 
HETATM    3  C3  UNL     1      24.314   5.359  50.523  1.00  0.00     0.088 C 
HETATM    4  C4  UNL     1      25.293   5.490  49.642  1.00  0.00     0.035 C 
ENDROOT
BRANCH   3   5
HETATM    5  N1  UNL     1      24.335   4.248  51.411  1.00  0.00    -0.316 N 
HETATM    6  C7  UNL     1      23.607   3.056  51.165  1.00  0.00     0.260 C 
HETATM    7  O1  UNL     1      22.971   3.173  50.064  1.00  0.00    -0.267 OA
HETATM    8  H6  UNL     1      24.914   4.332  52.265  1.00  0.00     0.170 HD
BRANCH   6   9
HETATM    9  C8  UNL     1      23.587   1.889  52.031  1.00  0.00     0.078 A 
HETATM   10  C9  UNL     1      22.653   1.217  52.789  1.00  0.00     0.088 A 
HETATM   11  N2  UNL     1      23.197   0.160  53.415  1.00  0.00    -0.344 N 
HETATM   12  C11 UNL     1      22.439  -0.735  54.289  1.00  0.00     0.157 C 
HETATM   13  C12 UNL     1      24.492   0.121  53.081  1.00  0.00     0.046 A 
HETATM   14  C13 UNL     1      25.413  -0.812  53.511  1.00  0.00     0.030 A 
HETATM   15  C17 UNL     1      24.760   1.173  52.230  1.00  0.00     0.009 A 
HETATM   16  C14 UNL     1      26.707  -0.683  53.052  1.00  0.00     0.002 A 
HETATM   17  C15 UNL     1      27.046   0.347  52.197  1.00  0.00     0.001 A 
HETATM   18  C16 UNL     1      26.074   1.246  51.808  1.00  0.00     0.015 A 
BRANCH  10  19
HETATM   19  S1  UNL     1      20.961   1.787  52.843  1.00  0.00    -0.116 SA
HETATM   20  C10 UNL     1      19.982   0.752  51.724  1.00  0.00     0.097 C 
ENDBRANCH  10  19
ENDBRANCH   6   9
ENDBRANCH   3   5
BRANCH   4  21
HETATM   21  C5  UNL     1      26.386   4.528  49.560  1.00  0.00    -0.024 C 
HETATM   22  C6  UNL     1      27.418   4.661  48.743  1.00  0.00     0.031 C 
ENDBRANCH   4  21
TORSDOF 4
ENDMDL
MODEL 7
REMARK VINA RESULT:      -6.9      2.000      4.073
REMARK  4 active torsions:
REMARK  status: ('A' for Active; 'I' for Inactive)
REMARK    1  A    between atoms: C3_3  and  N1_7 
REMARK    2  A    between atoms: C4_4  and  C5_5 
REMARK       I    between atoms: N1_7  and  C7_8 
REMARK    3  A    between atoms: C7_8  and  C8_10 
REMARK    4  A    between atoms: C9_11  and  S1_12 
ROOT
HETATM    1  C1  UNL     1      27.514   5.103  48.544  1.00  0.00     0.019 C 
HETATM    2  C2  UNL     1      26.567   5.316  49.253  1.00  0.00    -0.060 C 
HETATM    3  C3  UNL     1      25.425   5.575  50.085  1.00  0.00     0.088 C 
HETATM    4  C4  UNL     1      24.715   6.689  50.016  1.00  0.00     0.035 C 
ENDROOT
BRANCH   3   5
HETATM    5  N1  UNL     1      25.045   4.578  51.027  1.00  0.00    -0.316 N 
HETATM    6  C7  UNL     1      24.246   3.459  50.677  1.00  0.00     0.260 C 
HETATM    7  O1  UNL     1      23.956   3.522  49.436  1.00  0.00    -0.267 OA
HETATM    8  H6  UNL     1      25.377   4.691  52.000  1.00  0.00     0.170 HD
BRANCH   6   9
HETATM    9  C8  UNL     1      23.826   2.409  51.591  1.00  0.00     0.078 A 
HETATM   10  C9  UNL     1      22.673   2.068  52.265  1.00  0.00     0.088 A 
HETATM   11  N2  UNL     1      22.846   0.958  53.000  1.00  0.00    -0.344 N 
HETATM   12  C11 UNL     1      21.790   0.364  53.821  1.00  0.00     0.157 C 
HETATM   13  C12 UNL     1      24.108   0.553  52.823  1.00  0.00     0.046 A 
HETATM   14  C13 UNL     1      24.695  -0.554  53.402  1.00  0.00     0.030 A 
HETATM   15  C17 UNL     1      24.735   1.428  51.959  1.00  0.00     0.009 A 
HETATM   16  C14 UNL     1      26.016  -0.806  53.092  1.00  0.00     0.002 A 
HETATM   17  C15 UNL     1      26.703   0.029  52.235  1.00  0.00     0.001 A 
HETATM   18  C16 UNL     1      26.055   1.118  51.691  1.00  0.00     0.015 A 
BRANCH  10  19
HETATM   19  S1  UNL     1      21.202   3.066  52.093  1.00  0.00    -0.116 SA
HETATM   20  C10 UNL     1      20.398   2.619  50.532  1.00  0.00     0.097 C 
ENDBRANCH  10  19
ENDBRANCH   6   9
ENDBRANCH   3   5
BRANCH   4  21
HETATM   21  C5  UNL     1      23.560   6.920  50.876  1.00  0.00    -0.024 C 
HETATM   22  C6  UNL     1      22.308   6.833  50.460  1.00  0.00     0.031 C 
ENDBRANCH   4  21
TORSDOF 4
ENDMDL
MODEL 8
REMARK VINA RESULT:      -6.7      1.740      5.520
REMARK  4 active torsions:
REMARK  status: ('A' for Active; 'I' for Inactive)
REMARK    1  A    between atoms: C3_3  and  N1_7 
REMARK    2  A    between atoms: C4_4  and  C5_5 
REMARK       I    between atoms: N1_7  and  C7_8 
REMARK    3  A    between atoms: C7_8  and  C8_10 
REMARK    4  A    between atoms: C9_11  and  S1_12 
ROOT
HETATM    1  C1  UNL     1      26.909  -1.065  52.702  1.00  0.00     0.019 C 
HETATM    2  C2  UNL     1      25.806  -0.596  52.786  1.00  0.00    -0.060 C 
HETATM    3  C3  UNL     1      24.490  -0.032  52.904  1.00  0.00     0.088 C 
HETATM    4  C4  UNL     1      23.587  -0.474  53.764  1.00  0.00     0.035 C 
ENDROOT
BRANCH   3   5
HETATM    5  N1  UNL     1      24.149   1.054  52.050  1.00  0.00    -0.316 N 
HETATM    6  C7  UNL     1      24.603   2.378  52.278  1.00  0.00     0.260 C 
HETATM    7  O1  UNL     1      25.328   2.399  53.329  1.00  0.00    -0.267 OA
HETATM    8  H6  UNL     1      23.546   0.849  51.235  1.00  0.00     0.170 HD
BRANCH   6   9
HETATM    9  C8  UNL     1      24.292   3.529  51.446  1.00  0.00     0.078 A 
HETATM   10  C9  UNL     1      23.223   4.380  51.271  1.00  0.00     0.088 A 
HETATM   11  N2  UNL     1      23.482   5.306  50.333  1.00  0.00    -0.344 N 
HETATM   12  C11 UNL     1      22.526   6.341  49.939  1.00  0.00     0.157 C 
HETATM   13  C12 UNL     1      24.719   5.078  49.877  1.00  0.00     0.046 A 
HETATM   14  C13 UNL     1      25.372   5.805  48.903  1.00  0.00     0.030 A 
HETATM   15  C17 UNL     1      25.242   3.990  50.545  1.00  0.00     0.009 A 
HETATM   16  C14 UNL     1      26.651   5.412  48.569  1.00  0.00     0.002 A 
HETATM   17  C15 UNL     1      27.236   4.331  49.198  1.00  0.00     0.001 A 
HETATM   18  C16 UNL     1      26.525   3.649  50.164  1.00  0.00     0.015 A 
BRANCH  10  19
HETATM   19  S1  UNL     1      21.736   4.169  52.239  1.00  0.00    -0.116 SA
HETATM   20  C10 UNL     1      20.865   2.706  51.619  1.00  0.00     0.097 C 
ENDBRANCH  10  19
ENDBRANCH   6   9
ENDBRANCH   3   5
BRANCH   4  21
HETATM   21  C5  UNL     1      22.258   0.121  53.858  1.00  0.00    -0.024 C 
HETATM   22  C6  UNL     1      21.178  -0.552  54.219  1.00  0.00     0.031 C 
ENDBRANCH   4  21
TORSDOF 4
ENDMDL
MODEL 9
REMARK VINA RESULT:      -6.6      8.254     10.582
REMARK  4 active torsions:
REMARK  status: ('A' for Active; 'I' for Inactive)
REMARK    1  A    between atoms: C3_3  and  N1_7 
REMARK    2  A    between atoms: C4_4  and  C5_5 
REMARK       I    between atoms: N1_7  and  C7_8 
REMARK    3  A    between atoms: C7_8  and  C8_10 
REMARK    4  A    between atoms: C9_11  and  S1_12 
ROOT
HETATM    1  C1  UNL     1      32.618   1.875  46.890  1.00  0.00     0.019 C 
HETATM    2  C2  UNL     1      32.956   2.892  47.434  1.00  0.00    -0.060 C 
HETATM    3  C3  UNL     1      33.369   4.113  48.069  1.00  0.00     0.088 C 
HETATM    4  C4  UNL     1      34.637   4.426  48.279  1.00  0.00     0.035 C 
ENDROOT
BRANCH   3   5
HETATM    5  N1  UNL     1      32.360   5.023  48.488  1.00  0.00    -0.316 N 
HETATM    6  C7  UNL     1      31.691   5.892  47.589  1.00  0.00     0.260 C 
HETATM    7  O1  UNL     1      32.144   5.707  46.410  1.00  0.00    -0.267 OA
HETATM    8  H6  UNL     1      32.117   5.035  49.494  1.00  0.00     0.170 HD
BRANCH   6   9
HETATM    9  C8  UNL     1      30.653   6.843  47.954  1.00  0.00     0.078 A 
HETATM   10  C9  UNL     1      30.556   8.207  48.122  1.00  0.00     0.088 A 
HETATM   11  N2  UNL     1      29.312   8.570  48.477  1.00  0.00    -0.344 N 
HETATM   12  C11 UNL     1      28.919   9.957  48.723  1.00  0.00     0.157 C 
HETATM   13  C12 UNL     1      28.576   7.455  48.550  1.00  0.00     0.046 A 
HETATM   14  C13 UNL     1      27.239   7.386  48.886  1.00  0.00     0.030 A 
HETATM   15  C17 UNL     1      29.375   6.377  48.233  1.00  0.00     0.009 A 
HETATM   16  C14 UNL     1      26.655   6.137  48.905  1.00  0.00     0.002 A 
HETATM   17  C15 UNL     1      27.396   5.014  48.598  1.00  0.00     0.001 A 
HETATM   18  C16 UNL     1      28.729   5.156  48.271  1.00  0.00     0.015 A 
BRANCH  10  19
HETATM   19  S1  UNL     1      31.984   9.249  47.864  1.00  0.00    -0.116 SA
HETATM   20  C10 UNL     1      31.776  10.106  46.281  1.00  0.00     0.097 C 
ENDBRANCH  10  19
ENDBRANCH   6   9
ENDBRANCH   3   5
BRANCH   4  21
HETATM   21  C5  UNL     1      35.023   5.675  48.927  1.00  0.00    -0.024 C 
HETATM   22  C6  UNL     1      35.344   6.775  48.265  1.00  0.00     0.031 C 
ENDBRANCH   4  21
TORSDOF 4
ENDMDL
