MODEL 1
REMARK VINA RESULT:      -8.8      0.000      0.000
REMARK  4 active torsions:
REMARK  status: ('A' for Active; 'I' for Inactive)
REMARK    1  A    between atoms: C6_6  and  C7_7 
REMARK    2  A    between atoms: C7_7  and  O1_8 
REMARK    3  A    between atoms: O1_8  and  C8_9 
REMARK    4  A    between atoms: C8_9  and  N1_10 
ROOT
HETATM    1  N1  UNL     1      25.353   2.063  52.074  1.00  0.00    -0.312 N 
HETATM    2  C9  UNL     1      26.334   2.530  53.088  1.00  0.00     0.133 C 
HETATM    3  C10 UNL     1      27.195   1.314  53.465  1.00  0.00     0.047 C 
HETATM    4  C11 UNL     1      26.486   0.397  54.363  1.00  0.00    -0.029 C 
HETATM    5  C12 UNL     1      25.955  -0.443  55.288  1.00  0.00    -0.030 C 
HETATM    6  C13 UNL     1      24.594  -1.185  55.387  1.00  0.00     0.031 C 
HETATM    7  C14 UNL     1      23.923  -0.632  54.225  1.00  0.00     0.044 C 
HETATM    8  C15 UNL     1      22.493  -0.750  53.950  1.00  0.00    -0.031 A 
HETATM    9  C16 UNL     1      21.636  -1.616  54.496  1.00  0.00     0.009 A 
HETATM   10  C17 UNL     1      20.363  -1.387  54.124  1.00  0.00     0.001 A 
HETATM   11  C18 UNL     1      19.684  -0.512  53.337  1.00  0.00     0.002 A 
HETATM   12  C19 UNL     1      20.588   0.407  52.757  1.00  0.00     0.030 A 
HETATM   13  C20 UNL     1      21.886   0.217  53.098  1.00  0.00     0.042 A 
HETATM   14  N2  UNL     1      23.012   0.831  52.616  1.00  0.00    -0.308 N 
HETATM   15  C21 UNL     1      24.118   1.437  52.117  1.00  0.00     0.324 C 
HETATM   16  O2  UNL     1      24.214   1.578  50.975  1.00  0.00    -0.247 OA
HETATM   17  H24 UNL     1      22.646   0.601  51.630  1.00  0.00     0.170 HD
ENDROOT
BRANCH   1  18
HETATM   18  C8  UNL     1      25.878   2.358  50.733  1.00  0.00     0.298 C 
BRANCH  18  19
HETATM   19  O1  UNL     1      26.475   3.598  50.644  1.00  0.00    -0.368 OA
BRANCH  19  20
HETATM   20  C7  UNL     1      25.811   4.282  49.610  1.00  0.00     0.204 C 
BRANCH  20  21
HETATM   21  C6  UNL     1      26.694   5.202  48.904  1.00  0.00    -0.052 C 
HETATM   22  C5  UNL     1      26.071   6.343  48.581  1.00  0.00     0.006 C 
HETATM   23  C4  UNL     1      26.806   7.407  47.859  1.00  0.00     0.013 C 
HETATM   24  C3  UNL     1      28.091   7.443  48.141  1.00  0.00    -0.023 C 
HETATM   25  C2  UNL     1      28.729   6.288  48.071  1.00  0.00    -0.069 C 
HETATM   26  C1  UNL     1      30.094   6.366  47.499  1.00  0.00     0.044 C 
HETATM   27  C22 UNL     1      28.110   4.995  48.544  1.00  0.00     0.071 C 
ENDBRANCH  20  21
ENDBRANCH  19  20
ENDBRANCH  18  19
ENDBRANCH   1  18
TORSDOF 4
ENDMDL
MODEL 2
REMARK VINA RESULT:      -8.7      2.461      8.636
REMARK  4 active torsions:
REMARK  status: ('A' for Active; 'I' for Inactive)
REMARK    1  A    between atoms: C6_6  and  C7_7 
REMARK    2  A    between atoms: C7_7  and  O1_8 
REMARK    3  A    between atoms: O1_8  and  C8_9 
REMARK    4  A    between atoms: C8_9  and  N1_10 
ROOT
HETATM    1  N1  UNL     1      22.501   3.357  50.657  1.00  0.00    -0.312 N 
HETATM    2  C9  UNL     1      21.752   4.011  51.761  1.00  0.00     0.133 C 
HETATM    3  C10 UNL     1      20.917   5.134  51.125  1.00  0.00     0.047 C 
HETATM    4  C11 UNL     1      21.734   6.304  50.794  1.00  0.00    -0.029 C 
HETATM    5  C12 UNL     1      22.387   7.473  50.566  1.00  0.00    -0.030 C 
HETATM    6  C13 UNL     1      23.703   7.824  49.820  1.00  0.00     0.031 C 
HETATM    7  C14 UNL     1      24.172   6.488  49.500  1.00  0.00     0.044 C 
HETATM    8  C15 UNL     1      25.518   6.164  49.034  1.00  0.00    -0.031 A 
HETATM    9  C16 UNL     1      26.417   7.006  48.519  1.00  0.00     0.009 A 
HETATM   10  C17 UNL     1      27.608   6.418  48.300  1.00  0.00     0.001 A 
HETATM   11  C18 UNL     1      28.171   5.191  48.453  1.00  0.00     0.002 A 
HETATM   12  C19 UNL     1      27.222   4.296  48.997  1.00  0.00     0.030 A 
HETATM   13  C20 UNL     1      26.002   4.839  49.234  1.00  0.00     0.042 A 
HETATM   14  N2  UNL     1      24.839   4.230  49.622  1.00  0.00    -0.308 N 
HETATM   15  C21 UNL     1      23.690   3.610  49.991  1.00  0.00     0.324 C 
HETATM   16  O2  UNL     1      23.390   2.627  49.466  1.00  0.00    -0.247 OA
HETATM   17  H24 UNL     1      25.001   3.533  48.818  1.00  0.00     0.170 HD
ENDROOT
BRANCH   1  18
HETATM   18  C8  UNL     1      21.751   2.176  50.205  1.00  0.00     0.298 C 
BRANCH  18  19
HETATM   19  O1  UNL     1      20.824   1.737  51.128  1.00  0.00    -0.368 OA
BRANCH  19  20
HETATM   20  C7  UNL     1      21.040   0.355  51.276  1.00  0.00     0.204 C 
BRANCH  20  21
HETATM   21  C6  UNL     1      21.790   0.043  52.486  1.00  0.00    -0.052 C 
HETATM   22  C5  UNL     1      20.983  -0.304  53.498  1.00  0.00     0.006 C 
HETATM   23  C4  UNL     1      21.561  -0.660  54.815  1.00  0.00     0.013 C 
HETATM   24  C3  UNL     1      22.753  -1.212  54.735  1.00  0.00    -0.023 C 
HETATM   25  C2  UNL     1      23.633  -0.576  53.981  1.00  0.00    -0.069 C 
HETATM   26  C1  UNL     1      25.015  -0.561  54.518  1.00  0.00     0.044 C 
HETATM   27  C22 UNL     1      23.254   0.076  52.674  1.00  0.00     0.071 C 
ENDBRANCH  20  21
ENDBRANCH  19  20
ENDBRANCH  18  19
ENDBRANCH   1  18
TORSDOF 4
ENDMDL
MODEL 3
REMARK VINA RESULT:      -8.7      2.236      4.685
REMARK  4 active torsions:
REMARK  status: ('A' for Active; 'I' for Inactive)
REMARK    1  A    between atoms: C6_6  and  C7_7 
REMARK    2  A    between atoms: C7_7  and  O1_8 
REMARK    3  A    between atoms: O1_8  and  C8_9 
REMARK    4  A    between atoms: C8_9  and  N1_10 
ROOT
HETATM    1  N1  UNL     1      23.192   3.119  52.148  1.00  0.00    -0.312 N 
HETATM    2  C9  UNL     1      22.289   2.200  51.406  1.00  0.00     0.133 C 
HETATM    3  C10 UNL     1      21.536   1.372  52.460  1.00  0.00     0.047 C 
HETATM    4  C11 UNL     1      22.378   0.317  53.031  1.00  0.00    -0.029 C 
HETATM    5  C12 UNL     1      23.042  -0.760  53.525  1.00  0.00    -0.030 C 
HETATM    6  C13 UNL     1      24.444  -0.937  54.168  1.00  0.00     0.031 C 
HETATM    7  C14 UNL     1      24.968   0.406  53.996  1.00  0.00     0.044 C 
HETATM    8  C15 UNL     1      26.369   0.784  54.163  1.00  0.00    -0.031 A 
HETATM    9  C16 UNL     1      27.321   0.093  54.795  1.00  0.00     0.009 A 
HETATM   10  C17 UNL     1      28.538   0.654  54.667  1.00  0.00     0.001 A 
HETATM   11  C18 UNL     1      29.089   1.743  54.070  1.00  0.00     0.002 A 
HETATM   12  C19 UNL     1      28.084   2.478  53.401  1.00  0.00     0.030 A 
HETATM   13  C20 UNL     1      26.837   1.956  53.502  1.00  0.00     0.042 A 
HETATM   14  N2  UNL     1      25.639   2.479  53.095  1.00  0.00    -0.308 N 
HETATM   15  C21 UNL     1      24.457   3.018  52.702  1.00  0.00     0.324 C 
HETATM   16  O2  UNL     1      24.245   4.129  52.930  1.00  0.00    -0.247 OA
HETATM   17  H24 UNL     1      25.919   3.379  53.616  1.00  0.00     0.170 HD
ENDROOT
BRANCH   1  18
HETATM   18  C8  UNL     1      22.525   4.420  52.302  1.00  0.00     0.298 C 
BRANCH  18  19
HETATM   19  O1  UNL     1      21.895   4.848  51.151  1.00  0.00    -0.368 OA
BRANCH  19  20
HETATM   20  C7  UNL     1      22.094   6.239  51.088  1.00  0.00     0.204 C 
BRANCH  20  21
HETATM   21  C6  UNL     1      23.382   6.583  50.499  1.00  0.00    -0.052 C 
HETATM   22  C5  UNL     1      23.702   7.866  50.715  1.00  0.00     0.006 C 
HETATM   23  C4  UNL     1      24.979   8.406  50.193  1.00  0.00     0.013 C 
HETATM   24  C3  UNL     1      25.943   7.512  50.133  1.00  0.00    -0.023 C 
HETATM   25  C2  UNL     1      25.632   6.368  49.548  1.00  0.00    -0.069 C 
HETATM   26  C1  UNL     1      26.702   5.794  48.698  1.00  0.00     0.044 C 
HETATM   27  C22 UNL     1      24.292   5.702  49.742  1.00  0.00     0.071 C 
ENDBRANCH  20  21
ENDBRANCH  19  20
ENDBRANCH  18  19
ENDBRANCH   1  18
TORSDOF 4
ENDMDL
MODEL 4
REMARK VINA RESULT:      -8.7      1.608      4.147
REMARK  4 active torsions:
REMARK  status: ('A' for Active; 'I' for Inactive)
REMARK    1  A    between atoms: C6_6  and  C7_7 
REMARK    2  A    between atoms: C7_7  and  O1_8 
REMARK    3  A    between atoms: O1_8  and  C8_9 
REMARK    4  A    between atoms: C8_9  and  N1_10 
ROOT
HETATM    1  N1  UNL     1      23.899   3.014  50.747  1.00  0.00    -0.312 N 
HETATM    2  C9  UNL     1      22.953   2.126  50.022  1.00  0.00     0.133 C 
HETATM    3  C10 UNL     1      21.854   1.737  51.024  1.00  0.00     0.047 C 
HETATM    4  C11 UNL     1      22.313   0.716  51.971  1.00  0.00    -0.029 C 
HETATM    5  C12 UNL     1      22.610  -0.312  52.807  1.00  0.00    -0.030 C 
HETATM    6  C13 UNL     1      23.797  -0.583  53.772  1.00  0.00     0.031 C 
HETATM    7  C14 UNL     1      24.641   0.555  53.455  1.00  0.00     0.044 C 
HETATM    8  C15 UNL     1      26.040   0.695  53.853  1.00  0.00    -0.031 A 
HETATM    9  C16 UNL     1      26.678   0.014  54.808  1.00  0.00     0.009 A 
HETATM   10  C17 UNL     1      27.995   0.291  54.847  1.00  0.00     0.001 A 
HETATM   11  C18 UNL     1      28.881   1.078  54.182  1.00  0.00     0.002 A 
HETATM   12  C19 UNL     1      28.209   1.801  53.170  1.00  0.00     0.030 A 
HETATM   13  C20 UNL     1      26.876   1.561  53.092  1.00  0.00     0.042 A 
HETATM   14  N2  UNL     1      25.923   2.182  52.329  1.00  0.00    -0.308 N 
HETATM   15  C21 UNL     1      24.988   2.819  51.580  1.00  0.00     0.324 C 
HETATM   16  O2  UNL     1      25.003   3.971  51.526  1.00  0.00    -0.247 OA
HETATM   17  H24 UNL     1      26.309   3.113  52.708  1.00  0.00     0.170 HD
ENDROOT
BRANCH   1  18
HETATM   18  C8  UNL     1      23.536   4.414  50.482  1.00  0.00     0.298 C 
BRANCH  18  19
HETATM   19  O1  UNL     1      23.612   4.751  49.146  1.00  0.00    -0.368 OA
BRANCH  19  20
HETATM   20  C7  UNL     1      23.971   6.110  49.104  1.00  0.00     0.204 C 
BRANCH  20  21
HETATM   21  C6  UNL     1      25.320   6.305  48.587  1.00  0.00    -0.052 C 
HETATM   22  C5  UNL     1      25.422   7.429  47.866  1.00  0.00     0.006 C 
HETATM   23  C4  UNL     1      26.720   7.801  47.257  1.00  0.00     0.013 C 
HETATM   24  C3  UNL     1      27.762   7.396  47.951  1.00  0.00    -0.023 C 
HETATM   25  C2  UNL     1      27.751   6.126  48.318  1.00  0.00    -0.069 C 
HETATM   26  C1  UNL     1      29.068   5.448  48.246  1.00  0.00     0.044 C 
HETATM   27  C22 UNL     1      26.495   5.431  48.780  1.00  0.00     0.071 C 
ENDBRANCH  20  21
ENDBRANCH  19  20
ENDBRANCH  18  19
ENDBRANCH   1  18
TORSDOF 4
ENDMDL
MODEL 5
REMARK VINA RESULT:      -8.7      1.618      2.475
REMARK  4 active torsions:
REMARK  status: ('A' for Active; 'I' for Inactive)
REMARK    1  A    between atoms: C6_6  and  C7_7 
REMARK    2  A    between atoms: C7_7  and  O1_8 
REMARK    3  A    between atoms: O1_8  and  C8_9 
REMARK    4  A    between atoms: C8_9  and  N1_10 
ROOT
HETATM    1  N1  UNL     1      23.025   1.904  51.600  1.00  0.00    -0.312 N 
HETATM    2  C9  UNL     1      23.926   2.125  52.760  1.00  0.00     0.133 C 
HETATM    3  C10 UNL     1      24.535   0.759  53.115  1.00  0.00     0.047 C 
HETATM    4  C11 UNL     1      23.583  -0.095  53.832  1.00  0.00    -0.029 C 
HETATM    5  C12 UNL     1      22.814  -0.905  54.605  1.00  0.00    -0.030 C 
HETATM    6  C13 UNL     1      21.354  -1.419  54.473  1.00  0.00     0.031 C 
HETATM    7  C14 UNL     1      20.933  -0.677  53.300  1.00  0.00     0.044 C 
HETATM    8  C15 UNL     1      19.549  -0.537  52.852  1.00  0.00    -0.031 A 
HETATM    9  C16 UNL     1      18.506  -1.291  53.208  1.00  0.00     0.009 A 
HETATM   10  C17 UNL     1      17.342  -0.828  52.715  1.00  0.00     0.001 A 
HETATM   11  C18 UNL     1      16.913   0.204  51.943  1.00  0.00     0.002 A 
HETATM   12  C19 UNL     1      18.015   1.004  51.562  1.00  0.00     0.030 A 
HETATM   13  C20 UNL     1      19.213   0.578  52.032  1.00  0.00     0.042 A 
HETATM   14  N2  UNL     1      20.472   1.034  51.745  1.00  0.00    -0.308 N 
HETATM   15  C21 UNL     1      21.714   1.487  51.438  1.00  0.00     0.324 C 
HETATM   16  O2  UNL     1      21.977   1.698  50.334  1.00  0.00    -0.247 OA
HETATM   17  H24 UNL     1      20.207   0.944  50.705  1.00  0.00     0.170 HD
ENDROOT
BRANCH   1  18
HETATM   18  C8  UNL     1      23.758   2.211  50.362  1.00  0.00     0.298 C 
BRANCH  18  19
HETATM   19  O1  UNL     1      24.707   3.200  50.524  1.00  0.00    -0.368 OA
BRANCH  19  20
HETATM   20  C7  UNL     1      24.308   4.266  49.699  1.00  0.00     0.204 C 
BRANCH  20  21
HETATM   21  C6  UNL     1      25.447   4.965  49.116  1.00  0.00    -0.052 C 
HETATM   22  C5  UNL     1      25.116   6.191  48.691  1.00  0.00     0.006 C 
HETATM   23  C4  UNL     1      26.143   7.059  48.068  1.00  0.00     0.013 C 
HETATM   24  C3  UNL     1      27.357   6.855  48.534  1.00  0.00    -0.023 C 
HETATM   25  C2  UNL     1      27.754   5.594  48.572  1.00  0.00    -0.069 C 
HETATM   26  C1  UNL     1      29.174   5.379  48.204  1.00  0.00     0.044 C 
HETATM   27  C22 UNL     1      26.830   4.469  48.969  1.00  0.00     0.071 C 
ENDBRANCH  20  21
ENDBRANCH  19  20
ENDBRANCH  18  19
ENDBRANCH   1  18
TORSDOF 4
ENDMDL
MODEL 6
REMARK VINA RESULT:      -8.6      2.875      5.253
REMARK  4 active torsions:
REMARK  status: ('A' for Active; 'I' for Inactive)
REMARK    1  A    between atoms: C6_6  and  C7_7 
REMARK    2  A    between atoms: C7_7  and  O1_8 
REMARK    3  A    between atoms: O1_8  and  C8_9 
REMARK    4  A    between atoms: C8_9  and  N1_10 
ROOT
HETATM    1  N1  UNL     1      22.998   2.329  51.461  1.00  0.00    -0.312 N 
HETATM    2  C9  UNL     1      23.409   2.435  52.885  1.00  0.00     0.133 C 
HETATM    3  C10 UNL     1      23.654   1.001  53.382  1.00  0.00     0.047 C 
HETATM    4  C11 UNL     1      22.399   0.291  53.647  1.00  0.00    -0.029 C 
HETATM    5  C12 UNL     1      21.296  -0.400  54.033  1.00  0.00    -0.030 C 
HETATM    6  C13 UNL     1      19.943  -0.711  53.336  1.00  0.00     0.031 C 
HETATM    7  C14 UNL     1      20.101   0.073  52.125  1.00  0.00     0.044 C 
HETATM    8  C15 UNL     1      19.023   0.396  51.193  1.00  0.00    -0.031 A 
HETATM    9  C16 UNL     1      17.835  -0.205  51.094  1.00  0.00     0.009 A 
HETATM   10  C17 UNL     1      17.017   0.409  50.218  1.00  0.00     0.001 A 
HETATM   11  C18 UNL     1      17.052   1.484  49.388  1.00  0.00     0.002 A 
HETATM   12  C19 UNL     1      18.309   2.122  49.488  1.00  0.00     0.030 A 
HETATM   13  C20 UNL     1      19.173   1.540  50.357  1.00  0.00     0.042 A 
HETATM   14  N2  UNL     1      20.493   1.818  50.589  1.00  0.00    -0.308 N 
HETATM   15  C21 UNL     1      21.806   2.094  50.796  1.00  0.00     0.324 C 
HETATM   16  O2  UNL     1      22.495   2.258  49.885  1.00  0.00    -0.247 OA
HETATM   17  H24 UNL     1      20.635   1.756  49.524  1.00  0.00     0.170 HD
ENDROOT
BRANCH   1  18
HETATM   18  C8  UNL     1      24.181   2.522  50.608  1.00  0.00     0.298 C 
BRANCH  18  19
HETATM   19  O1  UNL     1      25.165   3.281  51.208  1.00  0.00    -0.368 OA
BRANCH  19  20
HETATM   20  C7  UNL     1      26.392   2.738  50.788  1.00  0.00     0.204 C 
BRANCH  20  21
HETATM   21  C6  UNL     1      26.848   1.668  51.667  1.00  0.00    -0.052 C 
HETATM   22  C5  UNL     1      27.477   2.146  52.749  1.00  0.00     0.006 C 
HETATM   23  C4  UNL     1      28.014   1.209  53.764  1.00  0.00     0.013 C 
HETATM   24  C3  UNL     1      27.320   0.097  53.873  1.00  0.00    -0.023 C 
HETATM   25  C2  UNL     1      27.052  -0.528  52.739  1.00  0.00    -0.069 C 
HETATM   26  C1  UNL     1      27.135  -2.006  52.810  1.00  0.00     0.044 C 
HETATM   27  C22 UNL     1      26.686   0.214  51.477  1.00  0.00     0.071 C 
ENDBRANCH  20  21
ENDBRANCH  19  20
ENDBRANCH  18  19
ENDBRANCH   1  18
TORSDOF 4
ENDMDL
MODEL 7
REMARK VINA RESULT:      -8.5      1.560      3.418
REMARK  4 active torsions:
REMARK  status: ('A' for Active; 'I' for Inactive)
REMARK    1  A    between atoms: C6_6  and  C7_7 
REMARK    2  A    between atoms: C7_7  and  O1_8 
REMARK    3  A    between atoms: O1_8  and  C8_9 
REMARK    4  A    between atoms: C8_9  and  N1_10 
ROOT
HETATM    1  N1  UNL     1      23.679   2.725  50.594  1.00  0.00    -0.312 N 
HETATM    2  C9  UNL     1      22.997   2.483  49.296  1.00  0.00     0.133 C 
HETATM    3  C10 UNL     1      21.523   2.873  49.491  1.00  0.00     0.047 C 
HETATM    4  C11 UNL     1      20.780   1.853  50.236  1.00  0.00    -0.029 C 
HETATM    5  C12 UNL     1      19.987   0.911  50.809  1.00  0.00    -0.030 C 
HETATM    6  C13 UNL     1      20.100   0.088  52.121  1.00  0.00     0.031 C 
HETATM    7  C14 UNL     1      21.415   0.508  52.567  1.00  0.00     0.044 C 
HETATM    8  C15 UNL     1      22.189  -0.146  53.619  1.00  0.00    -0.031 A 
HETATM    9  C16 UNL     1      21.735  -0.990  54.548  1.00  0.00     0.009 A 
HETATM   10  C17 UNL     1      22.723  -1.514  55.297  1.00  0.00     0.001 A 
HETATM   11  C18 UNL     1      24.077  -1.431  55.383  1.00  0.00     0.002 A 
HETATM   12  C19 UNL     1      24.562  -0.537  54.402  1.00  0.00     0.030 A 
HETATM   13  C20 UNL     1      23.604   0.023  53.622  1.00  0.00     0.042 A 
HETATM   14  N2  UNL     1      23.715   1.014  52.684  1.00  0.00    -0.308 N 
HETATM   15  C21 UNL     1      23.838   2.009  51.769  1.00  0.00     0.324 C 
HETATM   16  O2  UNL     1      24.471   2.937  52.032  1.00  0.00    -0.247 OA
HETATM   17  H24 UNL     1      24.241   1.584  53.431  1.00  0.00     0.170 HD
ENDROOT
BRANCH   1  18
HETATM   18  C8  UNL     1      24.306   4.054  50.562  1.00  0.00     0.298 C 
BRANCH  18  19
HETATM   19  O1  UNL     1      24.853   4.368  49.335  1.00  0.00    -0.368 OA
BRANCH  19  20
HETATM   20  C7  UNL     1      26.242   4.189  49.466  1.00  0.00     0.204 C 
BRANCH  20  21
HETATM   21  C6  UNL     1      26.997   5.221  48.767  1.00  0.00    -0.052 C 
HETATM   22  C5  UNL     1      26.233   6.279  48.465  1.00  0.00     0.006 C 
HETATM   23  C4  UNL     1      26.824   7.436  47.752  1.00  0.00     0.013 C 
HETATM   24  C3  UNL     1      28.097   7.629  48.024  1.00  0.00    -0.023 C 
HETATM   25  C2  UNL     1      28.873   6.562  47.933  1.00  0.00    -0.069 C 
HETATM   26  C1  UNL     1      30.212   6.818  47.352  1.00  0.00     0.044 C 
HETATM   27  C22 UNL     1      28.425   5.197  48.393  1.00  0.00     0.071 C 
ENDBRANCH  20  21
ENDBRANCH  19  20
ENDBRANCH  18  19
ENDBRANCH   1  18
TORSDOF 4
ENDMDL
MODEL 8
REMARK VINA RESULT:      -8.5      2.289      8.195
REMARK  4 active torsions:
REMARK  status: ('A' for Active; 'I' for Inactive)
REMARK    1  A    between atoms: C6_6  and  C7_7 
REMARK    2  A    between atoms: C7_7  and  O1_8 
REMARK    3  A    between atoms: O1_8  and  C8_9 
REMARK    4  A    between atoms: C8_9  and  N1_10 
ROOT
HETATM    1  N1  UNL     1      24.122   4.129  51.250  1.00  0.00    -0.312 N 
HETATM    2  C9  UNL     1      23.368   4.918  52.259  1.00  0.00     0.133 C 
HETATM    3  C10 UNL     1      22.223   5.616  51.508  1.00  0.00     0.047 C 
HETATM    4  C11 UNL     1      22.695   6.774  50.743  1.00  0.00    -0.029 C 
HETATM    5  C12 UNL     1      23.020   7.929  50.106  1.00  0.00    -0.030 C 
HETATM    6  C13 UNL     1      24.121   8.296  49.075  1.00  0.00     0.031 C 
HETATM    7  C14 UNL     1      24.856   7.044  49.039  1.00  0.00     0.044 C 
HETATM    8  C15 UNL     1      26.178   6.868  48.444  1.00  0.00    -0.031 A 
HETATM    9  C16 UNL     1      26.787   7.681  47.577  1.00  0.00     0.009 A 
HETATM   10  C17 UNL     1      28.051   7.301  47.313  1.00  0.00     0.001 A 
HETATM   11  C18 UNL     1      28.904   6.309  47.681  1.00  0.00     0.002 A 
HETATM   12  C19 UNL     1      28.263   5.446  48.599  1.00  0.00     0.030 A 
HETATM   13  C20 UNL     1      26.984   5.784  48.896  1.00  0.00     0.042 A 
HETATM   14  N2  UNL     1      26.051   5.100  49.628  1.00  0.00    -0.308 N 
HETATM   15  C21 UNL     1      25.133   4.402  50.343  1.00  0.00     0.324 C 
HETATM   16  O2  UNL     1      25.018   3.269  50.155  1.00  0.00    -0.247 OA
HETATM   17  H24 UNL     1      26.283   4.243  49.019  1.00  0.00     0.170 HD
ENDROOT
BRANCH   1  18
HETATM   18  C8  UNL     1      23.628   2.744  51.263  1.00  0.00     0.298 C 
BRANCH  18  19
HETATM   19  O1  UNL     1      23.319   2.289  52.529  1.00  0.00    -0.368 OA
BRANCH  19  20
HETATM   20  C7  UNL     1      23.787   0.964  52.596  1.00  0.00     0.204 C 
BRANCH  20  21
HETATM   21  C6  UNL     1      25.209   0.899  52.908  1.00  0.00    -0.052 C 
HETATM   22  C5  UNL     1      25.694  -0.342  52.770  1.00  0.00     0.006 C 
HETATM   23  C4  UNL     1      27.126  -0.609  53.042  1.00  0.00     0.013 C 
HETATM   24  C3  UNL     1      27.912   0.412  52.777  1.00  0.00    -0.023 C 
HETATM   25  C2  UNL     1      27.536   1.574  53.284  1.00  0.00    -0.069 C 
HETATM   26  C1  UNL     1      28.645   2.415  53.794  1.00  0.00     0.044 C 
HETATM   27  C22 UNL     1      26.091   2.005  53.330  1.00  0.00     0.071 C 
ENDBRANCH  20  21
ENDBRANCH  19  20
ENDBRANCH  18  19
ENDBRANCH   1  18
TORSDOF 4
ENDMDL
MODEL 9
REMARK VINA RESULT:      -8.4      2.012      9.375
REMARK  4 active torsions:
REMARK  status: ('A' for Active; 'I' for Inactive)
REMARK    1  A    between atoms: C6_6  and  C7_7 
REMARK    2  A    between atoms: C7_7  and  O1_8 
REMARK    3  A    between atoms: O1_8  and  C8_9 
REMARK    4  A    between atoms: C8_9  and  N1_10 
ROOT
HETATM    1  N1  UNL     1      24.515   4.427  50.512  1.00  0.00    -0.312 N 
HETATM    2  C9  UNL     1      23.738   5.230  51.491  1.00  0.00     0.133 C 
HETATM    3  C10 UNL     1      22.729   6.060  50.682  1.00  0.00     0.047 C 
HETATM    4  C11 UNL     1      23.364   7.207  50.026  1.00  0.00    -0.029 C 
HETATM    5  C12 UNL     1      23.840   8.358  49.484  1.00  0.00    -0.030 C 
HETATM    6  C13 UNL     1      25.059   8.676  48.576  1.00  0.00     0.031 C 
HETATM    7  C14 UNL     1      25.688   7.368  48.536  1.00  0.00     0.044 C 
HETATM    8  C15 UNL     1      27.041   7.106  48.052  1.00  0.00    -0.031 A 
HETATM    9  C16 UNL     1      27.792   7.902  47.288  1.00  0.00     0.009 A 
HETATM   10  C17 UNL     1      29.040   7.427  47.117  1.00  0.00     0.001 A 
HETATM   11  C18 UNL     1      29.771   6.349  47.504  1.00  0.00     0.002 A 
HETATM   12  C19 UNL     1      28.979   5.502  48.313  1.00  0.00     0.030 A 
HETATM   13  C20 UNL     1      27.709   5.936  48.513  1.00  0.00     0.042 A 
HETATM   14  N2  UNL     1      26.660   5.302  49.122  1.00  0.00    -0.308 N 
HETATM   15  C21 UNL     1      25.625   4.654  49.714  1.00  0.00     0.324 C 
HETATM   16  O2  UNL     1      25.435   3.545  49.455  1.00  0.00    -0.247 OA
HETATM   17  H24 UNL     1      26.876   4.458  48.490  1.00  0.00     0.170 HD
ENDROOT
BRANCH   1  18
HETATM   18  C8  UNL     1      23.910   3.091  50.405  1.00  0.00     0.298 C 
BRANCH  18  19
HETATM   19  O1  UNL     1      23.152   2.749  51.507  1.00  0.00    -0.368 OA
BRANCH  19  20
HETATM   20  C7  UNL     1      22.789   1.401  51.331  1.00  0.00     0.204 C 
BRANCH  20  21
HETATM   21  C6  UNL     1      22.488   0.745  52.597  1.00  0.00    -0.052 C 
HETATM   22  C5  UNL     1      21.216   0.936  52.969  1.00  0.00     0.006 C 
HETATM   23  C4  UNL     1      20.718   0.343  54.232  1.00  0.00     0.013 C 
HETATM   24  C3  UNL     1      21.309  -0.789  54.551  1.00  0.00    -0.023 C 
HETATM   25  C2  UNL     1      22.631  -0.778  54.514  1.00  0.00    -0.069 C 
HETATM   26  C1  UNL     1      23.288  -1.537  55.605  1.00  0.00     0.044 C 
HETATM   27  C22 UNL     1      23.402  -0.053  53.439  1.00  0.00     0.071 C 
ENDBRANCH  20  21
ENDBRANCH  19  20
ENDBRANCH  18  19
ENDBRANCH   1  18
TORSDOF 4
ENDMDL
