MODEL 1
REMARK VINA RESULT:      -8.4      0.000      0.000
REMARK  3 active torsions:
REMARK  status: ('A' for Active; 'I' for Inactive)
REMARK    1  A    between atoms: C4_5  and  C5_6 
REMARK       I    between atoms: C5_6  and  N2_8 
REMARK    2  A    between atoms: N2_8  and  C6_9 
REMARK    3  A    between atoms: C9_12  and  N3_13 
ROOT
HETATM    1  C5  UNL     1      24.164  -0.009  53.256  1.00  0.00     0.262 C 
HETATM    2  O1  UNL     1      23.954   1.210  53.041  1.00  0.00    -0.267 OA
HETATM    3  N2  UNL     1      23.041  -0.854  53.132  1.00  0.00    -0.323 N 
HETATM    4  H5  UNL     1      23.260  -1.855  53.328  1.00  0.00     0.169 HD
ENDROOT
BRANCH   3   5
HETATM    5  C6  UNL     1      21.719  -0.560  52.804  1.00  0.00     0.035 A 
HETATM    6  C7  UNL     1      20.692  -0.935  53.669  1.00  0.00     0.032 A 
HETATM    7  C8  UNL     1      19.362  -0.691  53.434  1.00  0.00     0.031 A 
HETATM    8  C9  UNL     1      18.975  -0.039  52.286  1.00  0.00     0.030 A 
HETATM    9  C15 UNL     1      19.930   0.364  51.380  1.00  0.00     0.031 A 
HETATM   10  C16 UNL     1      21.242   0.084  51.685  1.00  0.00     0.032 A 
BRANCH   8  11
HETATM   11  N3  UNL     1      17.612   0.237  52.001  1.00  0.00    -0.378 N 
HETATM   12  C10 UNL     1      17.094   1.271  51.132  1.00  0.00     0.153 C 
HETATM   13  C11 UNL     1      16.046   0.577  50.257  1.00  0.00     0.291 C 
HETATM   14  N4  UNL     1      14.856   0.500  51.118  1.00  0.00     0.087 N 
HETATM   15  C12 UNL     1      14.275   1.847  51.111  1.00  0.00     0.310 C 
HETATM   16  C13 UNL     1      15.245   0.223  52.473  1.00  0.00     0.291 C 
HETATM   17  C14 UNL     1      16.546  -0.541  52.592  1.00  0.00     0.153 C 
ENDBRANCH   8  11
ENDBRANCH   3   5
BRANCH   1  18
HETATM   18  C4  UNL     1      25.533  -0.353  53.599  1.00  0.00     0.112 C 
HETATM   19  C3  UNL     1      26.343  -0.558  52.571  1.00  0.00     0.013 C 
HETATM   20  C2  UNL     1      27.618  -0.483  52.620  1.00  0.00     0.100 C 
HETATM   21  N1  UNL     1      28.582  -0.307  53.637  1.00  0.00    -0.377 N 
HETATM   22  C1  UNL     1      29.837  -1.007  53.412  1.00  0.00     0.150 C 
HETATM   23  C18 UNL     1      28.411   0.488  54.836  1.00  0.00     0.248 C 
HETATM   24  N5  UNL     1      27.228  -0.002  55.516  1.00  0.00    -0.341 N 
HETATM   25  C17 UNL     1      25.992  -0.457  54.980  1.00  0.00     0.259 C 
HETATM   26  H21 UNL     1      27.214  -0.056  56.557  1.00  0.00     0.164 HD
HETATM   27  O2  UNL     1      25.106  -1.035  55.688  1.00  0.00    -0.267 OA
ENDBRANCH   1  18
TORSDOF 3
ENDMDL
MODEL 2
REMARK VINA RESULT:      -7.9      6.756      8.529
REMARK  3 active torsions:
REMARK  status: ('A' for Active; 'I' for Inactive)
REMARK    1  A    between atoms: C4_5  and  C5_6 
REMARK       I    between atoms: C5_6  and  N2_8 
REMARK    2  A    between atoms: N2_8  and  C6_9 
REMARK    3  A    between atoms: C9_12  and  N3_13 
ROOT
HETATM    1  C5  UNL     1      26.980   5.731  49.028  1.00  0.00     0.262 C 
HETATM    2  O1  UNL     1      26.090   6.351  49.661  1.00  0.00    -0.267 OA
HETATM    3  N2  UNL     1      26.991   4.331  49.202  1.00  0.00    -0.323 N 
HETATM    4  H5  UNL     1      27.751   3.860  48.666  1.00  0.00     0.169 HD
ENDROOT
BRANCH   3   5
HETATM    5  C6  UNL     1      26.167   3.507  49.967  1.00  0.00     0.035 A 
HETATM    6  C7  UNL     1      26.714   2.754  51.004  1.00  0.00     0.032 A 
HETATM    7  C8  UNL     1      25.986   1.915  51.810  1.00  0.00     0.031 A 
HETATM    8  C9  UNL     1      24.631   1.782  51.618  1.00  0.00     0.030 A 
HETATM    9  C15 UNL     1      24.014   2.493  50.613  1.00  0.00     0.031 A 
HETATM   10  C16 UNL     1      24.810   3.312  49.847  1.00  0.00     0.032 A 
BRANCH   8  11
HETATM   11  N3  UNL     1      23.837   0.928  52.428  1.00  0.00    -0.378 N 
HETATM   12  C10 UNL     1      22.423   1.059  52.711  1.00  0.00     0.153 C 
HETATM   13  C11 UNL     1      21.837  -0.340  52.497  1.00  0.00     0.291 C 
HETATM   14  N4  UNL     1      22.167  -1.059  53.737  1.00  0.00     0.087 N 
HETATM   15  C12 UNL     1      21.210  -0.582  54.739  1.00  0.00     0.310 C 
HETATM   16  C13 UNL     1      23.475  -0.675  54.196  1.00  0.00     0.291 C 
HETATM   17  C14 UNL     1      24.404  -0.226  53.089  1.00  0.00     0.153 C 
ENDBRANCH   8  11
ENDBRANCH   3   5
BRANCH   1  18
HETATM   18  C4  UNL     1      27.857   6.558  48.217  1.00  0.00     0.112 C 
HETATM   19  C3  UNL     1      27.260   7.524  47.537  1.00  0.00     0.013 C 
HETATM   20  C2  UNL     1      27.841   8.573  47.094  1.00  0.00     0.100 C 
HETATM   21  N1  UNL     1      29.173   9.037  47.025  1.00  0.00    -0.377 N 
HETATM   22  C1  UNL     1      29.478   9.837  45.849  1.00  0.00     0.150 C 
HETATM   23  C18 UNL     1      30.210   8.780  48.003  1.00  0.00     0.248 C 
HETATM   24  N5  UNL     1      30.317   7.342  48.154  1.00  0.00    -0.341 N 
HETATM   25  C17 UNL     1      29.300   6.349  48.161  1.00  0.00     0.259 C 
HETATM   26  H21 UNL     1      31.254   6.903  48.281  1.00  0.00     0.164 HD
HETATM   27  O2  UNL     1      29.555   5.102  48.116  1.00  0.00    -0.267 OA
ENDBRANCH   1  18
TORSDOF 3
ENDMDL
MODEL 3
REMARK VINA RESULT:      -7.8      6.582     10.177
REMARK  3 active torsions:
REMARK  status: ('A' for Active; 'I' for Inactive)
REMARK    1  A    between atoms: C4_5  and  C5_6 
REMARK       I    between atoms: C5_6  and  N2_8 
REMARK    2  A    between atoms: N2_8  and  C6_9 
REMARK    3  A    between atoms: C9_12  and  N3_13 
ROOT
HETATM    1  C5  UNL     1      24.586   2.228  51.429  1.00  0.00     0.262 C 
HETATM    2  O1  UNL     1      25.564   2.466  52.180  1.00  0.00    -0.267 OA
HETATM    3  N2  UNL     1      24.550   2.957  50.221  1.00  0.00    -0.323 N 
HETATM    4  H5  UNL     1      23.717   2.734  49.635  1.00  0.00     0.169 HD
ENDROOT
BRANCH   3   5
HETATM    5  C6  UNL     1      25.431   3.909  49.712  1.00  0.00     0.035 A 
HETATM    6  C7  UNL     1      25.035   5.243  49.629  1.00  0.00     0.032 A 
HETATM    7  C8  UNL     1      25.829   6.251  49.143  1.00  0.00     0.031 A 
HETATM    8  C9  UNL     1      27.102   5.971  48.701  1.00  0.00     0.030 A 
HETATM    9  C15 UNL     1      27.568   4.677  48.750  1.00  0.00     0.031 A 
HETATM   10  C16 UNL     1      26.714   3.722  49.250  1.00  0.00     0.032 A 
BRANCH   8  11
HETATM   11  N3  UNL     1      27.959   6.981  48.191  1.00  0.00    -0.378 N 
HETATM   12  C10 UNL     1      27.683   8.400  48.106  1.00  0.00     0.153 C 
HETATM   13  C11 UNL     1      28.935   9.089  48.660  1.00  0.00     0.291 C 
HETATM   14  N4  UNL     1      29.885   9.058  47.538  1.00  0.00     0.087 N 
HETATM   15  C12 UNL     1      29.450  10.117  46.621  1.00  0.00     0.310 C 
HETATM   16  C13 UNL     1      29.764   7.816  46.824  1.00  0.00     0.291 C 
HETATM   17  C14 UNL     1      29.272   6.666  47.675  1.00  0.00     0.153 C 
ENDBRANCH   8  11
ENDBRANCH   3   5
BRANCH   1  18
HETATM   18  C4  UNL     1      23.647   1.238  51.927  1.00  0.00     0.112 C 
HETATM   19  C3  UNL     1      24.094   0.476  52.913  1.00  0.00     0.013 C 
HETATM   20  C2  UNL     1      23.353  -0.161  53.738  1.00  0.00     0.100 C 
HETATM   21  N1  UNL     1      21.968  -0.404  53.873  1.00  0.00    -0.377 N 
HETATM   22  C1  UNL     1      21.631  -1.704  54.431  1.00  0.00     0.150 C 
HETATM   23  C18 UNL     1      20.909   0.515  53.509  1.00  0.00     0.248 C 
HETATM   24  N5  UNL     1      21.099   0.864  52.114  1.00  0.00    -0.341 N 
HETATM   25  C17 UNL     1      22.298   1.096  51.388  1.00  0.00     0.259 C 
HETATM   26  H21 UNL     1      20.270   0.976  51.491  1.00  0.00     0.164 HD
HETATM   27  O2  UNL     1      22.324   1.212  50.121  1.00  0.00    -0.267 OA
ENDBRANCH   1  18
TORSDOF 3
ENDMDL
MODEL 4
REMARK VINA RESULT:      -7.7      1.880      2.081
REMARK  3 active torsions:
REMARK  status: ('A' for Active; 'I' for Inactive)
REMARK    1  A    between atoms: C4_5  and  C5_6 
REMARK       I    between atoms: C5_6  and  N2_8 
REMARK    2  A    between atoms: N2_8  and  C6_9 
REMARK    3  A    between atoms: C9_12  and  N3_13 
ROOT
HETATM    1  C5  UNL     1      24.325   0.570  52.524  1.00  0.00     0.262 C 
HETATM    2  O1  UNL     1      24.469   1.656  51.911  1.00  0.00    -0.267 OA
HETATM    3  N2  UNL     1      23.003   0.082  52.602  1.00  0.00    -0.323 N 
HETATM    4  H5  UNL     1      22.931  -0.816  53.128  1.00  0.00     0.169 HD
ENDROOT
BRANCH   3   5
HETATM    5  C6  UNL     1      21.813   0.609  52.104  1.00  0.00     0.035 A 
HETATM    6  C7  UNL     1      21.061   1.481  52.888  1.00  0.00     0.032 A 
HETATM    7  C8  UNL     1      19.878   2.049  52.486  1.00  0.00     0.031 A 
HETATM    8  C9  UNL     1      19.369   1.768  51.239  1.00  0.00     0.030 A 
HETATM    9  C15 UNL     1      20.053   0.915  50.404  1.00  0.00     0.031 A 
HETATM   10  C16 UNL     1      21.231   0.384  50.877  1.00  0.00     0.032 A 
BRANCH   8  11
HETATM   11  N3  UNL     1      18.150   2.333  50.780  1.00  0.00    -0.378 N 
HETATM   12  C10 UNL     1      17.178   3.066  51.563  1.00  0.00     0.153 C 
HETATM   13  C11 UNL     1      16.848   4.311  50.734  1.00  0.00     0.291 C 
HETATM   14  N4  UNL     1      15.889   3.827  49.729  1.00  0.00     0.087 N 
HETATM   15  C12 UNL     1      14.609   3.698  50.432  1.00  0.00     0.310 C 
HETATM   16  C13 UNL     1      16.258   2.508  49.292  1.00  0.00     0.291 C 
HETATM   17  C14 UNL     1      17.740   2.220  49.398  1.00  0.00     0.153 C 
ENDBRANCH   8  11
ENDBRANCH   3   5
BRANCH   1  18
HETATM   18  C4  UNL     1      25.546  -0.010  53.057  1.00  0.00     0.112 C 
HETATM   19  C3  UNL     1      26.535  -0.151  52.188  1.00  0.00     0.013 C 
HETATM   20  C2  UNL     1      27.770  -0.260  52.498  1.00  0.00     0.100 C 
HETATM   21  N1  UNL     1      28.503  -0.387  53.699  1.00  0.00    -0.377 N 
HETATM   22  C1  UNL     1      29.701  -1.205  53.595  1.00  0.00     0.150 C 
HETATM   23  C18 UNL     1      28.156   0.215  54.969  1.00  0.00     0.248 C 
HETATM   24  N5  UNL     1      26.810  -0.215  55.299  1.00  0.00    -0.341 N 
HETATM   25  C17 UNL     1      25.682  -0.402  54.456  1.00  0.00     0.259 C 
HETATM   26  H21 UNL     1      26.566  -0.437  56.288  1.00  0.00     0.164 HD
HETATM   27  O2  UNL     1      24.610  -0.962  54.854  1.00  0.00    -0.267 OA
ENDBRANCH   1  18
TORSDOF 3
ENDMDL
MODEL 5
REMARK VINA RESULT:      -7.6      2.349      9.835
REMARK  3 active torsions:
REMARK  status: ('A' for Active; 'I' for Inactive)
REMARK    1  A    between atoms: C4_5  and  C5_6 
REMARK       I    between atoms: C5_6  and  N2_8 
REMARK    2  A    between atoms: N2_8  and  C6_9 
REMARK    3  A    between atoms: C9_12  and  N3_13 
ROOT
HETATM    1  C5  UNL     1      19.755   1.604  51.917  1.00  0.00     0.262 C 
HETATM    2  O1  UNL     1      20.030   2.479  52.775  1.00  0.00    -0.267 OA
HETATM    3  N2  UNL     1      20.828   0.779  51.520  1.00  0.00    -0.323 N 
HETATM    4  H5  UNL     1      20.556   0.075  50.800  1.00  0.00     0.169 HD
ENDROOT
BRANCH   3   5
HETATM    5  C6  UNL     1      22.161   0.768  51.927  1.00  0.00     0.035 A 
HETATM    6  C7  UNL     1      22.565  -0.091  52.948  1.00  0.00     0.032 A 
HETATM    7  C8  UNL     1      23.852  -0.175  53.417  1.00  0.00     0.031 A 
HETATM    8  C9  UNL     1      24.834   0.621  52.874  1.00  0.00     0.030 A 
HETATM    9  C15 UNL     1      24.516   1.496  51.861  1.00  0.00     0.031 A 
HETATM   10  C16 UNL     1      23.205   1.523  51.444  1.00  0.00     0.032 A 
BRANCH   8  11
HETATM   11  N3  UNL     1      26.179   0.568  53.326  1.00  0.00    -0.378 N 
HETATM   12  C10 UNL     1      27.376   0.605  52.512  1.00  0.00     0.153 C 
HETATM   13  C11 UNL     1      28.293   1.628  53.189  1.00  0.00     0.291 C 
HETATM   14  N4  UNL     1      28.898   0.883  54.303  1.00  0.00     0.087 N 
HETATM   15  C12 UNL     1      29.934   0.038  53.700  1.00  0.00     0.310 C 
HETATM   16  C13 UNL     1      27.929  -0.004  54.887  1.00  0.00     0.291 C 
HETATM   17  C14 UNL     1      26.498   0.467  54.732  1.00  0.00     0.153 C 
ENDBRANCH   8  11
ENDBRANCH   3   5
BRANCH   1  18
HETATM   18  C4  UNL     1      18.373   1.585  51.470  1.00  0.00     0.112 C 
HETATM   19  C3  UNL     1      17.751   2.754  51.494  1.00  0.00     0.013 C 
HETATM   20  C2  UNL     1      16.712   3.043  50.807  1.00  0.00     0.100 C 
HETATM   21  N1  UNL     1      15.833   2.335  49.958  1.00  0.00    -0.377 N 
HETATM   22  C1  UNL     1      14.452   2.789  49.999  1.00  0.00     0.150 C 
HETATM   23  C18 UNL     1      16.200   1.236  49.088  1.00  0.00     0.248 C 
HETATM   24  N5  UNL     1      16.829   0.222  49.913  1.00  0.00    -0.341 N 
HETATM   25  C17 UNL     1      17.713   0.365  51.016  1.00  0.00     0.259 C 
HETATM   26  H21 UNL     1      16.646  -0.787  49.722  1.00  0.00     0.164 HD
HETATM   27  O2  UNL     1      18.043  -0.610  51.765  1.00  0.00    -0.267 OA
ENDBRANCH   1  18
TORSDOF 3
ENDMDL
MODEL 6
REMARK VINA RESULT:      -7.2      2.501      9.999
REMARK  3 active torsions:
REMARK  status: ('A' for Active; 'I' for Inactive)
REMARK    1  A    between atoms: C4_5  and  C5_6 
REMARK       I    between atoms: C5_6  and  N2_8 
REMARK    2  A    between atoms: N2_8  and  C6_9 
REMARK    3  A    between atoms: C9_12  and  N3_13 
ROOT
HETATM    1  C5  UNL     1      19.319   2.223  51.618  1.00  0.00     0.262 C 
HETATM    2  O1  UNL     1      19.621   2.895  52.635  1.00  0.00    -0.267 OA
HETATM    3  N2  UNL     1      20.308   1.325  51.163  1.00  0.00    -0.323 N 
HETATM    4  H5  UNL     1      20.016   0.796  50.312  1.00  0.00     0.169 HD
ENDROOT
BRANCH   3   5
HETATM    5  C6  UNL     1      21.581   1.052  51.659  1.00  0.00     0.035 A 
HETATM    6  C7  UNL     1      22.671   1.798  51.213  1.00  0.00     0.032 A 
HETATM    7  C8  UNL     1      23.960   1.605  51.641  1.00  0.00     0.031 A 
HETATM    8  C9  UNL     1      24.237   0.626  52.567  1.00  0.00     0.030 A 
HETATM    9  C15 UNL     1      23.214  -0.155  53.057  1.00  0.00     0.031 A 
HETATM   10  C16 UNL     1      21.950   0.099  52.580  1.00  0.00     0.032 A 
BRANCH   8  11
HETATM   11  N3  UNL     1      25.555   0.390  53.040  1.00  0.00    -0.378 N 
HETATM   12  C10 UNL     1      26.384   1.299  53.803  1.00  0.00     0.153 C 
HETATM   13  C11 UNL     1      26.950   0.460  54.953  1.00  0.00     0.291 C 
HETATM   14  N4  UNL     1      28.066  -0.277  54.343  1.00  0.00     0.087 N 
HETATM   15  C12 UNL     1      29.163   0.689  54.228  1.00  0.00     0.310 C 
HETATM   16  C13 UNL     1      27.721  -0.674  53.005  1.00  0.00     0.291 C 
HETATM   17  C14 UNL     1      26.235  -0.860  52.786  1.00  0.00     0.153 C 
ENDBRANCH   8  11
ENDBRANCH   3   5
BRANCH   1  18
HETATM   18  C4  UNL     1      17.996   2.480  51.074  1.00  0.00     0.112 C 
HETATM   19  C3  UNL     1      17.066   1.596  51.400  1.00  0.00     0.013 C 
HETATM   20  C2  UNL     1      15.807   1.816  51.372  1.00  0.00     0.100 C 
HETATM   21  N1  UNL     1      14.976   2.871  50.934  1.00  0.00    -0.377 N 
HETATM   22  C1  UNL     1      13.693   2.449  50.394  1.00  0.00     0.150 C 
HETATM   23  C18 UNL     1      15.301   4.281  50.985  1.00  0.00     0.248 C 
HETATM   24  N5  UNL     1      16.551   4.463  50.272  1.00  0.00    -0.341 N 
HETATM   25  C17 UNL     1      17.706   3.636  50.233  1.00  0.00     0.259 C 
HETATM   26  H21 UNL     1      16.690   5.309  49.678  1.00  0.00     0.164 HD
HETATM   27  O2  UNL     1      18.663   3.828  49.416  1.00  0.00    -0.267 OA
ENDBRANCH   1  18
TORSDOF 3
ENDMDL
MODEL 7
REMARK VINA RESULT:      -7.1      7.064     10.631
REMARK  3 active torsions:
REMARK  status: ('A' for Active; 'I' for Inactive)
REMARK    1  A    between atoms: C4_5  and  C5_6 
REMARK       I    between atoms: C5_6  and  N2_8 
REMARK    2  A    between atoms: N2_8  and  C6_9 
REMARK    3  A    between atoms: C9_12  and  N3_13 
ROOT
HETATM    1  C5  UNL     1      23.898   3.187  50.502  1.00  0.00     0.262 C 
HETATM    2  O1  UNL     1      23.507   3.257  49.311  1.00  0.00    -0.267 OA
HETATM    3  N2  UNL     1      25.089   3.884  50.796  1.00  0.00    -0.323 N 
HETATM    4  H5  UNL     1      25.380   3.790  51.794  1.00  0.00     0.169 HD
ENDROOT
BRANCH   3   5
HETATM    5  C6  UNL     1      25.916   4.651  49.977  1.00  0.00     0.035 A 
HETATM    6  C7  UNL     1      25.639   6.003  49.788  1.00  0.00     0.032 A 
HETATM    7  C8  UNL     1      26.392   6.839  49.002  1.00  0.00     0.031 A 
HETATM    8  C9  UNL     1      27.497   6.351  48.343  1.00  0.00     0.030 A 
HETATM    9  C15 UNL     1      27.838   5.024  48.479  1.00  0.00     0.031 A 
HETATM   10  C16 UNL     1      27.035   4.250  49.283  1.00  0.00     0.032 A 
BRANCH   8  11
HETATM   11  N3  UNL     1      28.307   7.178  47.520  1.00  0.00    -0.378 N 
HETATM   12  C10 UNL     1      27.865   8.260  46.666  1.00  0.00     0.153 C 
HETATM   13  C11 UNL     1      28.816   9.423  46.964  1.00  0.00     0.291 C 
HETATM   14  N4  UNL     1      30.022   9.106  46.184  1.00  0.00     0.087 N 
HETATM   15  C12 UNL     1      29.698   9.450  44.796  1.00  0.00     0.310 C 
HETATM   16  C13 UNL     1      30.270   7.691  46.214  1.00  0.00     0.291 C 
HETATM   17  C14 UNL     1      29.740   7.003  47.453  1.00  0.00     0.153 C 
ENDBRANCH   8  11
ENDBRANCH   3   5
BRANCH   1  18
HETATM   18  C4  UNL     1      23.059   2.396  51.387  1.00  0.00     0.112 C 
HETATM   19  C3  UNL     1      21.856   2.103  50.917  1.00  0.00     0.013 C 
HETATM   20  C2  UNL     1      21.130   1.133  51.326  1.00  0.00     0.100 C 
HETATM   21  N1  UNL     1      21.206   0.182  52.366  1.00  0.00    -0.377 N 
HETATM   22  C1  UNL     1      19.923  -0.204  52.933  1.00  0.00     0.150 C 
HETATM   23  C18 UNL     1      22.424  -0.409  52.884  1.00  0.00     0.248 C 
HETATM   24  N5  UNL     1      23.290   0.677  53.299  1.00  0.00    -0.341 N 
HETATM   25  C17 UNL     1      23.510   1.947  52.700  1.00  0.00     0.259 C 
HETATM   26  H21 UNL     1      23.867   0.578  54.162  1.00  0.00     0.164 HD
HETATM   27  O2  UNL     1      24.160   2.877  53.276  1.00  0.00    -0.267 OA
ENDBRANCH   1  18
TORSDOF 3
ENDMDL
MODEL 8
REMARK VINA RESULT:      -7.1      7.639     11.669
REMARK  3 active torsions:
REMARK  status: ('A' for Active; 'I' for Inactive)
REMARK    1  A    between atoms: C4_5  and  C5_6 
REMARK       I    between atoms: C5_6  and  N2_8 
REMARK    2  A    between atoms: N2_8  and  C6_9 
REMARK    3  A    between atoms: C9_12  and  N3_13 
ROOT
HETATM    1  C5  UNL     1      25.524   3.406  50.319  1.00  0.00     0.262 C 
HETATM    2  O1  UNL     1      26.603   3.215  50.933  1.00  0.00    -0.267 OA
HETATM    3  N2  UNL     1      25.533   4.461  49.382  1.00  0.00    -0.323 N 
HETATM    4  H5  UNL     1      24.614   4.588  48.903  1.00  0.00     0.169 HD
ENDROOT
BRANCH   3   5
HETATM    5  C6  UNL     1      26.551   5.339  49.016  1.00  0.00     0.035 A 
HETATM    6  C7  UNL     1      27.775   4.835  48.579  1.00  0.00     0.032 A 
HETATM    7  C8  UNL     1      28.836   5.617  48.199  1.00  0.00     0.031 A 
HETATM    8  C9  UNL     1      28.727   6.988  48.235  1.00  0.00     0.030 A 
HETATM    9  C15 UNL     1      27.549   7.565  48.655  1.00  0.00     0.031 A 
HETATM   10  C16 UNL     1      26.531   6.715  49.021  1.00  0.00     0.032 A 
BRANCH   8  11
HETATM   11  N3  UNL     1      29.797   7.838  47.849  1.00  0.00    -0.378 N 
HETATM   12  C10 UNL     1      29.710   9.230  47.463  1.00  0.00     0.153 C 
HETATM   13  C11 UNL     1      30.820   9.937  48.246  1.00  0.00     0.291 C 
HETATM   14  N4  UNL     1      32.040   9.648  47.477  1.00  0.00     0.087 N 
HETATM   15  C12 UNL     1      31.999  10.544  46.317  1.00  0.00     0.310 C 
HETATM   16  C13 UNL     1      31.994   8.305  46.966  1.00  0.00     0.291 C 
HETATM   17  C14 UNL     1      31.160   7.360  47.804  1.00  0.00     0.153 C 
ENDBRANCH   8  11
ENDBRANCH   3   5
BRANCH   1  18
HETATM   18  C4  UNL     1      24.439   2.506  50.673  1.00  0.00     0.112 C 
HETATM   19  C3  UNL     1      24.710   1.643  51.639  1.00  0.00     0.013 C 
HETATM   20  C2  UNL     1      23.832   1.052  52.358  1.00  0.00     0.100 C 
HETATM   21  N1  UNL     1      22.423   0.967  52.365  1.00  0.00    -0.377 N 
HETATM   22  C1  UNL     1      21.894  -0.314  52.806  1.00  0.00     0.150 C 
HETATM   23  C18 UNL     1      21.510   2.023  51.978  1.00  0.00     0.248 C 
HETATM   24  N5  UNL     1      21.859   2.425  50.629  1.00  0.00    -0.341 N 
HETATM   25  C17 UNL     1      23.136   2.555  50.019  1.00  0.00     0.259 C 
HETATM   26  H21 UNL     1      21.106   2.669  49.950  1.00  0.00     0.164 HD
HETATM   27  O2  UNL     1      23.286   2.739  48.768  1.00  0.00    -0.267 OA
ENDBRANCH   1  18
TORSDOF 3
ENDMDL
MODEL 9
REMARK VINA RESULT:      -7.0      8.317     10.088
REMARK  3 active torsions:
REMARK  status: ('A' for Active; 'I' for Inactive)
REMARK    1  A    between atoms: C4_5  and  C5_6 
REMARK       I    between atoms: C5_6  and  N2_8 
REMARK    2  A    between atoms: N2_8  and  C6_9 
REMARK    3  A    between atoms: C9_12  and  N3_13 
ROOT
HETATM    1  C5  UNL     1      26.197   3.299  50.396  1.00  0.00     0.262 C 
HETATM    2  O1  UNL     1      26.664   2.834  49.327  1.00  0.00    -0.267 OA
HETATM    3  N2  UNL     1      25.926   4.684  50.393  1.00  0.00    -0.323 N 
HETATM    4  H5  UNL     1      25.550   5.027  51.303  1.00  0.00     0.169 HD
ENDROOT
BRANCH   3   5
HETATM    5  C6  UNL     1      26.088   5.636  49.388  1.00  0.00     0.035 A 
HETATM    6  C7  UNL     1      24.972   6.289  48.868  1.00  0.00     0.032 A 
HETATM    7  C8  UNL     1      25.030   7.239  47.879  1.00  0.00     0.031 A 
HETATM    8  C9  UNL     1      26.244   7.600  47.343  1.00  0.00     0.030 A 
HETATM    9  C15 UNL     1      27.395   7.001  47.804  1.00  0.00     0.031 A 
HETATM   10  C16 UNL     1      27.256   6.058  48.795  1.00  0.00     0.032 A 
BRANCH   8  11
HETATM   11  N3  UNL     1      26.353   8.578  46.320  1.00  0.00    -0.378 N 
HETATM   12  C10 UNL     1      25.331   9.511  45.892  1.00  0.00     0.153 C 
HETATM   13  C11 UNL     1      26.033  10.870  45.813  1.00  0.00     0.291 C 
HETATM   14  N4  UNL     1      26.744  10.832  44.526  1.00  0.00     0.087 N 
HETATM   15  C12 UNL     1      25.721  11.064  43.502  1.00  0.00     0.310 C 
HETATM   16  C13 UNL     1      27.271   9.515  44.294  1.00  0.00     0.291 C 
HETATM   17  C14 UNL     1      27.572   8.744  45.561  1.00  0.00     0.153 C 
ENDBRANCH   8  11
ENDBRANCH   3   5
BRANCH   1  18
HETATM   18  C4  UNL     1      26.013   2.334  51.466  1.00  0.00     0.112 C 
HETATM   19  C3  UNL     1      24.754   2.054  51.768  1.00  0.00     0.013 C 
HETATM   20  C2  UNL     1      24.366   0.994  52.368  1.00  0.00     0.100 C 
HETATM   21  N1  UNL     1      24.999  -0.106  52.989  1.00  0.00    -0.377 N 
HETATM   22  C1  UNL     1      24.290  -0.645  54.139  1.00  0.00     0.150 C 
HETATM   23  C18 UNL     1      26.252  -0.704  52.575  1.00  0.00     0.248 C 
HETATM   24  N5  UNL     1      27.250   0.348  52.558  1.00  0.00    -0.341 N 
HETATM   25  C17 UNL     1      27.134   1.707  52.157  1.00  0.00     0.259 C 
HETATM   26  H21 UNL     1      28.222   0.144  52.875  1.00  0.00     0.164 HD
HETATM   27  O2  UNL     1      28.048   2.567  52.370  1.00  0.00    -0.267 OA
ENDBRANCH   1  18
TORSDOF 3
ENDMDL
