MODEL 1
REMARK VINA RESULT:      -8.3      0.000      0.000
REMARK  0 active torsions:
REMARK  status: ('A' for Active; 'I' for Inactive)
ROOT
HETATM    1 BR1  UNL     1      32.454   6.719  44.491  1.00  0.00    -0.051 Br
HETATM    2  C1  UNL     1      32.291   6.083  46.280  1.00  0.00     0.014 A 
HETATM    3  C2  UNL     1      31.613   6.717  47.231  1.00  0.00     0.081 A 
HETATM    4  C3  UNL     1      31.450   6.282  48.620  1.00  0.00     0.348 A 
HETATM    5  N1  UNL     1      32.074   7.276  49.485  1.00  0.00    -0.218 NA
HETATM    6  C4  UNL     1      31.482   8.409  49.655  1.00  0.00     0.233 C 
HETATM    7  N2  UNL     1      30.278   8.434  48.916  1.00  0.00    -0.230 NA
HETATM    8  C5  UNL     1      29.519   9.437  48.744  1.00  0.00     0.259 C 
HETATM    9  O1  UNL     1      28.657   8.664  47.977  1.00  0.00    -0.315 OA
HETATM   10  C6  UNL     1      27.542   8.137  48.619  1.00  0.00     0.156 C 
HETATM   11  C7  UNL     1      27.062   6.951  48.958  1.00  0.00     0.011 C 
HETATM   12  C8  UNL     1      25.779   7.069  49.648  1.00  0.00     0.124 C 
HETATM   13  N3  UNL     1      24.903   6.095  49.721  1.00  0.00    -0.300 NA
HETATM   14  C9  UNL     1      24.899   4.768  49.222  1.00  0.00     0.152 C 
HETATM   15  C10 UNL     1      26.124   3.962  49.392  1.00  0.00     0.049 C 
HETATM   16  C11 UNL     1      27.363   4.482  48.840  1.00  0.00    -0.015 C 
HETATM   17  C12 UNL     1      27.797   5.728  48.640  1.00  0.00    -0.020 C 
HETATM   18  C13 UNL     1      29.153   5.785  48.039  1.00  0.00     0.315 C 
HETATM   19  N4  UNL     1      30.074   6.181  49.056  1.00  0.00     0.143 N 
HETATM   20  N5  UNL     1      32.156   5.033  48.798  1.00  0.00    -0.344 N 
HETATM   21  C14 UNL     1      32.903   4.281  47.850  1.00  0.00     0.089 A 
HETATM   22  C15 UNL     1      32.942   4.827  46.645  1.00  0.00     0.035 A 
HETATM   23  H13 UNL     1      30.027   5.564  49.875  1.00  0.00     0.322 HD
HETATM   24  H14 UNL     1      32.041   4.712  49.800  1.00  0.00     0.163 HD
ENDROOT
TORSDOF 0
ENDMDL
MODEL 2
REMARK VINA RESULT:      -8.2      1.411      1.645
REMARK  0 active torsions:
REMARK  status: ('A' for Active; 'I' for Inactive)
ROOT
HETATM    1 BR1  UNL     1      33.392   4.915  43.980  1.00  0.00    -0.051 Br
HETATM    2  C1  UNL     1      33.111   4.607  45.840  1.00  0.00     0.014 A 
HETATM    3  C2  UNL     1      32.679   5.538  46.685  1.00  0.00     0.081 A 
HETATM    4  C3  UNL     1      32.444   5.366  48.121  1.00  0.00     0.348 A 
HETATM    5  N1  UNL     1      33.358   6.243  48.841  1.00  0.00    -0.218 NA
HETATM    6  C4  UNL     1      33.127   7.512  48.844  1.00  0.00     0.233 C 
HETATM    7  N2  UNL     1      31.959   7.786  48.098  1.00  0.00    -0.230 NA
HETATM    8  C5  UNL     1      31.519   8.933  47.779  1.00  0.00     0.259 C 
HETATM    9  O1  UNL     1      30.444   8.349  47.122  1.00  0.00    -0.315 OA
HETATM   10  C6  UNL     1      29.246   8.265  47.823  1.00  0.00     0.156 C 
HETATM   11  C7  UNL     1      28.454   7.329  48.323  1.00  0.00     0.011 C 
HETATM   12  C8  UNL     1      27.285   7.912  48.978  1.00  0.00     0.124 C 
HETATM   13  N3  UNL     1      26.166   7.257  49.181  1.00  0.00    -0.300 NA
HETATM   14  C9  UNL     1      25.760   5.934  48.876  1.00  0.00     0.152 C 
HETATM   15  C10 UNL     1      26.702   4.836  49.169  1.00  0.00     0.049 C 
HETATM   16  C11 UNL     1      28.019   4.889  48.559  1.00  0.00    -0.015 C 
HETATM   17  C12 UNL     1      28.790   5.914  48.188  1.00  0.00    -0.020 C 
HETATM   18  C13 UNL     1      30.083   5.488  47.596  1.00  0.00     0.315 C 
HETATM   19  N4  UNL     1      31.113   5.733  48.555  1.00  0.00     0.143 N 
HETATM   20  N5  UNL     1      32.761   4.002  48.480  1.00  0.00    -0.344 N 
HETATM   21  C14 UNL     1      33.225   2.941  47.655  1.00  0.00     0.089 A 
HETATM   22  C15 UNL     1      33.381   3.279  46.385  1.00  0.00     0.035 A 
HETATM   23  H13 UNL     1      30.916   5.277  49.453  1.00  0.00     0.322 HD
HETATM   24  H14 UNL     1      32.592   3.871  49.517  1.00  0.00     0.163 HD
ENDROOT
TORSDOF 0
ENDMDL
MODEL 3
REMARK VINA RESULT:      -8.0      6.898      9.156
REMARK  0 active torsions:
REMARK  status: ('A' for Active; 'I' for Inactive)
ROOT
HETATM    1 BR1  UNL     1      22.650   2.116  47.492  1.00  0.00    -0.051 Br
HETATM    2  C1  UNL     1      23.127   3.238  48.958  1.00  0.00     0.014 A 
HETATM    3  C2  UNL     1      23.013   2.876  50.232  1.00  0.00     0.081 A 
HETATM    4  C3  UNL     1      23.360   3.689  51.401  1.00  0.00     0.348 A 
HETATM    5  N1  UNL     1      22.143   3.927  52.167  1.00  0.00    -0.218 NA
HETATM    6  C4  UNL     1      21.643   2.957  52.855  1.00  0.00     0.233 C 
HETATM    7  N2  UNL     1      22.441   1.801  52.700  1.00  0.00    -0.230 NA
HETATM    8  C5  UNL     1      22.170   0.634  53.119  1.00  0.00     0.259 C 
HETATM    9  O1  UNL     1      23.363   0.157  52.593  1.00  0.00    -0.315 OA
HETATM   10  C6  UNL     1      24.438   0.043  53.466  1.00  0.00     0.156 C 
HETATM   11  C7  UNL     1      25.631   0.588  53.645  1.00  0.00     0.011 C 
HETATM   12  C8  UNL     1      26.317   0.009  54.799  1.00  0.00     0.124 C 
HETATM   13  N3  UNL     1      27.618   0.042  54.961  1.00  0.00    -0.300 NA
HETATM   14  C9  UNL     1      28.670   0.579  54.176  1.00  0.00     0.152 C 
HETATM   15  C10 UNL     1      28.493   1.934  53.618  1.00  0.00     0.049 C 
HETATM   16  C11 UNL     1      27.338   2.176  52.770  1.00  0.00    -0.015 C 
HETATM   17  C12 UNL     1      26.119   1.633  52.748  1.00  0.00    -0.020 C 
HETATM   18  C13 UNL     1      25.247   2.200  51.689  1.00  0.00     0.315 C 
HETATM   19  N4  UNL     1      24.289   3.056  52.312  1.00  0.00     0.143 N 
HETATM   20  N5  UNL     1      23.854   4.968  50.943  1.00  0.00    -0.344 N 
HETATM   21  C14 UNL     1      24.014   5.444  49.612  1.00  0.00     0.089 A 
HETATM   22  C15 UNL     1      23.648   4.574  48.685  1.00  0.00     0.035 A 
HETATM   23  H13 UNL     1      24.739   3.778  52.886  1.00  0.00     0.322 HD
HETATM   24  H14 UNL     1      24.108   5.559  51.783  1.00  0.00     0.163 HD
ENDROOT
TORSDOF 0
ENDMDL
MODEL 4
REMARK VINA RESULT:      -7.8      1.790      2.497
REMARK  0 active torsions:
REMARK  status: ('A' for Active; 'I' for Inactive)
ROOT
HETATM    1 BR1  UNL     1      30.988   8.213  44.832  1.00  0.00    -0.051 Br
HETATM    2  C1  UNL     1      30.780   7.979  46.712  1.00  0.00     0.014 A 
HETATM    3  C2  UNL     1      29.671   8.291  47.377  1.00  0.00     0.081 A 
HETATM    4  C3  UNL     1      29.449   8.136  48.817  1.00  0.00     0.348 A 
HETATM    5  N1  UNL     1      29.235   9.459  49.389  1.00  0.00    -0.218 NA
HETATM    6  C4  UNL     1      28.113  10.056  49.169  1.00  0.00     0.233 C 
HETATM    7  N2  UNL     1      27.286   9.238  48.367  1.00  0.00    -0.230 NA
HETATM    8  C5  UNL     1      26.176   9.566  47.848  1.00  0.00     0.259 C 
HETATM    9  O1  UNL     1      26.055   8.303  47.284  1.00  0.00    -0.315 OA
HETATM   10  C6  UNL     1      25.274   7.378  47.969  1.00  0.00     0.156 C 
HETATM   11  C7  UNL     1      25.431   6.231  48.610  1.00  0.00     0.011 C 
HETATM   12  C8  UNL     1      24.162   5.732  49.135  1.00  0.00     0.124 C 
HETATM   13  N3  UNL     1      23.943   4.473  49.429  1.00  0.00    -0.300 NA
HETATM   14  C9  UNL     1      24.755   3.314  49.350  1.00  0.00     0.152 C 
HETATM   15  C10 UNL     1      26.143   3.407  49.845  1.00  0.00     0.049 C 
HETATM   16  C11 UNL     1      27.008   4.415  49.256  1.00  0.00    -0.015 C 
HETATM   17  C12 UNL     1      26.750   5.613  48.727  1.00  0.00    -0.020 C 
HETATM   18  C13 UNL     1      27.967   6.310  48.240  1.00  0.00     0.315 C 
HETATM   19  N4  UNL     1      28.277   7.359  49.158  1.00  0.00     0.143 N 
HETATM   20  N5  UNL     1      30.644   7.582  49.411  1.00  0.00    -0.344 N 
HETATM   21  C14 UNL     1      31.870   7.218  48.790  1.00  0.00     0.089 A 
HETATM   22  C15 UNL     1      31.891   7.428  47.483  1.00  0.00     0.035 A 
HETATM   23  H13 UNL     1      28.376   7.009  50.118  1.00  0.00     0.322 HD
HETATM   24  H14 UNL     1      30.490   7.467  50.452  1.00  0.00     0.163 HD
ENDROOT
TORSDOF 0
ENDMDL
MODEL 5
REMARK VINA RESULT:      -7.6      8.075     10.076
REMARK  0 active torsions:
REMARK  status: ('A' for Active; 'I' for Inactive)
ROOT
HETATM    1 BR1  UNL     1      21.960   3.349  47.515  1.00  0.00    -0.051 Br
HETATM    2  C1  UNL     1      22.099   3.991  49.304  1.00  0.00     0.014 A 
HETATM    3  C2  UNL     1      21.816   3.257  50.376  1.00  0.00     0.081 A 
HETATM    4  C3  UNL     1      21.903   3.690  51.773  1.00  0.00     0.348 A 
HETATM    5  N1  UNL     1      20.564   3.643  52.348  1.00  0.00    -0.218 NA
HETATM    6  C4  UNL     1      20.048   2.493  52.622  1.00  0.00     0.233 C 
HETATM    7  N2  UNL     1      20.957   1.467  52.280  1.00  0.00    -0.230 NA
HETATM    8  C5  UNL     1      20.725   0.219  52.286  1.00  0.00     0.259 C 
HETATM    9  O1  UNL     1      22.023  -0.034  51.863  1.00  0.00    -0.315 OA
HETATM   10  C6  UNL     1      22.952  -0.369  52.842  1.00  0.00     0.156 C 
HETATM   11  C7  UNL     1      24.050   0.138  53.380  1.00  0.00     0.011 C 
HETATM   12  C8  UNL     1      24.592  -0.738  54.416  1.00  0.00     0.124 C 
HETATM   13  N3  UNL     1      25.843  -0.710  54.808  1.00  0.00    -0.300 NA
HETATM   14  C9  UNL     1      26.955   0.075  54.414  1.00  0.00     0.152 C 
HETATM   15  C10 UNL     1      26.753   1.529  54.254  1.00  0.00     0.049 C 
HETATM   16  C11 UNL     1      25.730   1.975  53.323  1.00  0.00    -0.015 C 
HETATM   17  C12 UNL     1      24.581   1.421  52.928  1.00  0.00    -0.020 C 
HETATM   18  C13 UNL     1      23.843   2.251  51.943  1.00  0.00     0.315 C 
HETATM   19  N4  UNL     1      22.727   2.845  52.609  1.00  0.00     0.143 N 
HETATM   20  N5  UNL     1      22.351   5.064  51.803  1.00  0.00    -0.344 N 
HETATM   21  C14 UNL     1      22.677   5.926  50.720  1.00  0.00     0.089 A 
HETATM   22  C15 UNL     1      22.540   5.365  49.529  1.00  0.00     0.035 A 
HETATM   23  H13 UNL     1      23.016   3.374  53.439  1.00  0.00     0.322 HD
HETATM   24  H14 UNL     1      22.416   5.383  52.810  1.00  0.00     0.163 HD
ENDROOT
TORSDOF 0
ENDMDL
MODEL 6
REMARK VINA RESULT:      -6.9      2.700      6.138
REMARK  0 active torsions:
REMARK  status: ('A' for Active; 'I' for Inactive)
ROOT
HETATM    1 BR1  UNL     1      26.835  11.637  45.345  1.00  0.00    -0.051 Br
HETATM    2  C1  UNL     1      27.653  11.539  47.064  1.00  0.00     0.014 A 
HETATM    3  C2  UNL     1      27.741  10.421  47.777  1.00  0.00     0.081 A 
HETATM    4  C3  UNL     1      28.355  10.280  49.100  1.00  0.00     0.348 A 
HETATM    5  N1  UNL     1      27.318   9.879  50.043  1.00  0.00    -0.218 NA
HETATM    6  C4  UNL     1      26.875   8.668  49.999  1.00  0.00     0.233 C 
HETATM    7  N2  UNL     1      27.539   7.953  48.977  1.00  0.00    -0.230 NA
HETATM    8  C5  UNL     1      27.257   6.786  48.566  1.00  0.00     0.259 C 
HETATM    9  O1  UNL     1      28.295   6.848  47.646  1.00  0.00    -0.315 OA
HETATM   10  C6  UNL     1      29.497   6.252  48.010  1.00  0.00     0.156 C 
HETATM   11  C7  UNL     1      30.742   6.615  48.276  1.00  0.00     0.011 C 
HETATM   12  C8  UNL     1      31.576   5.462  48.610  1.00  0.00     0.124 C 
HETATM   13  N3  UNL     1      32.884   5.459  48.508  1.00  0.00    -0.300 NA
HETATM   14  C9  UNL     1      33.816   6.442  48.093  1.00  0.00     0.152 C 
HETATM   15  C10 UNL     1      33.650   7.815  48.610  1.00  0.00     0.049 C 
HETATM   16  C11 UNL     1      32.383   8.485  48.365  1.00  0.00    -0.015 C 
HETATM   17  C12 UNL     1      31.141   8.019  48.218  1.00  0.00    -0.020 C 
HETATM   18  C13 UNL     1      30.141   9.089  47.980  1.00  0.00     0.315 C 
HETATM   19  N4  UNL     1      29.380   9.262  49.176  1.00  0.00     0.143 N 
HETATM   20  N5  UNL     1      28.858  11.571  49.515  1.00  0.00    -0.344 N 
HETATM   21  C14 UNL     1      28.813  12.815  48.828  1.00  0.00     0.089 A 
HETATM   22  C15 UNL     1      28.220  12.753  47.646  1.00  0.00     0.035 A 
HETATM   23  H13 UNL     1      29.980   9.451  49.987  1.00  0.00     0.322 HD
HETATM   24  H14 UNL     1      29.303  11.475  50.470  1.00  0.00     0.163 HD
ENDROOT
TORSDOF 0
ENDMDL
MODEL 7
REMARK VINA RESULT:      -6.5      3.269      6.302
REMARK  0 active torsions:
REMARK  status: ('A' for Active; 'I' for Inactive)
ROOT
HETATM    1 BR1  UNL     1      26.662   7.431  47.778  1.00  0.00    -0.051 Br
HETATM    2  C1  UNL     1      28.282   8.391  47.482  1.00  0.00     0.014 A 
HETATM    3  C2  UNL     1      29.461   8.016  47.967  1.00  0.00     0.081 A 
HETATM    4  C3  UNL     1      30.739   8.708  47.777  1.00  0.00     0.348 A 
HETATM    5  N1  UNL     1      31.216   9.150  49.081  1.00  0.00    -0.218 NA
HETATM    6  C4  UNL     1      31.689   8.271  49.899  1.00  0.00     0.233 C 
HETATM    7  N2  UNL     1      31.634   6.989  49.307  1.00  0.00    -0.230 NA
HETATM    8  C5  UNL     1      31.885   5.883  49.876  1.00  0.00     0.259 C 
HETATM    9  O1  UNL     1      31.616   5.203  48.696  1.00  0.00    -0.315 OA
HETATM   10  C6  UNL     1      32.706   4.856  47.905  1.00  0.00     0.156 C 
HETATM   11  C7  UNL     1      33.201   5.155  46.714  1.00  0.00     0.011 C 
HETATM   12  C8  UNL     1      34.434   4.417  46.446  1.00  0.00     0.124 C 
HETATM   13  N3  UNL     1      34.897   4.193  45.240  1.00  0.00    -0.300 NA
HETATM   14  C9  UNL     1      34.425   4.544  43.950  1.00  0.00     0.152 C 
HETATM   15  C10 UNL     1      33.950   5.926  43.739  1.00  0.00     0.049 C 
HETATM   16  C11 UNL     1      32.877   6.413  44.590  1.00  0.00    -0.015 C 
HETATM   17  C12 UNL     1      32.528   6.116  45.843  1.00  0.00    -0.020 C 
HETATM   18  C13 UNL     1      31.342   6.875  46.314  1.00  0.00     0.315 C 
HETATM   19  N4  UNL     1      31.789   7.878  47.227  1.00  0.00     0.143 N 
HETATM   20  N5  UNL     1      30.511   9.882  46.965  1.00  0.00    -0.344 N 
HETATM   21  C14 UNL     1      29.297  10.363  46.403  1.00  0.00     0.089 A 
HETATM   22  C15 UNL     1      28.244   9.611  46.680  1.00  0.00     0.035 A 
HETATM   23  H13 UNL     1      32.508   8.480  46.810  1.00  0.00     0.322 HD
HETATM   24  H14 UNL     1      31.431  10.386  46.823  1.00  0.00     0.163 HD
ENDROOT
TORSDOF 0
ENDMDL
MODEL 8
REMARK VINA RESULT:      -6.3      2.285      2.743
REMARK  0 active torsions:
REMARK  status: ('A' for Active; 'I' for Inactive)
ROOT
HETATM    1 BR1  UNL     1      30.268  10.575  43.534  1.00  0.00    -0.051 Br
HETATM    2  C1  UNL     1      30.934   9.695  45.088  1.00  0.00     0.014 A 
HETATM    3  C2  UNL     1      30.404   9.833  46.299  1.00  0.00     0.081 A 
HETATM    4  C3  UNL     1      30.867   9.186  47.529  1.00  0.00     0.348 A 
HETATM    5  N1  UNL     1      31.306  10.225  48.452  1.00  0.00    -0.218 NA
HETATM    6  C4  UNL     1      30.415  10.950  49.039  1.00  0.00     0.233 C 
HETATM    7  N2  UNL     1      29.125  10.547  48.628  1.00  0.00    -0.230 NA
HETATM    8  C5  UNL     1      28.030  11.129  48.898  1.00  0.00     0.259 C 
HETATM    9  O1  UNL     1      27.331  10.170  48.178  1.00  0.00    -0.315 OA
HETATM   10  C6  UNL     1      26.764   9.126  48.901  1.00  0.00     0.156 C 
HETATM   11  C7  UNL     1      26.905   7.816  49.025  1.00  0.00     0.011 C 
HETATM   12  C8  UNL     1      25.963   7.266  49.997  1.00  0.00     0.124 C 
HETATM   13  N3  UNL     1      25.593   6.007  50.017  1.00  0.00    -0.300 NA
HETATM   14  C9  UNL     1      25.935   4.894  49.210  1.00  0.00     0.152 C 
HETATM   15  C10 UNL     1      27.360   4.689  48.882  1.00  0.00     0.049 C 
HETATM   16  C11 UNL     1      28.065   5.769  48.212  1.00  0.00    -0.015 C 
HETATM   17  C12 UNL     1      27.906   7.094  48.244  1.00  0.00    -0.020 C 
HETATM   18  C13 UNL     1      28.874   7.819  47.383  1.00  0.00     0.315 C 
HETATM   19  N4  UNL     1      29.847   8.435  48.228  1.00  0.00     0.143 N 
HETATM   20  N5  UNL     1      32.010   8.360  47.214  1.00  0.00    -0.344 N 
HETATM   21  C14 UNL     1      32.645   8.147  45.959  1.00  0.00     0.089 A 
HETATM   22  C15 UNL     1      32.091   8.814  44.959  1.00  0.00     0.035 A 
HETATM   23  H13 UNL     1      30.298   7.755  48.850  1.00  0.00     0.322 HD
HETATM   24  H14 UNL     1      32.349   7.889  48.099  1.00  0.00     0.163 HD
ENDROOT
TORSDOF 0
ENDMDL
MODEL 9
REMARK VINA RESULT:      -6.2      7.792      9.397
REMARK  0 active torsions:
REMARK  status: ('A' for Active; 'I' for Inactive)
ROOT
HETATM    1 BR1  UNL     1      22.736   6.396  46.769  1.00  0.00    -0.051 Br
HETATM    2  C1  UNL     1      22.353   6.463  48.635  1.00  0.00     0.014 A 
HETATM    3  C2  UNL     1      21.772   5.473  49.305  1.00  0.00     0.081 A 
HETATM    4  C3  UNL     1      21.451   5.463  50.734  1.00  0.00     0.348 A 
HETATM    5  N1  UNL     1      20.003   5.369  50.875  1.00  0.00    -0.218 NA
HETATM    6  C4  UNL     1      19.427   4.242  50.626  1.00  0.00     0.233 C 
HETATM    7  N2  UNL     1      20.395   3.285  50.247  1.00  0.00    -0.230 NA
HETATM    8  C5  UNL     1      20.170   2.118  49.801  1.00  0.00     0.259 C 
HETATM    9  O1  UNL     1      21.534   1.884  49.694  1.00  0.00    -0.315 OA
HETATM   10  C6  UNL     1      22.140   1.191  50.736  1.00  0.00     0.156 C 
HETATM   11  C7  UNL     1      23.036   1.413  51.684  1.00  0.00     0.011 C 
HETATM   12  C8  UNL     1      23.254   0.224  52.505  1.00  0.00     0.124 C 
HETATM   13  N3  UNL     1      24.338   0.020  53.214  1.00  0.00    -0.300 NA
HETATM   14  C9  UNL     1      25.518   0.783  53.404  1.00  0.00     0.152 C 
HETATM   15  C10 UNL     1      25.373   2.231  53.654  1.00  0.00     0.049 C 
HETATM   16  C11 UNL     1      24.663   3.024  52.663  1.00  0.00    -0.015 C 
HETATM   17  C12 UNL     1      23.677   2.719  51.817  1.00  0.00    -0.020 C 
HETATM   18  C13 UNL     1      23.256   3.868  50.975  1.00  0.00     0.315 C 
HETATM   19  N4  UNL     1      21.996   4.336  51.460  1.00  0.00     0.143 N 
HETATM   20  N5  UNL     1      21.873   6.719  51.311  1.00  0.00    -0.344 N 
HETATM   21  C14 UNL     1      22.500   7.830  50.682  1.00  0.00     0.089 A 
HETATM   22  C15 UNL     1      22.712   7.662  49.387  1.00  0.00     0.035 A 
HETATM   23  H13 UNL     1      22.034   4.567  52.459  1.00  0.00     0.322 HD
HETATM   24  H14 UNL     1      21.644   6.718  52.345  1.00  0.00     0.163 HD
ENDROOT
TORSDOF 0
ENDMDL
