MODEL 1
REMARK VINA RESULT:      -8.7      0.000      0.000
REMARK  4 active torsions:
REMARK  status: ('A' for Active; 'I' for Inactive)
REMARK    1  A    between atoms: C7_7  and  C8_8 
REMARK    2  A    between atoms: C8_8  and  C9_9 
REMARK    3  A    between atoms: C10_10  and  C11_11 
REMARK    4  A    between atoms: C12_12  and  O1_13 
ROOT
HETATM    1  O1  UNL     1      26.313  -0.444  53.556  1.00  0.00    -0.239 OA
HETATM    2  C13 UNL     1      27.231   0.253  54.275  1.00  0.00     0.234 C 
HETATM    3  N1  UNL     1      28.018   0.835  54.893  1.00  0.00    -0.164 NA
ENDROOT
BRANCH   1   4
HETATM    4  C12 UNL     1      25.043   0.056  53.261  1.00  0.00     0.111 A 
HETATM    5  C11 UNL     1      24.440   0.942  52.452  1.00  0.00     0.011 A 
HETATM    6  C19 UNL     1      23.161   0.578  53.053  1.00  0.00    -0.010 A 
HETATM    7  C14 UNL     1      23.776  -0.348  53.902  1.00  0.00     0.011 A 
HETATM    8  C18 UNL     1      21.781   0.738  53.128  1.00  0.00     0.013 A 
HETATM    9  C15 UNL     1      23.003  -1.087  54.802  1.00  0.00     0.015 A 
HETATM   10  C16 UNL     1      21.636  -0.924  54.874  1.00  0.00     0.001 A 
HETATM   11  C17 UNL     1      21.032  -0.011  54.035  1.00  0.00     0.001 A 
BRANCH   5  12
HETATM   12  C10 UNL     1      24.910   1.860  51.419  1.00  0.00     0.011 C 
HETATM   13  C9  UNL     1      24.039   2.430  50.627  1.00  0.00    -0.025 C 
BRANCH  13  14
HETATM   14  C8  UNL     1      24.432   3.375  49.553  1.00  0.00     0.040 C 
BRANCH  14  15
HETATM   15  C7  UNL     1      25.586   4.194  50.055  1.00  0.00     0.041 C 
HETATM   16  C2  UNL     1      25.269   5.642  49.889  1.00  0.00    -0.065 C 
HETATM   17  C1  UNL     1      24.314   6.295  50.854  1.00  0.00     0.045 C 
HETATM   18  C3  UNL     1      25.815   6.342  48.912  1.00  0.00    -0.023 C 
HETATM   19  C4  UNL     1      27.094   6.152  48.640  1.00  0.00     0.012 C 
HETATM   20  C5  UNL     1      27.578   4.774  48.671  1.00  0.00    -0.002 C 
HETATM   21  C6  UNL     1      26.852   3.888  49.338  1.00  0.00    -0.017 C 
ENDBRANCH  14  15
ENDBRANCH  13  14
ENDBRANCH   5  12
ENDBRANCH   1   4
TORSDOF 4
ENDMDL
MODEL 2
REMARK VINA RESULT:      -8.5      0.995      1.849
REMARK  4 active torsions:
REMARK  status: ('A' for Active; 'I' for Inactive)
REMARK    1  A    between atoms: C7_7  and  C8_8 
REMARK    2  A    between atoms: C8_8  and  C9_9 
REMARK    3  A    between atoms: C10_10  and  C11_11 
REMARK    4  A    between atoms: C12_12  and  O1_13 
ROOT
HETATM    1  O1  UNL     1      25.656  -0.989  54.135  1.00  0.00    -0.239 OA
HETATM    2  C13 UNL     1      26.868  -0.480  54.477  1.00  0.00     0.234 C 
HETATM    3  N1  UNL     1      27.903  -0.057  54.778  1.00  0.00    -0.164 NA
ENDROOT
BRANCH   1   4
HETATM    4  C12 UNL     1      24.586  -0.189  53.727  1.00  0.00     0.111 A 
HETATM    5  C11 UNL     1      24.342   0.998  53.148  1.00  0.00     0.011 A 
HETATM    6  C19 UNL     1      22.912   0.723  53.256  1.00  0.00    -0.010 A 
HETATM    7  C14 UNL     1      23.153  -0.515  53.860  1.00  0.00     0.011 A 
HETATM    8  C18 UNL     1      21.595   1.116  53.042  1.00  0.00     0.013 A 
HETATM    9  C15 UNL     1      22.079  -1.326  54.235  1.00  0.00     0.015 A 
HETATM   10  C16 UNL     1      20.775  -0.933  54.022  1.00  0.00     0.001 A 
HETATM   11  C17 UNL     1      20.540   0.289  53.425  1.00  0.00     0.001 A 
BRANCH   5  12
HETATM   12  C10 UNL     1      25.185   2.076  52.640  1.00  0.00     0.011 C 
HETATM   13  C9  UNL     1      25.706   1.969  51.445  1.00  0.00    -0.025 C 
BRANCH  13  14
HETATM   14  C8  UNL     1      26.573   3.018  50.854  1.00  0.00     0.040 C 
BRANCH  14  15
HETATM   15  C7  UNL     1      26.034   3.354  49.493  1.00  0.00     0.041 C 
HETATM   16  C2  UNL     1      26.510   4.712  49.100  1.00  0.00    -0.065 C 
HETATM   17  C1  UNL     1      27.934   4.880  48.638  1.00  0.00     0.045 C 
HETATM   18  C3  UNL     1      25.698   5.752  49.154  1.00  0.00    -0.023 C 
HETATM   19  C4  UNL     1      24.452   5.599  48.740  1.00  0.00     0.012 C 
HETATM   20  C5  UNL     1      23.782   4.353  49.105  1.00  0.00    -0.002 C 
HETATM   21  C6  UNL     1      24.548   3.328  49.451  1.00  0.00    -0.017 C 
ENDBRANCH  14  15
ENDBRANCH  13  14
ENDBRANCH   5  12
ENDBRANCH   1   4
TORSDOF 4
ENDMDL
MODEL 3
REMARK VINA RESULT:      -8.4      3.703      5.793
REMARK  4 active torsions:
REMARK  status: ('A' for Active; 'I' for Inactive)
REMARK    1  A    between atoms: C7_7  and  C8_8 
REMARK    2  A    between atoms: C8_8  and  C9_9 
REMARK    3  A    between atoms: C10_10  and  C11_11 
REMARK    4  A    between atoms: C12_12  and  O1_13 
ROOT
HETATM    1  O1  UNL     1      21.171  -0.161  54.008  1.00  0.00    -0.239 OA
HETATM    2  C13 UNL     1      21.795  -1.094  54.773  1.00  0.00     0.234 C 
HETATM    3  N1  UNL     1      22.319  -1.884  55.438  1.00  0.00    -0.164 NA
ENDROOT
BRANCH   1   4
HETATM    4  C12 UNL     1      21.773   0.429  52.893  1.00  0.00     0.111 A 
HETATM    5  C11 UNL     1      22.957   0.921  52.493  1.00  0.00     0.011 A 
HETATM    6  C19 UNL     1      22.358   1.232  51.199  1.00  0.00    -0.010 A 
HETATM    7  C14 UNL     1      21.119   0.723  51.603  1.00  0.00     0.011 A 
HETATM    8  C18 UNL     1      22.480   1.748  49.913  1.00  0.00     0.013 A 
HETATM    9  C15 UNL     1      20.038   0.742  50.719  1.00  0.00     0.015 A 
HETATM   10  C16 UNL     1      20.163   1.255  49.445  1.00  0.00     0.001 A 
HETATM   11  C17 UNL     1      21.385   1.756  49.049  1.00  0.00     0.001 A 
BRANCH   5  12
HETATM   12  C10 UNL     1      24.266   1.062  53.124  1.00  0.00     0.011 C 
HETATM   13  C9  UNL     1      24.827   0.016  53.672  1.00  0.00    -0.025 C 
BRANCH  13  14
HETATM   14  C8  UNL     1      26.153   0.074  54.333  1.00  0.00     0.040 C 
BRANCH  14  15
HETATM   15  C7  UNL     1      27.202   0.172  53.261  1.00  0.00     0.041 C 
HETATM   16  C2  UNL     1      27.835  -1.165  53.072  1.00  0.00    -0.065 C 
HETATM   17  C1  UNL     1      27.083  -2.228  52.316  1.00  0.00     0.045 C 
HETATM   18  C3  UNL     1      29.037  -1.415  53.560  1.00  0.00    -0.023 C 
HETATM   19  C4  UNL     1      29.967  -0.482  53.449  1.00  0.00     0.012 C 
HETATM   20  C5  UNL     1      29.550   0.898  53.685  1.00  0.00    -0.002 C 
HETATM   21  C6  UNL     1      28.256   1.168  53.590  1.00  0.00    -0.017 C 
ENDBRANCH  14  15
ENDBRANCH  13  14
ENDBRANCH   5  12
ENDBRANCH   1   4
TORSDOF 4
ENDMDL
MODEL 4
REMARK VINA RESULT:      -8.4      3.115      5.046
REMARK  4 active torsions:
REMARK  status: ('A' for Active; 'I' for Inactive)
REMARK    1  A    between atoms: C7_7  and  C8_8 
REMARK    2  A    between atoms: C8_8  and  C9_9 
REMARK    3  A    between atoms: C10_10  and  C11_11 
REMARK    4  A    between atoms: C12_12  and  O1_13 
ROOT
HETATM    1  O1  UNL     1      23.149   2.391  52.571  1.00  0.00    -0.239 OA
HETATM    2  C13 UNL     1      23.848   2.557  51.418  1.00  0.00     0.234 C 
HETATM    3  N1  UNL     1      24.436   2.710  50.433  1.00  0.00    -0.164 NA
ENDROOT
BRANCH   1   4
HETATM    4  C12 UNL     1      22.809   1.134  53.077  1.00  0.00     0.111 A 
HETATM    5  C11 UNL     1      23.376   0.057  53.644  1.00  0.00     0.011 A 
HETATM    6  C19 UNL     1      22.057  -0.565  53.714  1.00  0.00    -0.010 A 
HETATM    7  C14 UNL     1      21.454   0.551  53.124  1.00  0.00     0.011 A 
HETATM    8  C18 UNL     1      21.257  -1.646  54.069  1.00  0.00     0.013 A 
HETATM    9  C15 UNL     1      20.075   0.560  52.903  1.00  0.00     0.015 A 
HETATM   10  C16 UNL     1      19.285  -0.515  53.256  1.00  0.00     0.001 A 
HETATM   11  C17 UNL     1      19.882  -1.613  53.838  1.00  0.00     0.001 A 
BRANCH   5  12
HETATM   12  C10 UNL     1      24.742  -0.297  54.016  1.00  0.00     0.011 C 
HETATM   13  C9  UNL     1      25.542  -0.795  53.109  1.00  0.00    -0.025 C 
BRANCH  13  14
HETATM   14  C8  UNL     1      26.944  -1.180  53.404  1.00  0.00     0.040 C 
BRANCH  14  15
HETATM   15  C7  UNL     1      27.850  -0.205  52.708  1.00  0.00     0.041 C 
HETATM   16  C2  UNL     1      28.996   0.124  53.604  1.00  0.00    -0.065 C 
HETATM   17  C1  UNL     1      30.108  -0.880  53.764  1.00  0.00     0.045 C 
HETATM   18  C3  UNL     1      29.038   1.276  54.248  1.00  0.00    -0.023 C 
HETATM   19  C4  UNL     1      28.672   2.370  53.603  1.00  0.00     0.012 C 
HETATM   20  C5  UNL     1      27.505   2.265  52.732  1.00  0.00    -0.002 C 
HETATM   21  C6  UNL     1      27.149   1.052  52.334  1.00  0.00    -0.017 C 
ENDBRANCH  14  15
ENDBRANCH  13  14
ENDBRANCH   5  12
ENDBRANCH   1   4
TORSDOF 4
ENDMDL
MODEL 5
REMARK VINA RESULT:      -8.4      3.531      6.126
REMARK  4 active torsions:
REMARK  status: ('A' for Active; 'I' for Inactive)
REMARK    1  A    between atoms: C7_7  and  C8_8 
REMARK    2  A    between atoms: C8_8  and  C9_9 
REMARK    3  A    between atoms: C10_10  and  C11_11 
REMARK    4  A    between atoms: C12_12  and  O1_13 
ROOT
HETATM    1  O1  UNL     1      25.104  -1.275  55.192  1.00  0.00    -0.239 OA
HETATM    2  C13 UNL     1      23.774  -1.456  55.402  1.00  0.00     0.234 C 
HETATM    3  N1  UNL     1      22.643  -1.624  55.581  1.00  0.00    -0.164 NA
ENDROOT
BRANCH   1   4
HETATM    4  C12 UNL     1      25.611  -0.251  54.389  1.00  0.00     0.111 A 
HETATM    5  C11 UNL     1      25.239   0.559  53.384  1.00  0.00     0.011 A 
HETATM    6  C19 UNL     1      26.571   1.156  53.410  1.00  0.00    -0.010 A 
HETATM    7  C14 UNL     1      26.971   0.318  54.456  1.00  0.00     0.011 A 
HETATM    8  C18 UNL     1      27.484   2.076  52.906  1.00  0.00     0.013 A 
HETATM    9  C15 UNL     1      28.267   0.418  54.971  1.00  0.00     0.015 A 
HETATM   10  C16 UNL     1      29.169   1.332  54.468  1.00  0.00     0.001 A 
HETATM   11  C17 UNL     1      28.772   2.157  53.436  1.00  0.00     0.001 A 
BRANCH   5  12
HETATM   12  C10 UNL     1      24.008   0.734  52.620  1.00  0.00     0.011 C 
HETATM   13  C9  UNL     1      23.219   1.738  52.901  1.00  0.00    -0.025 C 
BRANCH  13  14
HETATM   14  C8  UNL     1      21.951   1.987  52.173  1.00  0.00     0.040 C 
BRANCH  14  15
HETATM   15  C7  UNL     1      21.368   0.657  51.788  1.00  0.00     0.041 C 
HETATM   16  C2  UNL     1      20.608   0.806  50.513  1.00  0.00    -0.065 C 
HETATM   17  C1  UNL     1      21.370   0.910  49.218  1.00  0.00     0.045 C 
HETATM   18  C3  UNL     1      19.288   0.847  50.517  1.00  0.00    -0.023 C 
HETATM   19  C4  UNL     1      18.636   0.013  51.309  1.00  0.00     0.012 C 
HETATM   20  C5  UNL     1      19.187  -0.199  52.644  1.00  0.00    -0.002 C 
HETATM   21  C6  UNL     1      20.462   0.111  52.833  1.00  0.00    -0.017 C 
ENDBRANCH  14  15
ENDBRANCH  13  14
ENDBRANCH   5  12
ENDBRANCH   1   4
TORSDOF 4
ENDMDL
MODEL 6
REMARK VINA RESULT:      -8.1      2.847      8.018
REMARK  4 active torsions:
REMARK  status: ('A' for Active; 'I' for Inactive)
REMARK    1  A    between atoms: C7_7  and  C8_8 
REMARK    2  A    between atoms: C8_8  and  C9_9 
REMARK    3  A    between atoms: C10_10  and  C11_11 
REMARK    4  A    between atoms: C12_12  and  O1_13 
ROOT
HETATM    1  O1  UNL     1      24.493   5.697  49.436  1.00  0.00    -0.239 OA
HETATM    2  C13 UNL     1      24.160   6.768  50.202  1.00  0.00     0.234 C 
HETATM    3  N1  UNL     1      23.864   7.682  50.847  1.00  0.00    -0.164 NA
ENDROOT
BRANCH   1   4
HETATM    4  C12 UNL     1      25.816   5.356  49.145  1.00  0.00     0.111 A 
HETATM    5  C11 UNL     1      26.670   4.325  49.261  1.00  0.00     0.011 A 
HETATM    6  C19 UNL     1      27.700   5.145  48.630  1.00  0.00    -0.010 A 
HETATM    7  C14 UNL     1      26.821   6.226  48.504  1.00  0.00     0.011 A 
HETATM    8  C18 UNL     1      29.003   5.287  48.166  1.00  0.00     0.013 A 
HETATM    9  C15 UNL     1      27.262   7.416  47.921  1.00  0.00     0.015 A 
HETATM   10  C16 UNL     1      28.555   7.553  47.462  1.00  0.00     0.001 A 
HETATM   11  C17 UNL     1      29.420   6.486  47.587  1.00  0.00     0.001 A 
BRANCH   5  12
HETATM   12  C10 UNL     1      26.565   2.972  49.799  1.00  0.00     0.011 C 
HETATM   13  C9  UNL     1      26.369   2.808  51.081  1.00  0.00    -0.025 C 
BRANCH  13  14
HETATM   14  C8  UNL     1      26.251   1.468  51.707  1.00  0.00     0.040 C 
BRANCH  14  15
HETATM   15  C7  UNL     1      25.251   1.563  52.823  1.00  0.00     0.041 C 
HETATM   16  C2  UNL     1      25.327   0.328  53.656  1.00  0.00    -0.065 C 
HETATM   17  C1  UNL     1      26.471   0.169  54.622  1.00  0.00     0.045 C 
HETATM   18  C3  UNL     1      24.406  -0.612  53.550  1.00  0.00    -0.023 C 
HETATM   19  C4  UNL     1      23.141  -0.245  53.445  1.00  0.00     0.012 C 
HETATM   20  C5  UNL     1      22.855   0.907  52.595  1.00  0.00    -0.002 C 
HETATM   21  C6  UNL     1      23.860   1.729  52.324  1.00  0.00    -0.017 C 
ENDBRANCH  14  15
ENDBRANCH  13  14
ENDBRANCH   5  12
ENDBRANCH   1   4
TORSDOF 4
ENDMDL
MODEL 7
REMARK VINA RESULT:      -8.1      3.628      7.838
REMARK  4 active torsions:
REMARK  status: ('A' for Active; 'I' for Inactive)
REMARK    1  A    between atoms: C7_7  and  C8_8 
REMARK    2  A    between atoms: C8_8  and  C9_9 
REMARK    3  A    between atoms: C10_10  and  C11_11 
REMARK    4  A    between atoms: C12_12  and  O1_13 
ROOT
HETATM    1  O1  UNL     1      24.186   5.495  49.432  1.00  0.00    -0.239 OA
HETATM    2  C13 UNL     1      23.202   4.590  49.191  1.00  0.00     0.234 C 
HETATM    3  N1  UNL     1      22.356   3.825  48.997  1.00  0.00    -0.164 NA
ENDROOT
BRANCH   1   4
HETATM    4  C12 UNL     1      25.538   5.222  49.208  1.00  0.00     0.111 A 
HETATM    5  C11 UNL     1      26.452   4.264  49.433  1.00  0.00     0.011 A 
HETATM    6  C19 UNL     1      27.447   5.098  48.765  1.00  0.00    -0.010 A 
HETATM    7  C14 UNL     1      26.504   6.103  48.525  1.00  0.00     0.011 A 
HETATM    8  C18 UNL     1      28.753   5.291  48.327  1.00  0.00     0.013 A 
HETATM    9  C15 UNL     1      26.886   7.270  47.858  1.00  0.00     0.015 A 
HETATM   10  C16 UNL     1      28.182   7.457  47.426  1.00  0.00     0.001 A 
HETATM   11  C17 UNL     1      29.110   6.464  47.664  1.00  0.00     0.001 A 
BRANCH   5  12
HETATM   12  C10 UNL     1      26.418   2.955  50.077  1.00  0.00     0.011 C 
HETATM   13  C9  UNL     1      25.880   2.841  51.263  1.00  0.00    -0.025 C 
BRANCH  13  14
HETATM   14  C8  UNL     1      25.805   1.548  51.987  1.00  0.00     0.040 C 
BRANCH  14  15
HETATM   15  C7  UNL     1      27.207   1.055  52.204  1.00  0.00     0.041 C 
HETATM   16  C2  UNL     1      27.169  -0.173  53.049  1.00  0.00    -0.065 C 
HETATM   17  C1  UNL     1      26.749  -1.477  52.422  1.00  0.00     0.045 C 
HETATM   18  C3  UNL     1      27.497  -0.122  54.327  1.00  0.00    -0.023 C 
HETATM   19  C4  UNL     1      28.543   0.607  54.678  1.00  0.00     0.012 C 
HETATM   20  C5  UNL     1      28.704   1.896  54.012  1.00  0.00    -0.002 C 
HETATM   21  C6  UNL     1      28.069   2.072  52.863  1.00  0.00    -0.017 C 
ENDBRANCH  14  15
ENDBRANCH  13  14
ENDBRANCH   5  12
ENDBRANCH   1   4
TORSDOF 4
ENDMDL
MODEL 8
REMARK VINA RESULT:      -7.9      3.859      5.652
REMARK  4 active torsions:
REMARK  status: ('A' for Active; 'I' for Inactive)
REMARK    1  A    between atoms: C7_7  and  C8_8 
REMARK    2  A    between atoms: C8_8  and  C9_9 
REMARK    3  A    between atoms: C10_10  and  C11_11 
REMARK    4  A    between atoms: C12_12  and  O1_13 
ROOT
HETATM    1  O1  UNL     1      22.393   3.213  51.088  1.00  0.00    -0.239 OA
HETATM    2  C13 UNL     1      21.443   3.330  50.123  1.00  0.00     0.234 C 
HETATM    3  N1  UNL     1      20.634   3.444  49.304  1.00  0.00    -0.164 NA
ENDROOT
BRANCH   1   4
HETATM    4  C12 UNL     1      22.480   2.105  51.934  1.00  0.00     0.111 A 
HETATM    5  C11 UNL     1      23.389   1.401  52.629  1.00  0.00     0.011 A 
HETATM    6  C19 UNL     1      22.316   0.524  53.088  1.00  0.00    -0.010 A 
HETATM    7  C14 UNL     1      21.360   1.249  52.369  1.00  0.00     0.011 A 
HETATM    8  C18 UNL     1      21.899  -0.574  53.833  1.00  0.00     0.013 A 
HETATM    9  C15 UNL     1      20.018   0.862  52.411  1.00  0.00     0.015 A 
HETATM   10  C16 UNL     1      19.609  -0.227  53.152  1.00  0.00     0.001 A 
HETATM   11  C17 UNL     1      20.554  -0.940  53.860  1.00  0.00     0.001 A 
BRANCH   5  12
HETATM   12  C10 UNL     1      24.833   1.507  52.816  1.00  0.00     0.011 C 
HETATM   13  C9  UNL     1      25.632   1.043  51.890  1.00  0.00    -0.025 C 
BRANCH  13  14
HETATM   14  C8  UNL     1      27.110   1.111  52.002  1.00  0.00     0.040 C 
BRANCH  14  15
HETATM   15  C7  UNL     1      27.520   0.326  53.215  1.00  0.00     0.041 C 
HETATM   16  C2  UNL     1      28.893   0.741  53.625  1.00  0.00    -0.065 C 
HETATM   17  C1  UNL     1      29.075   2.052  54.344  1.00  0.00     0.045 C 
HETATM   18  C3  UNL     1      29.934  -0.027  53.363  1.00  0.00    -0.023 C 
HETATM   19  C4  UNL     1      29.813  -1.332  53.536  1.00  0.00     0.012 C 
HETATM   20  C5  UNL     1      28.555  -1.941  53.112  1.00  0.00    -0.002 C 
HETATM   21  C6  UNL     1      27.508  -1.141  52.971  1.00  0.00    -0.017 C 
ENDBRANCH  14  15
ENDBRANCH  13  14
ENDBRANCH   5  12
ENDBRANCH   1   4
TORSDOF 4
ENDMDL
MODEL 9
REMARK VINA RESULT:      -7.8      3.048      3.844
REMARK  4 active torsions:
REMARK  status: ('A' for Active; 'I' for Inactive)
REMARK    1  A    between atoms: C7_7  and  C8_8 
REMARK    2  A    between atoms: C8_8  and  C9_9 
REMARK    3  A    between atoms: C10_10  and  C11_11 
REMARK    4  A    between atoms: C12_12  and  O1_13 
ROOT
HETATM    1  O1  UNL     1      19.417   0.291  51.505  1.00  0.00    -0.239 OA
HETATM    2  C13 UNL     1      18.473  -0.453  52.139  1.00  0.00     0.234 C 
HETATM    3  N1  UNL     1      17.658  -1.076  52.676  1.00  0.00    -0.164 NA
ENDROOT
BRANCH   1   4
HETATM    4  C12 UNL     1      20.751   0.331  51.917  1.00  0.00     0.111 A 
HETATM    5  C11 UNL     1      21.927   0.877  51.566  1.00  0.00     0.011 A 
HETATM    6  C19 UNL     1      22.544   0.210  52.710  1.00  0.00    -0.010 A 
HETATM    7  C14 UNL     1      21.325  -0.365  53.085  1.00  0.00     0.011 A 
HETATM    8  C18 UNL     1      23.672  -0.058  53.477  1.00  0.00     0.013 A 
HETATM    9  C15 UNL     1      21.263  -1.190  54.210  1.00  0.00     0.015 A 
HETATM   10  C16 UNL     1      22.385  -1.454  54.969  1.00  0.00     0.001 A 
HETATM   11  C17 UNL     1      23.585  -0.885  54.597  1.00  0.00     0.001 A 
BRANCH   5  12
HETATM   12  C10 UNL     1      22.359   1.760  50.488  1.00  0.00     0.011 C 
HETATM   13  C9  UNL     1      23.592   2.196  50.474  1.00  0.00    -0.025 C 
BRANCH  13  14
HETATM   14  C8  UNL     1      24.109   3.096  49.414  1.00  0.00     0.040 C 
BRANCH  14  15
HETATM   15  C7  UNL     1      25.179   3.959  50.020  1.00  0.00     0.041 C 
HETATM   16  C2  UNL     1      24.865   5.392  49.748  1.00  0.00    -0.065 C 
HETATM   17  C1  UNL     1      23.787   6.068  50.553  1.00  0.00     0.045 C 
HETATM   18  C3  UNL     1      25.521   6.059  48.817  1.00  0.00    -0.023 C 
HETATM   19  C4  UNL     1      26.828   5.882  48.718  1.00  0.00     0.012 C 
HETATM   20  C5  UNL     1      27.323   4.516  48.873  1.00  0.00    -0.002 C 
HETATM   21  C6  UNL     1      26.530   3.647  49.484  1.00  0.00    -0.017 C 
ENDBRANCH  14  15
ENDBRANCH  13  14
ENDBRANCH   5  12
ENDBRANCH   1   4
TORSDOF 4
ENDMDL
