MODEL 1
REMARK VINA RESULT:      -9.5      0.000      0.000
REMARK  0 active torsions:
REMARK  status: ('A' for Active; 'I' for Inactive)
ROOT
HETATM    1  C1  UNL     1      26.293   3.331  50.924  1.00  0.00     0.062 C 
HETATM    2  C2  UNL     1      25.116   2.678  51.061  1.00  0.00     0.009 C 
HETATM    3  C3  UNL     1      24.045   2.385  50.139  1.00  0.00     0.051 C 
HETATM    4  C4  UNL     1      22.953   2.000  49.506  1.00  0.00     0.071 C 
HETATM    5 CL1  UNL     1      22.778   2.394  47.779  1.00  0.00    -0.081 Cl
HETATM    6  C5  UNL     1      21.801   1.268  50.101  1.00  0.00     0.126 C 
HETATM    7  F1  UNL     1      20.875   1.051  49.086  1.00  0.00    -0.208 F 
HETATM    8  C6  UNL     1      21.811   0.960  51.371  1.00  0.00     0.119 C 
HETATM    9  C7  UNL     1      21.598   0.516  52.723  1.00  0.00     0.060 A 
HETATM   10  N1  UNL     1      20.519   0.605  53.530  1.00  0.00    -0.245 NA
HETATM   11  C8  UNL     1      20.480   0.163  54.797  1.00  0.00     0.234 A 
HETATM   12  N2  UNL     1      21.552  -0.417  55.359  1.00  0.00    -0.241 NA
HETATM   13  C9  UNL     1      22.660  -0.537  54.611  1.00  0.00     0.070 A 
HETATM   14  C10 UNL     1      23.708  -1.128  55.302  1.00  0.00     0.033 A 
HETATM   15  C11 UNL     1      24.910  -1.273  54.610  1.00  0.00     0.009 A 
HETATM   16  C12 UNL     1      24.982  -0.831  53.311  1.00  0.00    -0.057 A 
HETATM   17  C13 UNL     1      23.894  -0.256  52.696  1.00  0.00     0.023 A 
HETATM   18  C14 UNL     1      22.700  -0.085  53.316  1.00  0.00     0.019 A 
HETATM   19  C15 UNL     1      26.177  -0.851  52.431  1.00  0.00     0.047 C 
HETATM   20  C16 UNL     1      26.928   0.467  52.486  1.00  0.00     0.039 C 
HETATM   21  C17 UNL     1      28.305   0.129  53.019  1.00  0.00     0.011 C 
HETATM   22  C18 UNL     1      28.999   1.231  53.713  1.00  0.00     0.027 C 
HETATM   23  C19 UNL     1      28.243   2.542  53.672  1.00  0.00     0.170 C 
HETATM   24  O1  UNL     1      26.965   2.335  54.044  1.00  0.00    -0.366 OA
HETATM   25  C20 UNL     1      26.201   1.509  53.261  1.00  0.00     0.225 C 
HETATM   26  N3  UNL     1      25.325   2.353  52.423  1.00  0.00    -0.367 N 
HETATM   27  H19 UNL     1      24.596   2.934  52.891  1.00  0.00     0.162 HD
ENDROOT
TORSDOF 0
ENDMDL
MODEL 2
REMARK VINA RESULT:      -9.4      2.874      5.303
REMARK  0 active torsions:
REMARK  status: ('A' for Active; 'I' for Inactive)
ROOT
HETATM    1  C1  UNL     1      20.586   4.083  51.978  1.00  0.00     0.062 C 
HETATM    2  C2  UNL     1      21.327   3.005  52.323  1.00  0.00     0.009 C 
HETATM    3  C3  UNL     1      20.993   1.621  52.561  1.00  0.00     0.051 C 
HETATM    4  C4  UNL     1      20.946   0.329  52.827  1.00  0.00     0.071 C 
HETATM    5 CL1  UNL     1      19.377  -0.509  52.741  1.00  0.00    -0.081 Cl
HETATM    6  C5  UNL     1      22.093  -0.531  53.226  1.00  0.00     0.126 C 
HETATM    7  F1  UNL     1      21.608  -1.823  53.398  1.00  0.00    -0.208 F 
HETATM    8  C6  UNL     1      23.285  -0.008  53.353  1.00  0.00     0.119 C 
HETATM    9  C7  UNL     1      24.668   0.333  53.554  1.00  0.00     0.060 A 
HETATM   10  N1  UNL     1      25.530   0.015  54.544  1.00  0.00    -0.245 NA
HETATM   11  C8  UNL     1      26.802   0.439  54.607  1.00  0.00     0.234 A 
HETATM   12  N2  UNL     1      27.314   1.233  53.654  1.00  0.00    -0.241 NA
HETATM   13  C9  UNL     1      26.510   1.587  52.640  1.00  0.00     0.070 A 
HETATM   14  C10 UNL     1      27.138   2.426  51.730  1.00  0.00     0.033 A 
HETATM   15  C11 UNL     1      26.370   2.866  50.653  1.00  0.00     0.009 A 
HETATM   16  C12 UNL     1      25.065   2.449  50.558  1.00  0.00    -0.057 A 
HETATM   17  C13 UNL     1      24.516   1.614  51.503  1.00  0.00     0.023 A 
HETATM   18  C14 UNL     1      25.209   1.154  52.574  1.00  0.00     0.019 A 
HETATM   19  C15 UNL     1      24.079   2.844  49.520  1.00  0.00     0.047 C 
HETATM   20  C16 UNL     1      23.238   4.023  49.975  1.00  0.00     0.039 C 
HETATM   21  C17 UNL     1      23.524   5.133  48.986  1.00  0.00     0.011 C 
HETATM   22  C18 UNL     1      23.330   6.502  49.502  1.00  0.00     0.027 C 
HETATM   23  C19 UNL     1      22.772   6.544  50.909  1.00  0.00     0.170 C 
HETATM   24  O1  UNL     1      23.487   5.720  51.700  1.00  0.00    -0.366 OA
HETATM   25  C20 UNL     1      23.479   4.384  51.399  1.00  0.00     0.225 C 
HETATM   26  N3  UNL     1      22.555   3.710  52.335  1.00  0.00    -0.367 N 
HETATM   27  H19 UNL     1      22.795   3.696  53.350  1.00  0.00     0.162 HD
ENDROOT
TORSDOF 0
ENDMDL
MODEL 3
REMARK VINA RESULT:      -9.3      3.435      5.374
REMARK  0 active torsions:
REMARK  status: ('A' for Active; 'I' for Inactive)
ROOT
HETATM    1  C1  UNL     1      26.446   3.926  49.648  1.00  0.00     0.062 C 
HETATM    2  C2  UNL     1      26.069   3.103  50.654  1.00  0.00     0.009 C 
HETATM    3  C3  UNL     1      26.778   2.544  51.780  1.00  0.00     0.051 C 
HETATM    4  C4  UNL     1      27.194   1.917  52.864  1.00  0.00     0.071 C 
HETATM    5 CL1  UNL     1      28.888   2.116  53.373  1.00  0.00    -0.081 Cl
HETATM    6  C5  UNL     1      26.383   1.013  53.726  1.00  0.00     0.126 C 
HETATM    7  F1  UNL     1      27.201   0.579  54.763  1.00  0.00    -0.208 F 
HETATM    8  C6  UNL     1      25.135   0.771  53.421  1.00  0.00     0.119 C 
HETATM    9  C7  UNL     1      23.762   0.360  53.294  1.00  0.00     0.060 A 
HETATM   10  N1  UNL     1      23.182  -0.855  53.398  1.00  0.00    -0.245 NA
HETATM   11  C8  UNL     1      21.872  -1.088  53.221  1.00  0.00     0.234 A 
HETATM   12  N2  UNL     1      21.027  -0.090  52.921  1.00  0.00    -0.241 NA
HETATM   13  C9  UNL     1      21.539   1.145  52.802  1.00  0.00     0.070 A 
HETATM   14  C10 UNL     1      20.579   2.089  52.467  1.00  0.00     0.033 A 
HETATM   15  C11 UNL     1      21.024   3.400  52.298  1.00  0.00     0.009 A 
HETATM   16  C12 UNL     1      22.359   3.672  52.472  1.00  0.00    -0.057 A 
HETATM   17  C13 UNL     1      23.248   2.677  52.808  1.00  0.00     0.023 A 
HETATM   18  C14 UNL     1      22.878   1.384  52.982  1.00  0.00     0.019 A 
HETATM   19  C15 UNL     1      23.030   4.984  52.291  1.00  0.00     0.047 C 
HETATM   20  C16 UNL     1      23.606   5.123  50.894  1.00  0.00     0.039 C 
HETATM   21  C17 UNL     1      22.891   6.305  50.273  1.00  0.00     0.011 C 
HETATM   22  C18 UNL     1      22.812   6.291  48.800  1.00  0.00     0.027 C 
HETATM   23  C19 UNL     1      23.563   5.139  48.166  1.00  0.00     0.170 C 
HETATM   24  O1  UNL     1      23.219   3.988  48.777  1.00  0.00    -0.366 OA
HETATM   25  C20 UNL     1      23.517   3.862  50.109  1.00  0.00     0.225 C 
HETATM   26  N3  UNL     1      24.721   3.014  50.229  1.00  0.00    -0.367 N 
HETATM   27  H19 UNL     1      24.661   2.017  49.931  1.00  0.00     0.162 HD
ENDROOT
TORSDOF 0
ENDMDL
MODEL 4
REMARK VINA RESULT:      -8.6      3.353      7.078
REMARK  0 active torsions:
REMARK  status: ('A' for Active; 'I' for Inactive)
ROOT
HETATM    1  C1  UNL     1      21.541   0.798  53.427  1.00  0.00     0.062 C 
HETATM    2  C2  UNL     1      22.608   1.282  52.751  1.00  0.00     0.009 C 
HETATM    3  C3  UNL     1      23.999   0.898  52.712  1.00  0.00     0.051 C 
HETATM    4  C4  UNL     1      25.295   0.749  52.506  1.00  0.00     0.071 C 
HETATM    5 CL1  UNL     1      26.153  -0.557  53.357  1.00  0.00    -0.081 Cl
HETATM    6  C5  UNL     1      26.151   1.594  51.629  1.00  0.00     0.126 C 
HETATM    7  F1  UNL     1      27.443   1.085  51.691  1.00  0.00    -0.208 F 
HETATM    8  C6  UNL     1      25.626   2.603  50.985  1.00  0.00     0.119 C 
HETATM    9  C7  UNL     1      25.283   3.749  50.186  1.00  0.00     0.060 A 
HETATM   10  N1  UNL     1      25.886   4.948  50.040  1.00  0.00    -0.245 NA
HETATM   11  C8  UNL     1      25.422   5.943  49.268  1.00  0.00     0.234 A 
HETATM   12  N2  UNL     1      24.288   5.800  48.565  1.00  0.00    -0.241 NA
HETATM   13  C9  UNL     1      23.636   4.631  48.665  1.00  0.00     0.070 A 
HETATM   14  C10 UNL     1      22.468   4.607  47.916  1.00  0.00     0.033 A 
HETATM   15  C11 UNL     1      21.711   3.438  47.977  1.00  0.00     0.009 A 
HETATM   16  C12 UNL     1      22.158   2.401  48.759  1.00  0.00    -0.057 A 
HETATM   17  C13 UNL     1      23.331   2.504  49.470  1.00  0.00     0.023 A 
HETATM   18  C14 UNL     1      24.110   3.614  49.454  1.00  0.00     0.019 A 
HETATM   19  C15 UNL     1      21.474   1.104  48.991  1.00  0.00     0.047 C 
HETATM   20  C16 UNL     1      20.627   1.142  50.250  1.00  0.00     0.039 C 
HETATM   21  C17 UNL     1      19.205   0.898  49.791  1.00  0.00     0.011 C 
HETATM   22  C18 UNL     1      18.156   1.456  50.666  1.00  0.00     0.027 C 
HETATM   23  C19 UNL     1      18.698   2.086  51.931  1.00  0.00     0.170 C 
HETATM   24  O1  UNL     1      19.703   2.928  51.620  1.00  0.00    -0.366 OA
HETATM   25  C20 UNL     1      20.820   2.393  51.033  1.00  0.00     0.225 C 
HETATM   26  N3  UNL     1      21.869   2.277  52.067  1.00  0.00    -0.367 N 
HETATM   27  H19 UNL     1      22.251   3.150  52.491  1.00  0.00     0.162 HD
ENDROOT
TORSDOF 0
ENDMDL
MODEL 5
REMARK VINA RESULT:      -8.2      3.930      6.065
REMARK  0 active torsions:
REMARK  status: ('A' for Active; 'I' for Inactive)
ROOT
HETATM    1  C1  UNL     1      27.217   4.563  49.124  1.00  0.00     0.062 C 
HETATM    2  C2  UNL     1      26.267   3.851  49.774  1.00  0.00     0.009 C 
HETATM    3  C3  UNL     1      26.335   2.777  50.737  1.00  0.00     0.051 C 
HETATM    4  C4  UNL     1      26.133   1.807  51.608  1.00  0.00     0.071 C 
HETATM    5 CL1  UNL     1      27.542   0.997  52.332  1.00  0.00    -0.081 Cl
HETATM    6  C5  UNL     1      24.812   1.280  52.050  1.00  0.00     0.126 C 
HETATM    7  F1  UNL     1      25.053   0.274  52.979  1.00  0.00    -0.208 F 
HETATM    8  C6  UNL     1      23.712   1.782  51.552  1.00  0.00     0.119 C 
HETATM    9  C7  UNL     1      22.385   2.168  51.155  1.00  0.00     0.060 A 
HETATM   10  N1  UNL     1      21.308   1.430  50.810  1.00  0.00    -0.245 NA
HETATM   11  C8  UNL     1      20.127   1.943  50.429  1.00  0.00     0.234 A 
HETATM   12  N2  UNL     1      19.937   3.270  50.368  1.00  0.00    -0.241 NA
HETATM   13  C9  UNL     1      20.969   4.062  50.699  1.00  0.00     0.070 A 
HETATM   14  C10 UNL     1      20.666   5.411  50.576  1.00  0.00     0.033 A 
HETATM   15  C11 UNL     1      21.687   6.311  50.876  1.00  0.00     0.009 A 
HETATM   16  C12 UNL     1      22.908   5.818  51.269  1.00  0.00    -0.057 A 
HETATM   17  C13 UNL     1      23.127   4.464  51.369  1.00  0.00     0.023 A 
HETATM   18  C14 UNL     1      22.177   3.539  51.088  1.00  0.00     0.019 A 
HETATM   19  C15 UNL     1      24.126   6.608  51.582  1.00  0.00     0.047 C 
HETATM   20  C16 UNL     1      25.030   6.734  50.370  1.00  0.00     0.039 C 
HETATM   21  C17 UNL     1      25.115   8.218  50.079  1.00  0.00     0.011 C 
HETATM   22  C18 UNL     1      25.409   8.569  48.676  1.00  0.00     0.027 C 
HETATM   23  C19 UNL     1      25.681   7.366  47.797  1.00  0.00     0.170 C 
HETATM   24  O1  UNL     1      24.708   6.451  47.975  1.00  0.00    -0.366 OA
HETATM   25  C20 UNL     1      24.573   5.903  49.224  1.00  0.00     0.225 C 
HETATM   26  N3  UNL     1      25.182   4.557  49.200  1.00  0.00    -0.367 N 
HETATM   27  H19 UNL     1      24.749   3.823  48.600  1.00  0.00     0.162 HD
ENDROOT
TORSDOF 0
ENDMDL
MODEL 6
REMARK VINA RESULT:      -8.0      7.485      9.757
REMARK  0 active torsions:
REMARK  status: ('A' for Active; 'I' for Inactive)
ROOT
HETATM    1  C1  UNL     1      30.970  10.831  48.968  1.00  0.00     0.062 C 
HETATM    2  C2  UNL     1      29.641  10.576  48.954  1.00  0.00     0.009 C 
HETATM    3  C3  UNL     1      28.496  11.368  48.574  1.00  0.00     0.051 C 
HETATM    4  C4  UNL     1      27.310  11.876  48.295  1.00  0.00     0.071 C 
HETATM    5 CL1  UNL     1      27.216  13.540  47.670  1.00  0.00    -0.081 Cl
HETATM    6  C5  UNL     1      25.997  11.199  48.472  1.00  0.00     0.126 C 
HETATM    7  F1  UNL     1      25.010  12.082  48.047  1.00  0.00    -0.208 F 
HETATM    8  C6  UNL     1      25.950   9.986  48.958  1.00  0.00     0.119 C 
HETATM    9  C7  UNL     1      25.649   8.674  49.464  1.00  0.00     0.060 A 
HETATM   10  N1  UNL     1      24.725   8.251  50.354  1.00  0.00    -0.245 NA
HETATM   11  C8  UNL     1      24.583   6.978  50.754  1.00  0.00     0.234 A 
HETATM   12  N2  UNL     1      25.379   6.010  50.275  1.00  0.00    -0.241 NA
HETATM   13  C9  UNL     1      26.321   6.362  49.386  1.00  0.00     0.070 A 
HETATM   14  C10 UNL     1      27.098   5.286  48.979  1.00  0.00     0.033 A 
HETATM   15  C11 UNL     1      28.120   5.561  48.072  1.00  0.00     0.009 A 
HETATM   16  C12 UNL     1      28.292   6.854  47.642  1.00  0.00    -0.057 A 
HETATM   17  C13 UNL     1      27.476   7.866  48.092  1.00  0.00     0.023 A 
HETATM   18  C14 UNL     1      26.467   7.663  48.976  1.00  0.00     0.019 A 
HETATM   19  C15 UNL     1      29.346   7.353  46.723  1.00  0.00     0.047 C 
HETATM   20  C16 UNL     1      30.543   7.885  47.490  1.00  0.00     0.039 C 
HETATM   21  C17 UNL     1      31.712   7.017  47.073  1.00  0.00     0.011 C 
HETATM   22  C18 UNL     1      32.805   6.917  48.059  1.00  0.00     0.027 C 
HETATM   23  C19 UNL     1      32.604   7.795  49.276  1.00  0.00     0.170 C 
HETATM   24  O1  UNL     1      31.362   7.607  49.764  1.00  0.00    -0.366 OA
HETATM   25  C20 UNL     1      30.305   7.941  48.958  1.00  0.00     0.225 C 
HETATM   26  N3  UNL     1      29.776   9.243  49.413  1.00  0.00    -0.367 N 
HETATM   27  H19 UNL     1      29.346   9.303  50.361  1.00  0.00     0.162 HD
ENDROOT
TORSDOF 0
ENDMDL
MODEL 7
REMARK VINA RESULT:      -8.0      4.199      6.907
REMARK  0 active torsions:
REMARK  status: ('A' for Active; 'I' for Inactive)
ROOT
HETATM    1  C1  UNL     1      25.337   2.344  51.590  1.00  0.00     0.062 C 
HETATM    2  C2  UNL     1      25.071   3.456  50.867  1.00  0.00     0.009 C 
HETATM    3  C3  UNL     1      25.860   4.236  49.943  1.00  0.00     0.051 C 
HETATM    4  C4  UNL     1      26.364   5.099  49.081  1.00  0.00     0.071 C 
HETATM    5 CL1  UNL     1      28.038   4.875  48.521  1.00  0.00    -0.081 Cl
HETATM    6  C5  UNL     1      25.671   6.294  48.522  1.00  0.00     0.126 C 
HETATM    7  F1  UNL     1      26.554   6.917  47.647  1.00  0.00    -0.208 F 
HETATM    8  C6  UNL     1      24.449   6.570  48.895  1.00  0.00     0.119 C 
HETATM    9  C7  UNL     1      23.125   7.072  49.148  1.00  0.00     0.060 A 
HETATM   10  N1  UNL     1      22.678   8.320  49.403  1.00  0.00    -0.245 NA
HETATM   11  C8  UNL     1      21.396   8.632  49.650  1.00  0.00     0.234 A 
HETATM   12  N2  UNL     1      20.444   7.686  49.659  1.00  0.00    -0.241 NA
HETATM   13  C9  UNL     1      20.821   6.421  49.413  1.00  0.00     0.070 A 
HETATM   14  C10 UNL     1      19.760   5.529  49.471  1.00  0.00     0.033 A 
HETATM   15  C11 UNL     1      20.061   4.185  49.251  1.00  0.00     0.009 A 
HETATM   16  C12 UNL     1      21.363   3.833  48.995  1.00  0.00    -0.057 A 
HETATM   17  C13 UNL     1      22.359   4.782  48.952  1.00  0.00     0.023 A 
HETATM   18  C14 UNL     1      22.131   6.102  49.159  1.00  0.00     0.019 A 
HETATM   19  C15 UNL     1      21.888   2.460  48.785  1.00  0.00     0.047 C 
HETATM   20  C16 UNL     1      22.416   1.866  50.078  1.00  0.00     0.039 C 
HETATM   21  C17 UNL     1      21.567   0.639  50.339  1.00  0.00     0.011 C 
HETATM   22  C18 UNL     1      21.457   0.239  51.754  1.00  0.00     0.027 C 
HETATM   23  C19 UNL     1      22.310   1.073  52.686  1.00  0.00     0.170 C 
HETATM   24  O1  UNL     1      22.103   2.381  52.435  1.00  0.00    -0.366 OA
HETATM   25  C20 UNL     1      22.442   2.851  51.194  1.00  0.00     0.225 C 
HETATM   26  N3  UNL     1      23.731   3.564  51.311  1.00  0.00    -0.367 N 
HETATM   27  H19 UNL     1      23.770   4.434  51.884  1.00  0.00     0.162 HD
ENDROOT
TORSDOF 0
ENDMDL
MODEL 8
REMARK VINA RESULT:      -7.9      8.189     11.438
REMARK  0 active torsions:
REMARK  status: ('A' for Active; 'I' for Inactive)
ROOT
HETATM    1  C1  UNL     1      27.388  10.132  49.253  1.00  0.00     0.062 C 
HETATM    2  C2  UNL     1      27.886   8.901  48.990  1.00  0.00     0.009 C 
HETATM    3  C3  UNL     1      27.289   7.587  48.973  1.00  0.00     0.051 C 
HETATM    4  C4  UNL     1      26.988   6.304  48.893  1.00  0.00     0.071 C 
HETATM    5 CL1  UNL     1      25.313   5.795  49.213  1.00  0.00    -0.081 Cl
HETATM    6  C5  UNL     1      27.929   5.196  48.576  1.00  0.00     0.126 C 
HETATM    7  F1  UNL     1      27.200   4.012  48.583  1.00  0.00    -0.208 F 
HETATM    8  C6  UNL     1      29.192   5.457  48.357  1.00  0.00     0.119 C 
HETATM    9  C7  UNL     1      30.603   5.495  48.083  1.00  0.00     0.060 A 
HETATM   10  N1  UNL     1      31.621   4.734  48.538  1.00  0.00    -0.245 NA
HETATM   11  C8  UNL     1      32.910   4.912  48.207  1.00  0.00     0.234 A 
HETATM   12  N2  UNL     1      33.279   5.894  47.370  1.00  0.00    -0.241 NA
HETATM   13  C9  UNL     1      32.315   6.689  46.880  1.00  0.00     0.070 A 
HETATM   14  C10 UNL     1      32.815   7.680  46.047  1.00  0.00     0.033 A 
HETATM   15  C11 UNL     1      31.887   8.570  45.508  1.00  0.00     0.009 A 
HETATM   16  C12 UNL     1      30.560   8.415  45.827  1.00  0.00    -0.057 A 
HETATM   17  C13 UNL     1      30.144   7.402  46.661  1.00  0.00     0.023 A 
HETATM   18  C14 UNL     1      30.997   6.507  47.218  1.00  0.00     0.019 A 
HETATM   19  C15 UNL     1      29.434   9.283  45.397  1.00  0.00     0.047 C 
HETATM   20  C16 UNL     1      29.132  10.351  46.432  1.00  0.00     0.039 C 
HETATM   21  C17 UNL     1      29.369  11.674  45.734  1.00  0.00     0.011 C 
HETATM   22  C18 UNL     1      29.725  12.799  46.619  1.00  0.00     0.027 C 
HETATM   23  C19 UNL     1      29.684  12.446  48.091  1.00  0.00     0.170 C 
HETATM   24  O1  UNL     1      30.370  11.305  48.298  1.00  0.00    -0.366 OA
HETATM   25  C20 UNL     1      29.908  10.167  47.690  1.00  0.00     0.225 C 
HETATM   26  N3  UNL     1      29.192   9.365  48.703  1.00  0.00    -0.367 N 
HETATM   27  H19 UNL     1      29.734   8.972  49.503  1.00  0.00     0.162 HD
ENDROOT
TORSDOF 0
ENDMDL
MODEL 9
REMARK VINA RESULT:      -7.9      3.137      5.890
REMARK  0 active torsions:
REMARK  status: ('A' for Active; 'I' for Inactive)
ROOT
HETATM    1  C1  UNL     1      20.709   2.822  48.261  1.00  0.00     0.062 C 
HETATM    2  C2  UNL     1      21.795   2.704  49.060  1.00  0.00     0.009 C 
HETATM    3  C3  UNL     1      23.015   3.466  49.174  1.00  0.00     0.051 C 
HETATM    4  C4  UNL     1      24.192   3.987  49.468  1.00  0.00     0.071 C 
HETATM    5 CL1  UNL     1      24.740   5.425  48.574  1.00  0.00    -0.081 Cl
HETATM    6  C5  UNL     1      25.154   3.476  50.483  1.00  0.00     0.126 C 
HETATM    7  F1  UNL     1      26.256   4.324  50.478  1.00  0.00    -0.208 F 
HETATM    8  C6  UNL     1      24.865   2.403  51.172  1.00  0.00     0.119 C 
HETATM    9  C7  UNL     1      24.770   1.260  52.040  1.00  0.00     0.060 A 
HETATM   10  N1  UNL     1      25.663   0.292  52.340  1.00  0.00    -0.245 NA
HETATM   11  C8  UNL     1      25.415  -0.742  53.159  1.00  0.00     0.234 A 
HETATM   12  N2  UNL     1      24.220  -0.880  53.754  1.00  0.00    -0.241 NA
HETATM   13  C9  UNL     1      23.285   0.049  53.499  1.00  0.00     0.070 A 
HETATM   14  C10 UNL     1      22.086  -0.210  54.148  1.00  0.00     0.033 A 
HETATM   15  C11 UNL     1      21.047   0.692  53.922  1.00  0.00     0.009 A 
HETATM   16  C12 UNL     1      21.269   1.761  53.089  1.00  0.00    -0.057 A 
HETATM   17  C13 UNL     1      22.490   1.948  52.484  1.00  0.00     0.023 A 
HETATM   18  C14 UNL     1      23.538   1.106  52.661  1.00  0.00     0.019 A 
HETATM   19  C15 UNL     1      20.281   2.795  52.687  1.00  0.00     0.047 C 
HETATM   20  C16 UNL     1      19.609   2.439  51.374  1.00  0.00     0.039 C 
HETATM   21  C17 UNL     1      18.135   2.300  51.695  1.00  0.00     0.011 C 
HETATM   22  C18 UNL     1      17.375   1.414  50.794  1.00  0.00     0.027 C 
HETATM   23  C19 UNL     1      18.194   0.883  49.636  1.00  0.00     0.170 C 
HETATM   24  O1  UNL     1      19.355   0.381  50.101  1.00  0.00    -0.366 OA
HETATM   25  C20 UNL     1      20.217   1.245  50.724  1.00  0.00     0.225 C 
HETATM   26  N3  UNL     1      21.292   1.586  49.770  1.00  0.00    -0.367 N 
HETATM   27  H19 UNL     1      21.940   0.831  49.458  1.00  0.00     0.162 HD
ENDROOT
TORSDOF 0
ENDMDL
