MODEL 1
REMARK VINA RESULT:      -7.7      0.000      0.000
REMARK  6 active torsions:
REMARK  status: ('A' for Active; 'I' for Inactive)
REMARK    1  A    between atoms: O1_2  and  C2_3 
REMARK    2  A    between atoms: C5_6  and  C6_7 
REMARK    3  A    between atoms: C6_7  and  N1_8 
REMARK    4  A    between atoms: C11_13  and  S1_14 
REMARK    5  A    between atoms: N2_17  and  C14_18 
REMARK    6  A    between atoms: C14_18  and  C15_19 
ROOT
HETATM    1  C2  UNL     1      24.179  -0.593  54.139  1.00  0.00     0.146 A 
HETATM    2  C3  UNL     1      22.946  -0.698  53.706  1.00  0.00    -0.023 A 
HETATM    3  C4  UNL     1      22.049  -1.672  54.407  1.00  0.00     0.049 C 
HETATM    4  C5  UNL     1      22.115  -0.064  52.617  1.00  0.00     0.060 A 
HETATM    5  C12 UNL     1      23.081   0.902  51.956  1.00  0.00     0.001 A 
HETATM    6  C13 UNL     1      24.365   1.077  52.328  1.00  0.00     0.090 A 
HETATM    7  N2  UNL     1      24.962   0.345  53.424  1.00  0.00    -0.334 N 
ENDROOT
BRANCH   4   8
HETATM    8  C6  UNL     1      21.036   0.748  53.236  1.00  0.00     0.142 C 
BRANCH   8   9
HETATM    9  N1  UNL     1      19.808   0.899  52.550  1.00  0.00    -0.350 N 
HETATM   10  C7  UNL     1      19.070  -0.350  52.540  1.00  0.00     0.104 C 
HETATM   11  C8  UNL     1      17.780  -0.433  52.256  1.00  0.00    -0.009 C 
HETATM   12  C9  UNL     1      17.275   0.333  51.353  1.00  0.00     0.016 C 
HETATM   13  C10 UNL     1      17.927   1.634  51.293  1.00  0.00     0.038 C 
HETATM   14  C11 UNL     1      19.098   1.901  51.845  1.00  0.00     0.069 C 
BRANCH  14  15
HETATM   15  S1  UNL     1      19.947   3.460  51.743  1.00  0.00    -0.125 SA
HETATM   16  H13 UNL     1      20.544   3.680  53.013  1.00  0.00     0.108 HD
ENDBRANCH  14  15
ENDBRANCH   8   9
ENDBRANCH   4   8
BRANCH   1  17
HETATM   17  O1  UNL     1      24.719  -1.302  55.186  1.00  0.00    -0.340 OA
HETATM   18  C1  UNL     1      24.972  -0.801  56.480  1.00  0.00     0.211 C 
ENDBRANCH   1  17
BRANCH   7  19
HETATM   19  C14 UNL     1      26.327   0.673  53.612  1.00  0.00     0.169 C 
BRANCH  19  20
HETATM   20  C15 UNL     1      27.302  -0.394  53.418  1.00  0.00    -0.040 A 
HETATM   21  C16 UNL     1      27.209  -1.650  52.863  1.00  0.00     0.009 A 
HETATM   22  C17 UNL     1      28.268  -2.510  52.780  1.00  0.00     0.001 A 
HETATM   23  C18 UNL     1      29.515  -2.145  53.263  1.00  0.00     0.000 A 
HETATM   24  C19 UNL     1      29.650  -0.910  53.820  1.00  0.00     0.001 A 
HETATM   25  C20 UNL     1      28.564  -0.035  53.903  1.00  0.00     0.009 A 
ENDBRANCH  19  20
ENDBRANCH   7  19
TORSDOF 6
ENDMDL
MODEL 2
REMARK VINA RESULT:      -7.7      2.310      3.679
REMARK  6 active torsions:
REMARK  status: ('A' for Active; 'I' for Inactive)
REMARK    1  A    between atoms: O1_2  and  C2_3 
REMARK    2  A    between atoms: C5_6  and  C6_7 
REMARK    3  A    between atoms: C6_7  and  N1_8 
REMARK    4  A    between atoms: C11_13  and  S1_14 
REMARK    5  A    between atoms: N2_17  and  C14_18 
REMARK    6  A    between atoms: C14_18  and  C15_19 
ROOT
HETATM    1  C2  UNL     1      25.498   2.551  50.909  1.00  0.00     0.146 A 
HETATM    2  C3  UNL     1      24.200   2.575  50.735  1.00  0.00    -0.023 A 
HETATM    3  C4  UNL     1      23.694   2.869  49.355  1.00  0.00     0.049 C 
HETATM    4  C5  UNL     1      22.979   2.376  51.600  1.00  0.00     0.060 A 
HETATM    5  C12 UNL     1      23.563   2.086  52.970  1.00  0.00     0.001 A 
HETATM    6  C13 UNL     1      24.881   2.042  53.248  1.00  0.00     0.090 A 
HETATM    7  N2  UNL     1      25.894   2.270  52.240  1.00  0.00    -0.334 N 
ENDROOT
BRANCH   4   8
HETATM    8  C6  UNL     1      22.262   1.152  51.158  1.00  0.00     0.142 C 
BRANCH   8   9
HETATM    9  N1  UNL     1      21.457   0.453  52.087  1.00  0.00    -0.350 N 
HETATM   10  C7  UNL     1      22.219  -0.594  52.741  1.00  0.00     0.104 C 
HETATM   11  C8  UNL     1      21.832  -1.191  53.857  1.00  0.00    -0.009 C 
HETATM   12  C9  UNL     1      20.582  -1.430  54.052  1.00  0.00     0.016 C 
HETATM   13  C10 UNL     1      19.718  -0.419  53.458  1.00  0.00     0.038 C 
HETATM   14  C11 UNL     1      20.118   0.454  52.550  1.00  0.00     0.069 C 
BRANCH  14  15
HETATM   15  S1  UNL     1      19.077   1.663  51.764  1.00  0.00    -0.125 SA
HETATM   16  H13 UNL     1      18.622   1.079  50.551  1.00  0.00     0.108 HD
ENDBRANCH  14  15
ENDBRANCH   8   9
ENDBRANCH   4   8
BRANCH   1  17
HETATM   17  O1  UNL     1      26.439   2.770  49.931  1.00  0.00    -0.340 OA
HETATM   18  C1  UNL     1      26.845   4.030  49.443  1.00  0.00     0.211 C 
ENDBRANCH   1  17
BRANCH   7  19
HETATM   19  C14 UNL     1      27.207   2.203  52.768  1.00  0.00     0.169 C 
BRANCH  19  20
HETATM   20  C15 UNL     1      27.790   0.877  52.936  1.00  0.00    -0.040 A 
HETATM   21  C16 UNL     1      27.313  -0.389  52.679  1.00  0.00     0.009 A 
HETATM   22  C17 UNL     1      28.040  -1.522  52.916  1.00  0.00     0.001 A 
HETATM   23  C18 UNL     1      29.322  -1.445  53.437  1.00  0.00     0.000 A 
HETATM   24  C19 UNL     1      29.832  -0.211  53.705  1.00  0.00     0.001 A 
HETATM   25  C20 UNL     1      29.085   0.945  53.462  1.00  0.00     0.009 A 
ENDBRANCH  19  20
ENDBRANCH   7  19
TORSDOF 6
ENDMDL
MODEL 3
REMARK VINA RESULT:      -7.6      4.792      6.608
REMARK  6 active torsions:
REMARK  status: ('A' for Active; 'I' for Inactive)
REMARK    1  A    between atoms: O1_2  and  C2_3 
REMARK    2  A    between atoms: C5_6  and  C6_7 
REMARK    3  A    between atoms: C6_7  and  N1_8 
REMARK    4  A    between atoms: C11_13  and  S1_14 
REMARK    5  A    between atoms: N2_17  and  C14_18 
REMARK    6  A    between atoms: C14_18  and  C15_19 
ROOT
HETATM    1  C2  UNL     1      23.079   3.489  49.407  1.00  0.00     0.146 A 
HETATM    2  C3  UNL     1      22.627   2.560  50.213  1.00  0.00    -0.023 A 
HETATM    3  C4  UNL     1      21.918   1.394  49.595  1.00  0.00     0.049 C 
HETATM    4  C5  UNL     1      22.622   2.317  51.703  1.00  0.00     0.060 A 
HETATM    5  C12 UNL     1      23.350   3.528  52.258  1.00  0.00     0.001 A 
HETATM    6  C13 UNL     1      23.846   4.533  51.511  1.00  0.00     0.090 A 
HETATM    7  N2  UNL     1      23.733   4.556  50.068  1.00  0.00    -0.334 N 
ENDROOT
BRANCH   4   8
HETATM    8  C6  UNL     1      23.454   1.125  52.007  1.00  0.00     0.142 C 
BRANCH   8   9
HETATM    9  N1  UNL     1      23.030   0.228  53.015  1.00  0.00    -0.350 N 
HETATM   10  C7  UNL     1      21.583   0.123  53.031  1.00  0.00     0.104 C 
HETATM   11  C8  UNL     1      20.929  -0.855  53.638  1.00  0.00    -0.009 C 
HETATM   12  C9  UNL     1      21.373  -1.325  54.751  1.00  0.00     0.016 C 
HETATM   13  C10 UNL     1      22.827  -1.293  54.833  1.00  0.00     0.038 C 
HETATM   14  C11 UNL     1      23.597  -0.577  54.033  1.00  0.00     0.069 C 
BRANCH  14  15
HETATM   15  S1  UNL     1      25.369  -0.473  54.141  1.00  0.00    -0.125 SA
HETATM   16  H13 UNL     1      25.871  -1.767  53.833  1.00  0.00     0.108 HD
ENDBRANCH  14  15
ENDBRANCH   8   9
ENDBRANCH   4   8
BRANCH   1  17
HETATM   17  O1  UNL     1      22.957   3.483  48.037  1.00  0.00    -0.340 OA
HETATM   18  C1  UNL     1      21.970   4.162  47.293  1.00  0.00     0.211 C 
ENDBRANCH   1  17
BRANCH   7  19
HETATM   19  C14 UNL     1      24.302   5.723  49.501  1.00  0.00     0.169 C 
BRANCH  19  20
HETATM   20  C15 UNL     1      25.696   5.649  49.083  1.00  0.00    -0.040 A 
HETATM   21  C16 UNL     1      26.619   4.627  49.096  1.00  0.00     0.009 A 
HETATM   22  C17 UNL     1      27.902   4.775  48.649  1.00  0.00     0.001 A 
HETATM   23  C18 UNL     1      28.342   5.990  48.149  1.00  0.00     0.000 A 
HETATM   24  C19 UNL     1      27.460   7.028  48.118  1.00  0.00     0.001 A 
HETATM   25  C20 UNL     1      26.150   6.872  48.577  1.00  0.00     0.009 A 
ENDBRANCH  19  20
ENDBRANCH   7  19
TORSDOF 6
ENDMDL
MODEL 4
REMARK VINA RESULT:      -7.5      2.555      8.088
REMARK  6 active torsions:
REMARK  status: ('A' for Active; 'I' for Inactive)
REMARK    1  A    between atoms: O1_2  and  C2_3 
REMARK    2  A    between atoms: C5_6  and  C6_7 
REMARK    3  A    between atoms: C6_7  and  N1_8 
REMARK    4  A    between atoms: C11_13  and  S1_14 
REMARK    5  A    between atoms: N2_17  and  C14_18 
REMARK    6  A    between atoms: C14_18  and  C15_19 
ROOT
HETATM    1  C2  UNL     1      23.158   1.826  52.313  1.00  0.00     0.146 A 
HETATM    2  C3  UNL     1      24.354   1.292  52.271  1.00  0.00    -0.023 A 
HETATM    3  C4  UNL     1      25.415   2.036  51.519  1.00  0.00     0.049 C 
HETATM    4  C5  UNL     1      25.012   0.045  52.809  1.00  0.00     0.060 A 
HETATM    5  C12 UNL     1      23.887  -0.652  53.552  1.00  0.00     0.001 A 
HETATM    6  C13 UNL     1      22.626  -0.184  53.648  1.00  0.00     0.090 A 
HETATM    7  N2  UNL     1      22.213   1.061  53.039  1.00  0.00    -0.334 N 
ENDROOT
BRANCH   4   8
HETATM    8  C6  UNL     1      26.035   0.427  53.816  1.00  0.00     0.142 C 
BRANCH   8   9
HETATM    9  N1  UNL     1      27.374   0.014  53.628  1.00  0.00    -0.350 N 
HETATM   10  C7  UNL     1      27.455  -1.430  53.522  1.00  0.00     0.104 C 
HETATM   11  C8  UNL     1      28.509  -2.068  53.037  1.00  0.00    -0.009 C 
HETATM   12  C9  UNL     1      29.692  -1.622  53.279  1.00  0.00     0.016 C 
HETATM   13  C10 UNL     1      29.733  -0.169  53.379  1.00  0.00     0.038 C 
HETATM   14  C11 UNL     1      28.665   0.591  53.540  1.00  0.00     0.069 C 
BRANCH  14  15
HETATM   15  S1  UNL     1      28.685   2.360  53.721  1.00  0.00    -0.125 SA
HETATM   16  H13 UNL     1      27.887   2.885  52.669  1.00  0.00     0.108 HD
ENDBRANCH  14  15
ENDBRANCH   8   9
ENDBRANCH   4   8
BRANCH   1  17
HETATM   17  O1  UNL     1      22.794   3.014  51.725  1.00  0.00    -0.340 OA
HETATM   18  C1  UNL     1      22.784   4.277  52.353  1.00  0.00     0.211 C 
ENDBRANCH   1  17
BRANCH   7  19
HETATM   19  C14 UNL     1      20.839   1.335  53.248  1.00  0.00     0.169 C 
BRANCH  19  20
HETATM   20  C15 UNL     1      19.922   1.006  52.164  1.00  0.00    -0.040 A 
HETATM   21  C16 UNL     1      19.782   1.493  50.883  1.00  0.00     0.009 A 
HETATM   22  C17 UNL     1      18.834   1.036  50.011  1.00  0.00     0.001 A 
HETATM   23  C18 UNL     1      17.949   0.038  50.386  1.00  0.00     0.000 A 
HETATM   24  C19 UNL     1      18.053  -0.472  51.645  1.00  0.00     0.001 A 
HETATM   25  C20 UNL     1      19.024  -0.002  52.533  1.00  0.00     0.009 A 
ENDBRANCH  19  20
ENDBRANCH   7  19
TORSDOF 6
ENDMDL
MODEL 5
REMARK VINA RESULT:      -7.4      3.774      4.800
REMARK  6 active torsions:
REMARK  status: ('A' for Active; 'I' for Inactive)
REMARK    1  A    between atoms: O1_2  and  C2_3 
REMARK    2  A    between atoms: C5_6  and  C6_7 
REMARK    3  A    between atoms: C6_7  and  N1_8 
REMARK    4  A    between atoms: C11_13  and  S1_14 
REMARK    5  A    between atoms: N2_17  and  C14_18 
REMARK    6  A    between atoms: C14_18  and  C15_19 
ROOT
HETATM    1  C2  UNL     1      24.156   1.347  52.587  1.00  0.00     0.146 A 
HETATM    2  C3  UNL     1      23.699   1.982  51.536  1.00  0.00    -0.023 A 
HETATM    3  C4  UNL     1      22.234   1.863  51.241  1.00  0.00     0.049 C 
HETATM    4  C5  UNL     1      24.277   2.867  50.459  1.00  0.00     0.060 A 
HETATM    5  C12 UNL     1      25.749   2.942  50.819  1.00  0.00     0.001 A 
HETATM    6  C13 UNL     1      26.312   2.322  51.875  1.00  0.00     0.090 A 
HETATM    7  N2  UNL     1      25.548   1.508  52.794  1.00  0.00    -0.334 N 
ENDROOT
BRANCH   4   8
HETATM    8  C6  UNL     1      23.719   4.237  50.599  1.00  0.00     0.142 C 
BRANCH   8   9
HETATM    9  N1  UNL     1      23.621   5.061  49.455  1.00  0.00    -0.350 N 
HETATM   10  C7  UNL     1      22.625   4.545  48.535  1.00  0.00     0.104 C 
HETATM   11  C8  UNL     1      22.100   5.259  47.552  1.00  0.00    -0.009 C 
HETATM   12  C9  UNL     1      22.836   6.097  46.909  1.00  0.00     0.016 C 
HETATM   13  C10 UNL     1      23.861   6.702  47.748  1.00  0.00     0.038 C 
HETATM   14  C11 UNL     1      24.228   6.227  48.926  1.00  0.00     0.069 C 
BRANCH  14  15
HETATM   15  S1  UNL     1      25.513   6.908  49.950  1.00  0.00    -0.125 SA
HETATM   16  H13 UNL     1      25.058   6.804  51.292  1.00  0.00     0.108 HD
ENDBRANCH  14  15
ENDBRANCH   8   9
ENDBRANCH   4   8
BRANCH   1  17
HETATM   17  O1  UNL     1      23.405   0.580  53.445  1.00  0.00    -0.340 OA
HETATM   18  C1  UNL     1      23.161  -0.804  53.318  1.00  0.00     0.211 C 
ENDBRANCH   1  17
BRANCH   7  19
HETATM   19  C14 UNL     1      26.355   0.936  53.809  1.00  0.00     0.169 C 
BRANCH  19  20
HETATM   20  C15 UNL     1      27.106  -0.266  53.464  1.00  0.00    -0.040 A 
HETATM   21  C16 UNL     1      26.744  -1.448  52.858  1.00  0.00     0.009 A 
HETATM   22  C17 UNL     1      27.625  -2.467  52.627  1.00  0.00     0.001 A 
HETATM   23  C18 UNL     1      28.954  -2.353  53.001  1.00  0.00     0.000 A 
HETATM   24  C19 UNL     1      29.354  -1.199  53.604  1.00  0.00     0.001 A 
HETATM   25  C20 UNL     1      28.450  -0.160  53.839  1.00  0.00     0.009 A 
ENDBRANCH  19  20
ENDBRANCH   7  19
TORSDOF 6
ENDMDL
MODEL 6
REMARK VINA RESULT:      -7.4      3.636      5.300
REMARK  6 active torsions:
REMARK  status: ('A' for Active; 'I' for Inactive)
REMARK    1  A    between atoms: O1_2  and  C2_3 
REMARK    2  A    between atoms: C5_6  and  C6_7 
REMARK    3  A    between atoms: C6_7  and  N1_8 
REMARK    4  A    between atoms: C11_13  and  S1_14 
REMARK    5  A    between atoms: N2_17  and  C14_18 
REMARK    6  A    between atoms: C14_18  and  C15_19 
ROOT
HETATM    1  C2  UNL     1      24.119   1.299  52.691  1.00  0.00     0.146 A 
HETATM    2  C3  UNL     1      23.844   2.025  51.636  1.00  0.00    -0.023 A 
HETATM    3  C4  UNL     1      22.418   2.060  51.175  1.00  0.00     0.049 C 
HETATM    4  C5  UNL     1      24.619   2.902  50.682  1.00  0.00     0.060 A 
HETATM    5  C12 UNL     1      26.041   2.819  51.206  1.00  0.00     0.001 A 
HETATM    6  C13 UNL     1      26.421   2.098  52.280  1.00  0.00     0.090 A 
HETATM    7  N2  UNL     1      25.486   1.316  53.060  1.00  0.00    -0.334 N 
ENDROOT
BRANCH   4   8
HETATM    8  C6  UNL     1      24.172   4.310  50.841  1.00  0.00     0.142 C 
BRANCH   8   9
HETATM    9  N1  UNL     1      24.270   5.192  49.740  1.00  0.00    -0.350 N 
HETATM   10  C7  UNL     1      25.537   5.898  49.760  1.00  0.00     0.104 C 
HETATM   11  C8  UNL     1      26.033   6.537  48.712  1.00  0.00    -0.009 C 
HETATM   12  C9  UNL     1      25.242   7.166  47.915  1.00  0.00     0.016 C 
HETATM   13  C10 UNL     1      23.940   6.523  47.796  1.00  0.00     0.038 C 
HETATM   14  C11 UNL     1      23.486   5.610  48.637  1.00  0.00     0.069 C 
BRANCH  14  15
HETATM   15  S1  UNL     1      21.882   4.848  48.552  1.00  0.00    -0.125 SA
HETATM   16  H13 UNL     1      20.930   5.903  48.571  1.00  0.00     0.108 HD
ENDBRANCH  14  15
ENDBRANCH   8   9
ENDBRANCH   4   8
BRANCH   1  17
HETATM   17  O1  UNL     1      23.208   0.566  53.415  1.00  0.00    -0.340 OA
HETATM   18  C1  UNL     1      22.910  -0.800  53.226  1.00  0.00     0.211 C 
ENDBRANCH   1  17
BRANCH   7  19
HETATM   19  C14 UNL     1      26.117   0.622  54.121  1.00  0.00     0.169 C 
BRANCH  19  20
HETATM   20  C15 UNL     1      27.182  -0.309  53.769  1.00  0.00    -0.040 A 
HETATM   21  C16 UNL     1      28.542  -0.292  53.982  1.00  0.00     0.009 A 
HETATM   22  C17 UNL     1      29.377  -1.288  53.558  1.00  0.00     0.001 A 
HETATM   23  C18 UNL     1      28.878  -2.386  52.877  1.00  0.00     0.000 A 
HETATM   24  C19 UNL     1      27.538  -2.443  52.644  1.00  0.00     0.001 A 
HETATM   25  C20 UNL     1      26.688  -1.423  53.080  1.00  0.00     0.009 A 
ENDBRANCH  19  20
ENDBRANCH   7  19
TORSDOF 6
ENDMDL
MODEL 7
REMARK VINA RESULT:      -7.3      2.925      4.099
REMARK  6 active torsions:
REMARK  status: ('A' for Active; 'I' for Inactive)
REMARK    1  A    between atoms: O1_2  and  C2_3 
REMARK    2  A    between atoms: C5_6  and  C6_7 
REMARK    3  A    between atoms: C6_7  and  N1_8 
REMARK    4  A    between atoms: C11_13  and  S1_14 
REMARK    5  A    between atoms: N2_17  and  C14_18 
REMARK    6  A    between atoms: C14_18  and  C15_19 
ROOT
HETATM    1  C2  UNL     1      23.008  -0.154  52.854  1.00  0.00     0.146 A 
HETATM    2  C3  UNL     1      22.551   0.594  51.879  1.00  0.00    -0.023 A 
HETATM    3  C4  UNL     1      21.175   0.296  51.368  1.00  0.00     0.049 C 
HETATM    4  C5  UNL     1      23.062   1.759  51.067  1.00  0.00     0.060 A 
HETATM    5  C12 UNL     1      24.448   2.002  51.636  1.00  0.00     0.001 A 
HETATM    6  C13 UNL     1      25.004   1.286  52.632  1.00  0.00     0.090 A 
HETATM    7  N2  UNL     1      24.315   0.189  53.277  1.00  0.00    -0.334 N 
ENDROOT
BRANCH   4   8
HETATM    8  C6  UNL     1      22.245   2.962  51.371  1.00  0.00     0.142 C 
BRANCH   8   9
HETATM    9  N1  UNL     1      22.581   4.194  50.763  1.00  0.00    -0.350 N 
HETATM   10  C7  UNL     1      23.148   5.107  51.737  1.00  0.00     0.104 C 
HETATM   11  C8  UNL     1      23.832   6.192  51.408  1.00  0.00    -0.009 C 
HETATM   12  C9  UNL     1      23.481   6.879  50.378  1.00  0.00     0.016 C 
HETATM   13  C10 UNL     1      22.920   6.053  49.317  1.00  0.00     0.038 C 
HETATM   14  C11 UNL     1      22.503   4.811  49.491  1.00  0.00     0.069 C 
BRANCH  14  15
HETATM   15  S1  UNL     1      21.762   3.795  48.233  1.00  0.00    -0.125 SA
HETATM   16  H13 UNL     1      20.824   4.615  47.549  1.00  0.00     0.108 HD
ENDBRANCH  14  15
ENDBRANCH   8   9
ENDBRANCH   4   8
BRANCH   1  17
HETATM   17  O1  UNL     1      22.329  -1.191  53.449  1.00  0.00    -0.340 OA
HETATM   18  C1  UNL     1      21.548  -1.102  54.621  1.00  0.00     0.211 C 
ENDBRANCH   1  17
BRANCH   7  19
HETATM   19  C14 UNL     1      25.105  -0.433  54.275  1.00  0.00     0.169 C 
BRANCH  19  20
HETATM   20  C15 UNL     1      26.529  -0.583  54.001  1.00  0.00    -0.040 A 
HETATM   21  C16 UNL     1      27.226  -1.334  53.081  1.00  0.00     0.009 A 
HETATM   22  C17 UNL     1      28.590  -1.328  52.993  1.00  0.00     0.001 A 
HETATM   23  C18 UNL     1      29.351  -0.547  53.848  1.00  0.00     0.000 A 
HETATM   24  C19 UNL     1      28.701   0.211  54.774  1.00  0.00     0.001 A 
HETATM   25  C20 UNL     1      27.306   0.202  54.860  1.00  0.00     0.009 A 
ENDBRANCH  19  20
ENDBRANCH   7  19
TORSDOF 6
ENDMDL
MODEL 8
REMARK VINA RESULT:      -7.3      2.755      8.188
REMARK  6 active torsions:
REMARK  status: ('A' for Active; 'I' for Inactive)
REMARK    1  A    between atoms: O1_2  and  C2_3 
REMARK    2  A    between atoms: C5_6  and  C6_7 
REMARK    3  A    between atoms: C6_7  and  N1_8 
REMARK    4  A    between atoms: C11_13  and  S1_14 
REMARK    5  A    between atoms: N2_17  and  C14_18 
REMARK    6  A    between atoms: C14_18  and  C15_19 
ROOT
HETATM    1  C2  UNL     1      19.562   0.256  51.299  1.00  0.00     0.146 A 
HETATM    2  C3  UNL     1      20.872   0.276  51.258  1.00  0.00    -0.023 A 
HETATM    3  C4  UNL     1      21.515   0.764  49.995  1.00  0.00     0.049 C 
HETATM    4  C5  UNL     1      21.998  -0.082  52.196  1.00  0.00     0.060 A 
HETATM    5  C12 UNL     1      21.278  -0.565  53.441  1.00  0.00     0.001 A 
HETATM    6  C13 UNL     1      19.938  -0.625  53.577  1.00  0.00     0.090 A 
HETATM    7  N2  UNL     1      19.033  -0.221  52.523  1.00  0.00    -0.334 N 
ENDROOT
BRANCH   4   8
HETATM    8  C6  UNL     1      22.737   1.152  52.566  1.00  0.00     0.142 C 
BRANCH   8   9
HETATM    9  N1  UNL     1      24.116   1.246  52.265  1.00  0.00    -0.350 N 
HETATM   10  C7  UNL     1      24.857   0.188  52.926  1.00  0.00     0.104 C 
HETATM   11  C8  UNL     1      26.088  -0.162  52.587  1.00  0.00    -0.009 C 
HETATM   12  C9  UNL     1      26.929   0.739  52.217  1.00  0.00     0.016 C 
HETATM   13  C10 UNL     1      26.293   1.844  51.513  1.00  0.00     0.038 C 
HETATM   14  C11 UNL     1      24.993   2.083  51.532  1.00  0.00     0.069 C 
BRANCH  14  15
HETATM   15  S1  UNL     1      24.191   3.453  50.731  1.00  0.00    -0.125 SA
HETATM   16  H13 UNL     1      24.129   3.134  49.348  1.00  0.00     0.108 HD
ENDBRANCH  14  15
ENDBRANCH   8   9
ENDBRANCH   4   8
BRANCH   1  17
HETATM   17  O1  UNL     1      18.726   0.647  50.280  1.00  0.00    -0.340 OA
HETATM   18  C1  UNL     1      18.120   1.915  50.150  1.00  0.00     0.211 C 
ENDBRANCH   1  17
BRANCH   7  19
HETATM   19  C14 UNL     1      17.674  -0.399  52.881  1.00  0.00     0.169 C 
BRANCH  19  20
HETATM   20  C15 UNL     1      17.182  -1.768  52.972  1.00  0.00    -0.040 A 
HETATM   21  C16 UNL     1      17.676  -2.895  53.590  1.00  0.00     0.009 A 
HETATM   22  C17 UNL     1      17.042  -4.106  53.549  1.00  0.00     0.001 A 
HETATM   23  C18 UNL     1      15.845  -4.256  52.868  1.00  0.00     0.000 A 
HETATM   24  C19 UNL     1      15.321  -3.165  52.244  1.00  0.00     0.001 A 
HETATM   25  C20 UNL     1      15.972  -1.929  52.287  1.00  0.00     0.009 A 
ENDBRANCH  19  20
ENDBRANCH   7  19
TORSDOF 6
ENDMDL
MODEL 9
REMARK VINA RESULT:      -7.3      3.580      7.365
REMARK  6 active torsions:
REMARK  status: ('A' for Active; 'I' for Inactive)
REMARK    1  A    between atoms: O1_2  and  C2_3 
REMARK    2  A    between atoms: C5_6  and  C6_7 
REMARK    3  A    between atoms: C6_7  and  N1_8 
REMARK    4  A    between atoms: C11_13  and  S1_14 
REMARK    5  A    between atoms: N2_17  and  C14_18 
REMARK    6  A    between atoms: C14_18  and  C15_19 
ROOT
HETATM    1  C2  UNL     1      24.314   0.837  52.560  1.00  0.00     0.146 A 
HETATM    2  C3  UNL     1      25.014   1.792  51.998  1.00  0.00    -0.023 A 
HETATM    3  C4  UNL     1      26.457   1.510  51.708  1.00  0.00     0.049 C 
HETATM    4  C5  UNL     1      24.754   3.202  51.526  1.00  0.00     0.060 A 
HETATM    5  C12 UNL     1      23.287   3.415  51.850  1.00  0.00     0.001 A 
HETATM    6  C13 UNL     1      22.488   2.497  52.428  1.00  0.00     0.090 A 
HETATM    7  N2  UNL     1      22.962   1.182  52.803  1.00  0.00    -0.334 N 
ENDROOT
BRANCH   4   8
HETATM    8  C6  UNL     1      24.891   3.255  50.048  1.00  0.00     0.142 C 
BRANCH   8   9
HETATM    9  N1  UNL     1      25.508   4.381  49.454  1.00  0.00    -0.350 N 
HETATM   10  C7  UNL     1      26.940   4.180  49.340  1.00  0.00     0.104 C 
HETATM   11  C8  UNL     1      27.719   4.908  48.556  1.00  0.00    -0.009 C 
HETATM   12  C9  UNL     1      27.483   6.165  48.413  1.00  0.00     0.016 C 
HETATM   13  C10 UNL     1      26.063   6.481  48.483  1.00  0.00     0.038 C 
HETATM   14  C11 UNL     1      25.146   5.659  48.963  1.00  0.00     0.069 C 
BRANCH  14  15
HETATM   15  S1  UNL     1      23.414   6.034  49.114  1.00  0.00    -0.125 SA
HETATM   16  H13 UNL     1      23.082   5.867  50.486  1.00  0.00     0.108 HD
ENDBRANCH  14  15
ENDBRANCH   8   9
ENDBRANCH   4   8
BRANCH   1  17
HETATM   17  O1  UNL     1      24.791  -0.405  52.905  1.00  0.00    -0.340 OA
HETATM   18  C1  UNL     1      25.300  -0.773  54.168  1.00  0.00     0.211 C 
ENDBRANCH   1  17
BRANCH   7  19
HETATM   19  C14 UNL     1      21.954   0.400  53.419  1.00  0.00     0.169 C 
BRANCH  19  20
HETATM   20  C15 UNL     1      20.716   0.204  52.676  1.00  0.00    -0.040 A 
HETATM   21  C16 UNL     1      20.335   0.538  51.396  1.00  0.00     0.009 A 
HETATM   22  C17 UNL     1      19.099   0.256  50.887  1.00  0.00     0.001 A 
HETATM   23  C18 UNL     1      18.148  -0.396  51.657  1.00  0.00     0.000 A 
HETATM   24  C19 UNL     1      18.484  -0.744  52.930  1.00  0.00     0.001 A 
HETATM   25  C20 UNL     1      19.749  -0.454  53.446  1.00  0.00     0.009 A 
ENDBRANCH  19  20
ENDBRANCH   7  19
TORSDOF 6
ENDMDL
