MODEL 1
REMARK VINA RESULT:      -8.8      0.000      0.000
REMARK  1 active torsions:
REMARK  status: ('A' for Active; 'I' for Inactive)
REMARK       I    between atoms: C3_3  and  N1_5 
REMARK    1  A    between atoms: N1_5  and  C4_6 
ROOT
HETATM    1  C1  UNL     1      22.643   5.210  47.456  1.00  0.00     0.022 C 
HETATM    2  C2  UNL     1      22.831   4.324  48.243  1.00  0.00    -0.016 C 
HETATM    3  C3  UNL     1      23.068   3.266  49.213  1.00  0.00     0.299 C 
HETATM    4  O1  UNL     1      22.685   2.133  48.849  1.00  0.00    -0.258 OA
HETATM    5  N1  UNL     1      23.675   3.434  50.478  1.00  0.00    -0.323 N 
HETATM    6  H2  UNL     1      23.908   4.454  50.561  1.00  0.00     0.169 HD
ENDROOT
BRANCH   5   7
HETATM    7  C4  UNL     1      23.934   2.412  51.478  1.00  0.00     0.003 C 
HETATM    8  C5  UNL     1      25.231   2.180  51.307  1.00  0.00     0.069 C 
HETATM    9  C6  UNL     1      26.412   1.453  51.705  1.00  0.00     0.016 C 
HETATM   10  C7  UNL     1      26.905   0.555  52.537  1.00  0.00     0.081 C 
HETATM   11  N2  UNL     1      28.182  -0.038  52.736  1.00  0.00    -0.245 NA
HETATM   12  C9  UNL     1      26.211  -0.118  53.665  1.00  0.00     0.146 C 
HETATM   13  C8  UNL     1      27.974  -1.258  53.213  1.00  0.00     0.205 C 
HETATM   14  N3  UNL     1      26.541  -1.496  53.348  1.00  0.00    -0.353 N 
HETATM   15  H6  UNL     1      26.340  -2.514  53.171  1.00  0.00     0.163 HD
HETATM   16  C10 UNL     1      26.982   0.222  54.956  1.00  0.00     0.070 C 
HETATM   17  N4  UNL     1      24.833   0.185  53.816  1.00  0.00    -0.358 N 
HETATM   18  C11 UNL     1      23.433   0.125  53.606  1.00  0.00     0.038 A 
HETATM   19  H10 UNL     1      24.664   0.909  54.547  1.00  0.00     0.162 HD
HETATM   20  C12 UNL     1      23.036  -1.027  54.299  1.00  0.00     0.030 A 
HETATM   21  C16 UNL     1      22.581   0.899  52.923  1.00  0.00    -0.009 A 
HETATM   22  C13 UNL     1      21.715  -1.497  54.356  1.00  0.00     0.004 A 
HETATM   23  C14 UNL     1      20.835  -0.714  53.662  1.00  0.00     0.020 A 
HETATM   24  C15 UNL     1      21.270   0.398  53.004  1.00  0.00     0.019 A 
HETATM   25 BR1  UNL     1      19.816   1.307  52.111  1.00  0.00    -0.050 Br
HETATM   26  C17 UNL     1      22.623   2.101  52.124  1.00  0.00     0.095 C 
ENDBRANCH   5   7
TORSDOF 1
ENDMDL
MODEL 2
REMARK VINA RESULT:      -8.7      2.156      5.727
REMARK  1 active torsions:
REMARK  status: ('A' for Active; 'I' for Inactive)
REMARK       I    between atoms: C3_3  and  N1_5 
REMARK    1  A    between atoms: N1_5  and  C4_6 
ROOT
HETATM    1  C1  UNL     1      28.969  -0.042  54.513  1.00  0.00     0.022 C 
HETATM    2  C2  UNL     1      28.007   0.005  53.798  1.00  0.00    -0.016 C 
HETATM    3  C3  UNL     1      26.831   0.080  52.944  1.00  0.00     0.299 C 
HETATM    4  O1  UNL     1      26.820  -0.743  52.002  1.00  0.00    -0.258 OA
HETATM    5  N1  UNL     1      25.755   0.982  53.105  1.00  0.00    -0.323 N 
HETATM    6  H2  UNL     1      25.983   1.566  53.948  1.00  0.00     0.169 HD
ENDROOT
BRANCH   5   7
HETATM    7  C4  UNL     1      24.564   1.095  52.283  1.00  0.00     0.003 C 
HETATM    8  C5  UNL     1      24.874   2.111  51.484  1.00  0.00     0.069 C 
HETATM    9  C6  UNL     1      24.490   2.983  50.401  1.00  0.00     0.016 C 
HETATM   10  C7  UNL     1      23.551   3.272  49.520  1.00  0.00     0.081 C 
HETATM   11  N2  UNL     1      23.396   4.249  48.499  1.00  0.00    -0.245 NA
HETATM   12  C9  UNL     1      22.281   2.543  49.272  1.00  0.00     0.146 C 
HETATM   13  C8  UNL     1      22.097   4.489  48.385  1.00  0.00     0.205 C 
HETATM   14  N3  UNL     1      21.358   3.662  49.332  1.00  0.00    -0.353 N 
HETATM   15  H6  UNL     1      20.503   4.183  49.657  1.00  0.00     0.163 HD
HETATM   16  C10 UNL     1      22.292   2.073  47.803  1.00  0.00     0.070 C 
HETATM   17  N4  UNL     1      22.012   1.451  50.139  1.00  0.00    -0.358 N 
HETATM   18  C11 UNL     1      21.578   0.753  51.292  1.00  0.00     0.038 A 
HETATM   19  H10 UNL     1      22.264   0.534  49.712  1.00  0.00     0.162 HD
HETATM   20  C12 UNL     1      20.183   0.714  51.160  1.00  0.00     0.030 A 
HETATM   21  C16 UNL     1      22.230   0.222  52.335  1.00  0.00    -0.009 A 
HETATM   22  C13 UNL     1      19.318   0.124  52.094  1.00  0.00     0.004 A 
HETATM   23  C14 UNL     1      19.973  -0.421  53.164  1.00  0.00     0.020 A 
HETATM   24  C15 UNL     1      21.333  -0.359  53.247  1.00  0.00     0.019 A 
HETATM   25 BR1  UNL     1      21.984  -1.205  54.859  1.00  0.00    -0.050 Br
HETATM   26  C17 UNL     1      23.592   0.080  52.792  1.00  0.00     0.095 C 
ENDBRANCH   5   7
TORSDOF 1
ENDMDL
MODEL 3
REMARK VINA RESULT:      -8.7      2.844      6.140
REMARK  1 active torsions:
REMARK  status: ('A' for Active; 'I' for Inactive)
REMARK       I    between atoms: C3_3  and  N1_5 
REMARK    1  A    between atoms: N1_5  and  C4_6 
ROOT
HETATM    1  C1  UNL     1      30.220  -0.886  53.830  1.00  0.00     0.022 C 
HETATM    2  C2  UNL     1      29.097  -0.464  53.849  1.00  0.00    -0.016 C 
HETATM    3  C3  UNL     1      27.732   0.038  53.850  1.00  0.00     0.299 C 
HETATM    4  O1  UNL     1      27.405   0.653  54.889  1.00  0.00    -0.258 OA
HETATM    5  N1  UNL     1      26.798  -0.119  52.801  1.00  0.00    -0.323 N 
HETATM    6  H2  UNL     1      27.290  -0.659  52.047  1.00  0.00     0.169 HD
ENDROOT
BRANCH   5   7
HETATM    7  C4  UNL     1      25.429   0.363  52.754  1.00  0.00     0.003 C 
HETATM    8  C5  UNL     1      24.770  -0.615  53.367  1.00  0.00     0.069 C 
HETATM    9  C6  UNL     1      23.512  -1.141  53.840  1.00  0.00     0.016 C 
HETATM   10  C7  UNL     1      22.216  -0.921  53.950  1.00  0.00     0.081 C 
HETATM   11  N2  UNL     1      21.115  -1.645  54.482  1.00  0.00    -0.245 NA
HETATM   12  C9  UNL     1      21.465   0.302  53.566  1.00  0.00     0.146 C 
HETATM   13  C8  UNL     1      20.044  -1.292  53.785  1.00  0.00     0.205 C 
HETATM   14  N3  UNL     1      20.417  -0.311  52.770  1.00  0.00    -0.353 N 
HETATM   15  H6  UNL     1      19.809  -0.440  51.921  1.00  0.00     0.163 HD
HETATM   16  C10 UNL     1      20.779   0.845  54.836  1.00  0.00     0.070 C 
HETATM   17  N4  UNL     1      22.223   1.325  52.937  1.00  0.00    -0.358 N 
HETATM   18  C11 UNL     1      22.883   2.040  51.908  1.00  0.00     0.038 A 
HETATM   19  H10 UNL     1      22.504   2.077  53.602  1.00  0.00     0.162 HD
HETATM   20  C12 UNL     1      21.843   2.686  51.225  1.00  0.00     0.030 A 
HETATM   21  C16 UNL     1      24.170   2.146  51.553  1.00  0.00    -0.009 A 
HETATM   22  C13 UNL     1      22.028   3.508  50.102  1.00  0.00     0.004 A 
HETATM   23  C14 UNL     1      23.340   3.625  49.731  1.00  0.00     0.020 A 
HETATM   24  C15 UNL     1      24.315   2.977  50.429  1.00  0.00     0.019 A 
HETATM   25 BR1  UNL     1      26.065   3.318  49.681  1.00  0.00    -0.050 Br
HETATM   26  C17 UNL     1      25.451   1.649  51.994  1.00  0.00     0.095 C 
ENDBRANCH   5   7
TORSDOF 1
ENDMDL
MODEL 4
REMARK VINA RESULT:      -8.5      2.393      4.685
REMARK  1 active torsions:
REMARK  status: ('A' for Active; 'I' for Inactive)
REMARK       I    between atoms: C3_3  and  N1_5 
REMARK    1  A    between atoms: N1_5  and  C4_6 
ROOT
HETATM    1  C1  UNL     1      17.137  -0.003  51.747  1.00  0.00     0.022 C 
HETATM    2  C2  UNL     1      18.269   0.380  51.849  1.00  0.00    -0.016 C 
HETATM    3  C3  UNL     1      19.650   0.825  51.960  1.00  0.00     0.299 C 
HETATM    4  O1  UNL     1      19.799   1.910  52.565  1.00  0.00    -0.258 OA
HETATM    5  N1  UNL     1      20.777   0.141  51.450  1.00  0.00    -0.323 N 
HETATM    6  H2  UNL     1      20.410  -0.729  50.990  1.00  0.00     0.169 HD
ENDROOT
BRANCH   5   7
HETATM    7  C4  UNL     1      22.170   0.542  51.536  1.00  0.00     0.003 C 
HETATM    8  C5  UNL     1      22.571  -0.082  52.638  1.00  0.00     0.069 C 
HETATM    9  C6  UNL     1      23.637  -0.374  53.566  1.00  0.00     0.016 C 
HETATM   10  C7  UNL     1      24.910  -0.182  53.851  1.00  0.00     0.081 C 
HETATM   11  N2  UNL     1      25.780  -0.596  54.897  1.00  0.00    -0.245 NA
HETATM   12  C9  UNL     1      25.924   0.546  53.046  1.00  0.00     0.146 C 
HETATM   13  C8  UNL     1      26.696   0.352  55.040  1.00  0.00     0.205 C 
HETATM   14  N3  UNL     1      26.452   1.421  54.077  1.00  0.00    -0.353 N 
HETATM   15  H6  UNL     1      26.743   2.341  54.498  1.00  0.00     0.163 HD
HETATM   16  C10 UNL     1      27.052  -0.449  52.706  1.00  0.00     0.070 C 
HETATM   17  N4  UNL     1      25.445   1.174  51.866  1.00  0.00    -0.358 N 
HETATM   18  C11 UNL     1      24.846   2.155  51.038  1.00  0.00     0.038 A 
HETATM   19  H10 UNL     1      25.624   0.603  51.012  1.00  0.00     0.162 HD
HETATM   20  C12 UNL     1      25.841   3.133  50.898  1.00  0.00     0.030 A 
HETATM   21  C16 UNL     1      23.635   2.257  50.476  1.00  0.00    -0.009 A 
HETATM   22  C13 UNL     1      25.685   4.318  50.162  1.00  0.00     0.004 A 
HETATM   23  C14 UNL     1      24.451   4.432  49.583  1.00  0.00     0.020 A 
HETATM   24  C15 UNL     1      23.517   3.453  49.748  1.00  0.00     0.019 A 
HETATM   25 BR1  UNL     1      21.873   3.879  48.823  1.00  0.00    -0.050 Br
HETATM   26  C17 UNL     1      22.414   1.490  50.406  1.00  0.00     0.095 C 
ENDBRANCH   5   7
TORSDOF 1
ENDMDL
MODEL 5
REMARK VINA RESULT:      -7.7      2.110      2.454
REMARK  1 active torsions:
REMARK  status: ('A' for Active; 'I' for Inactive)
REMARK       I    between atoms: C3_3  and  N1_5 
REMARK    1  A    between atoms: N1_5  and  C4_6 
ROOT
HETATM    1  C1  UNL     1      18.635   4.974  47.802  1.00  0.00     0.022 C 
HETATM    2  C2  UNL     1      19.314   4.556  48.698  1.00  0.00    -0.016 C 
HETATM    3  C3  UNL     1      20.142   4.028  49.772  1.00  0.00     0.299 C 
HETATM    4  O1  UNL     1      20.286   4.801  50.744  1.00  0.00    -0.258 OA
HETATM    5  N1  UNL     1      20.761   2.757  49.782  1.00  0.00    -0.323 N 
HETATM    6  H2  UNL     1      20.502   2.295  48.876  1.00  0.00     0.169 HD
ENDROOT
BRANCH   5   7
HETATM    7  C4  UNL     1      21.593   2.187  50.827  1.00  0.00     0.003 C 
HETATM    8  C5  UNL     1      22.816   2.493  50.406  1.00  0.00     0.069 C 
HETATM    9  C6  UNL     1      24.240   2.440  50.628  1.00  0.00     0.016 C 
HETATM   10  C7  UNL     1      25.198   2.041  51.443  1.00  0.00     0.081 C 
HETATM   11  N2  UNL     1      26.618   2.103  51.432  1.00  0.00    -0.245 NA
HETATM   12  C9  UNL     1      25.051   1.402  52.776  1.00  0.00     0.146 C 
HETATM   13  C8  UNL     1      27.059   1.047  52.102  1.00  0.00     0.205 C 
HETATM   14  N3  UNL     1      25.927   0.260  52.581  1.00  0.00    -0.353 N 
HETATM   15  H6  UNL     1      26.191  -0.759  52.590  1.00  0.00     0.163 HD
HETATM   16  C10 UNL     1      25.751   2.309  53.808  1.00  0.00     0.070 C 
HETATM   17  N4  UNL     1      23.721   1.118  53.186  1.00  0.00    -0.358 N 
HETATM   18  C11 UNL     1      22.491   0.427  53.299  1.00  0.00     0.038 A 
HETATM   19  H10 UNL     1      23.343   1.843  53.832  1.00  0.00     0.162 HD
HETATM   20  C12 UNL     1      22.763  -0.602  54.211  1.00  0.00     0.030 A 
HETATM   21  C16 UNL     1      21.293   0.599  52.724  1.00  0.00    -0.009 A 
HETATM   22  C13 UNL     1      21.825  -1.562  54.620  1.00  0.00     0.004 A 
HETATM   23  C14 UNL     1      20.597  -1.397  54.038  1.00  0.00     0.020 A 
HETATM   24  C15 UNL     1      20.382  -0.379  53.158  1.00  0.00     0.019 A 
HETATM   25 BR1  UNL     1      18.566  -0.389  52.495  1.00  0.00    -0.050 Br
HETATM   26  C17 UNL     1      20.672   1.499  51.782  1.00  0.00     0.095 C 
ENDBRANCH   5   7
TORSDOF 1
ENDMDL
MODEL 6
REMARK VINA RESULT:      -7.7      2.462      2.923
REMARK  1 active torsions:
REMARK  status: ('A' for Active; 'I' for Inactive)
REMARK       I    between atoms: C3_3  and  N1_5 
REMARK    1  A    between atoms: N1_5  and  C4_6 
ROOT
HETATM    1  C1  UNL     1      26.684   7.619  47.630  1.00  0.00     0.022 C 
HETATM    2  C2  UNL     1      26.269   6.824  48.426  1.00  0.00    -0.016 C 
HETATM    3  C3  UNL     1      25.770   5.842  49.377  1.00  0.00     0.299 C 
HETATM    4  O1  UNL     1      25.382   6.322  50.464  1.00  0.00    -0.258 OA
HETATM    5  N1  UNL     1      25.701   4.447  49.156  1.00  0.00    -0.323 N 
HETATM    6  H2  UNL     1      26.076   4.282  48.190  1.00  0.00     0.169 HD
ENDROOT
BRANCH   5   7
HETATM    7  C4  UNL     1      25.212   3.430  50.071  1.00  0.00     0.003 C 
HETATM    8  C5  UNL     1      26.342   2.893  50.518  1.00  0.00     0.069 C 
HETATM    9  C6  UNL     1      26.989   1.924  51.368  1.00  0.00     0.016 C 
HETATM   10  C7  UNL     1      26.807   0.966  52.257  1.00  0.00     0.081 C 
HETATM   11  N2  UNL     1      27.661   0.097  52.989  1.00  0.00    -0.245 NA
HETATM   12  C9  UNL     1      25.526   0.515  52.859  1.00  0.00     0.146 C 
HETATM   13  C8  UNL     1      26.984  -1.022  53.207  1.00  0.00     0.205 C 
HETATM   14  N3  UNL     1      25.651  -0.912  52.624  1.00  0.00    -0.353 N 
HETATM   15  H6  UNL     1      25.339  -1.860  52.289  1.00  0.00     0.163 HD
HETATM   16  C10 UNL     1      25.634   0.711  54.385  1.00  0.00     0.070 C 
HETATM   17  N4  UNL     1      24.352   1.139  52.361  1.00  0.00    -0.358 N 
HETATM   18  C11 UNL     1      23.253   1.402  51.507  1.00  0.00     0.038 A 
HETATM   19  H10 UNL     1      24.018   1.909  52.981  1.00  0.00     0.162 HD
HETATM   20  C12 UNL     1      22.326   0.401  51.830  1.00  0.00     0.030 A 
HETATM   21  C16 UNL     1      23.032   2.330  50.567  1.00  0.00    -0.009 A 
HETATM   22  C13 UNL     1      21.074   0.257  51.213  1.00  0.00     0.004 A 
HETATM   23  C14 UNL     1      20.837   1.200  50.251  1.00  0.00     0.020 A 
HETATM   24  C15 UNL     1      21.770   2.154  49.974  1.00  0.00     0.019 A 
HETATM   25 BR1  UNL     1      21.170   3.347  48.575  1.00  0.00    -0.050 Br
HETATM   26  C17 UNL     1      23.720   3.459  49.987  1.00  0.00     0.095 C 
ENDBRANCH   5   7
TORSDOF 1
ENDMDL
MODEL 7
REMARK VINA RESULT:      -7.5      2.731      4.804
REMARK  1 active torsions:
REMARK  status: ('A' for Active; 'I' for Inactive)
REMARK       I    between atoms: C3_3  and  N1_5 
REMARK    1  A    between atoms: N1_5  and  C4_6 
ROOT
HETATM    1  C1  UNL     1      17.446   1.906  49.924  1.00  0.00     0.022 C 
HETATM    2  C2  UNL     1      18.641   1.804  49.929  1.00  0.00    -0.016 C 
HETATM    3  C3  UNL     1      20.091   1.694  49.955  1.00  0.00     0.299 C 
HETATM    4  O1  UNL     1      20.570   0.935  49.084  1.00  0.00    -0.258 OA
HETATM    5  N1  UNL     1      20.949   2.361  50.860  1.00  0.00    -0.323 N 
HETATM    6  H2  UNL     1      20.330   2.931  51.487  1.00  0.00     0.169 HD
ENDROOT
BRANCH   5   7
HETATM    7  C4  UNL     1      22.398   2.285  50.924  1.00  0.00     0.003 C 
HETATM    8  C5  UNL     1      22.589   1.572  52.029  1.00  0.00     0.069 C 
HETATM    9  C6  UNL     1      23.514   0.954  52.948  1.00  0.00     0.016 C 
HETATM   10  C7  UNL     1      24.785   0.720  53.216  1.00  0.00     0.081 C 
HETATM   11  N2  UNL     1      25.486   0.052  54.256  1.00  0.00    -0.245 NA
HETATM   12  C9  UNL     1      25.969   1.071  52.391  1.00  0.00     0.146 C 
HETATM   13  C8  UNL     1      26.664   0.649  54.377  1.00  0.00     0.205 C 
HETATM   14  N3  UNL     1      26.770   1.732  53.405  1.00  0.00    -0.353 N 
HETATM   15  H6  UNL     1      27.351   2.509  53.812  1.00  0.00     0.163 HD
HETATM   16  C10 UNL     1      26.704  -0.241  52.049  1.00  0.00     0.070 C 
HETATM   17  N4  UNL     1      25.704   1.812  51.209  1.00  0.00    -0.358 N 
HETATM   18  C11 UNL     1      25.447   2.929  50.377  1.00  0.00     0.038 A 
HETATM   19  H10 UNL     1      25.674   1.208  50.360  1.00  0.00     0.162 HD
HETATM   20  C12 UNL     1      26.705   3.526  50.214  1.00  0.00     0.030 A 
HETATM   21  C16 UNL     1      24.328   3.417  49.827  1.00  0.00    -0.009 A 
HETATM   22  C13 UNL     1      26.934   4.692  49.466  1.00  0.00     0.004 A 
HETATM   23  C14 UNL     1      25.797   5.199  48.899  1.00  0.00     0.020 A 
HETATM   24  C15 UNL     1      24.596   4.581  49.087  1.00  0.00     0.019 A 
HETATM   25 BR1  UNL     1      23.169   5.515  48.176  1.00  0.00    -0.050 Br
HETATM   26  C17 UNL     1      22.922   3.092  49.780  1.00  0.00     0.095 C 
ENDBRANCH   5   7
TORSDOF 1
ENDMDL
MODEL 8
REMARK VINA RESULT:      -7.4      8.139     10.884
REMARK  1 active torsions:
REMARK  status: ('A' for Active; 'I' for Inactive)
REMARK       I    between atoms: C3_3  and  N1_5 
REMARK    1  A    between atoms: N1_5  and  C4_6 
ROOT
HETATM    1  C1  UNL     1      33.353   2.906  47.572  1.00  0.00     0.022 C 
HETATM    2  C2  UNL     1      32.675   3.848  47.878  1.00  0.00    -0.016 C 
HETATM    3  C3  UNL     1      31.845   4.991  48.226  1.00  0.00     0.299 C 
HETATM    4  O1  UNL     1      31.894   5.320  49.432  1.00  0.00    -0.258 OA
HETATM    5  N1  UNL     1      31.029   5.716  47.329  1.00  0.00    -0.323 N 
HETATM    6  H2  UNL     1      31.148   5.264  46.389  1.00  0.00     0.169 HD
ENDROOT
BRANCH   5   7
HETATM    7  C4  UNL     1      30.186   6.861  47.627  1.00  0.00     0.003 C 
HETATM    8  C5  UNL     1      31.065   7.858  47.631  1.00  0.00     0.069 C 
HETATM    9  C6  UNL     1      31.321   9.269  47.788  1.00  0.00     0.016 C 
HETATM   10  C7  UNL     1      30.781  10.452  48.017  1.00  0.00     0.081 C 
HETATM   11  N2  UNL     1      31.280  11.777  48.142  1.00  0.00    -0.245 NA
HETATM   12  C9  UNL     1      29.340  10.782  48.162  1.00  0.00     0.146 C 
HETATM   13  C8  UNL     1      30.467  12.422  48.967  1.00  0.00     0.205 C 
HETATM   14  N3  UNL     1      29.399  11.529  49.405  1.00  0.00    -0.353 N 
HETATM   15  H6  UNL     1      29.121  11.776  50.390  1.00  0.00     0.163 HD
HETATM   16  C10 UNL     1      28.983  11.803  47.062  1.00  0.00     0.070 C 
HETATM   17  N4  UNL     1      28.444   9.681  48.125  1.00  0.00    -0.358 N 
HETATM   18  C11 UNL     1      27.697   8.567  48.580  1.00  0.00     0.038 A 
HETATM   19  H10 UNL     1      28.006   9.557  47.187  1.00  0.00     0.162 HD
HETATM   20  C12 UNL     1      26.627   9.140  49.280  1.00  0.00     0.030 A 
HETATM   21  C16 UNL     1      27.868   7.244  48.456  1.00  0.00    -0.009 A 
HETATM   22  C13 UNL     1      25.623   8.403  49.927  1.00  0.00     0.004 A 
HETATM   23  C14 UNL     1      25.787   7.050  49.808  1.00  0.00     0.020 A 
HETATM   24  C15 UNL     1      26.845   6.541  49.114  1.00  0.00     0.019 A 
HETATM   25 BR1  UNL     1      26.825   4.608  49.112  1.00  0.00    -0.050 Br
HETATM   26  C17 UNL     1      28.804   6.333  47.842  1.00  0.00     0.095 C 
ENDBRANCH   5   7
TORSDOF 1
ENDMDL
MODEL 9
REMARK VINA RESULT:      -7.4      4.521      7.192
REMARK  1 active torsions:
REMARK  status: ('A' for Active; 'I' for Inactive)
REMARK       I    between atoms: C3_3  and  N1_5 
REMARK    1  A    between atoms: N1_5  and  C4_6 
ROOT
HETATM    1  C1  UNL     1      20.415  11.248  48.968  1.00  0.00     0.022 C 
HETATM    2  C2  UNL     1      20.996  10.199  48.941  1.00  0.00    -0.016 C 
HETATM    3  C3  UNL     1      21.716   8.934  48.925  1.00  0.00     0.299 C 
HETATM    4  O1  UNL     1      21.251   8.083  48.136  1.00  0.00    -0.258 OA
HETATM    5  N1  UNL     1      22.851   8.626  49.709  1.00  0.00    -0.323 N 
HETATM    6  H2  UNL     1      23.053   9.480  50.285  1.00  0.00     0.169 HD
ENDROOT
BRANCH   5   7
HETATM    7  C4  UNL     1      23.602   7.383  49.728  1.00  0.00     0.003 C 
HETATM    8  C5  UNL     1      23.031   6.730  50.735  1.00  0.00     0.069 C 
HETATM    9  C6  UNL     1      22.969   5.541  51.550  1.00  0.00     0.016 C 
HETATM   10  C7  UNL     1      23.473   4.339  51.757  1.00  0.00     0.081 C 
HETATM   11  N2  UNL     1      23.233   3.296  52.692  1.00  0.00    -0.245 NA
HETATM   12  C9  UNL     1      24.499   3.631  50.949  1.00  0.00     0.146 C 
HETATM   13  C8  UNL     1      24.378   2.647  52.854  1.00  0.00     0.205 C 
HETATM   14  N3  UNL     1      25.409   3.251  52.015  1.00  0.00    -0.353 N 
HETATM   15  H6  UNL     1      26.341   3.170  52.497  1.00  0.00     0.163 HD
HETATM   16  C10 UNL     1      23.866   2.322  50.436  1.00  0.00     0.070 C 
HETATM   17  N4  UNL     1      25.058   4.367  49.871  1.00  0.00    -0.358 N 
HETATM   18  C11 UNL     1      25.900   5.276  49.185  1.00  0.00     0.038 A 
HETATM   19  H10 UNL     1      24.616   4.129  48.957  1.00  0.00     0.162 HD
HETATM   20  C12 UNL     1      27.114   4.587  49.063  1.00  0.00     0.030 A 
HETATM   21  C16 UNL     1      25.714   6.521  48.726  1.00  0.00    -0.009 A 
HETATM   22  C13 UNL     1      28.263   5.115  48.454  1.00  0.00     0.004 A 
HETATM   23  C14 UNL     1      28.085   6.386  47.980  1.00  0.00     0.020 A 
HETATM   24  C15 UNL     1      26.883   7.014  48.122  1.00  0.00     0.019 A 
HETATM   25 BR1  UNL     1      26.921   8.793  47.366  1.00  0.00    -0.050 Br
HETATM   26  C17 UNL     1      24.656   7.502  48.675  1.00  0.00     0.095 C 
ENDBRANCH   5   7
TORSDOF 1
ENDMDL
