MODEL 1
REMARK VINA RESULT:      -7.0      0.000      0.000
REMARK  10 active torsions:
REMARK  status: ('A' for Active; 'I' for Inactive)
REMARK    1  A    between atoms: C6_6  and  N1_7 
REMARK    2  A    between atoms: N1_7  and  C7_8 
REMARK    3  A    between atoms: C11_14  and  O1_15 
REMARK    4  A    between atoms: O1_15  and  C12_16 
REMARK    5  A    between atoms: C12_16  and  C13_17 
REMARK    6  A    between atoms: C13_17  and  O2_18 
REMARK    7  A    between atoms: C15_20  and  C16_21 
REMARK    8  A    between atoms: C16_21  and  C17_22 
REMARK    9  A    between atoms: C17_22  and  O3_23 
REMARK   10  A    between atoms: O3_23  and  C18_24 
ROOT
HETATM    1  C1  UNL     1      22.173   4.857  46.832  1.00  0.00     0.017 C 
HETATM    2  C2  UNL     1      22.006   4.006  47.679  1.00  0.00    -0.082 C 
HETATM    3  C3  UNL     1      21.795   3.004  48.659  1.00  0.00     0.000 A 
HETATM    4  C4  UNL     1      21.833   1.702  48.446  1.00  0.00     0.018 A 
HETATM    5  C5  UNL     1      21.566   0.975  49.695  1.00  0.00     0.026 A 
HETATM    6  C6  UNL     1      21.367   1.851  50.662  1.00  0.00     0.015 A 
HETATM    7  C22 UNL     1      21.493   3.236  50.102  1.00  0.00     0.105 A 
ENDROOT
BRANCH   6   8
HETATM    8  N1  UNL     1      21.076   1.826  52.053  1.00  0.00    -0.343 N 
HETATM    9  H4  UNL     1      20.583   2.705  52.298  1.00  0.00     0.167 HD
BRANCH   8  10
HETATM   10  C7  UNL     1      21.457   0.723  52.827  1.00  0.00     0.141 A 
HETATM   11  N2  UNL     1      20.501  -0.152  53.178  1.00  0.00    -0.224 NA
HETATM   12  C8  UNL     1      20.791  -1.253  53.930  1.00  0.00     0.236 A 
HETATM   13  N3  UNL     1      22.078  -1.474  54.337  1.00  0.00    -0.241 NA
HETATM   14  C9  UNL     1      23.030  -0.594  53.983  1.00  0.00     0.074 A 
HETATM   15  C10 UNL     1      24.342  -0.759  54.360  1.00  0.00     0.070 A 
HETATM   16  C21 UNL     1      22.760   0.524  53.224  1.00  0.00     0.039 A 
HETATM   17  C11 UNL     1      25.404   0.065  54.063  1.00  0.00     0.077 A 
HETATM   18  C15 UNL     1      25.088   1.193  53.288  1.00  0.00    -0.022 A 
HETATM   19  C20 UNL     1      23.763   1.402  52.882  1.00  0.00     0.027 A 
BRANCH  17  20
HETATM   20  O1  UNL     1      26.705  -0.019  54.387  1.00  0.00    -0.348 OA
BRANCH  20  21
HETATM   21  C12 UNL     1      27.795  -0.648  53.842  1.00  0.00     0.201 C 
BRANCH  21  22
HETATM   22  C13 UNL     1      29.144  -0.111  54.159  1.00  0.00     0.193 C 
BRANCH  22  23
HETATM   23  O2  UNL     1      28.940   1.020  54.985  1.00  0.00    -0.394 OA
HETATM   24  C14 UNL     1      29.485   2.127  54.341  1.00  0.00     0.201 C 
ENDBRANCH  22  23
ENDBRANCH  21  22
ENDBRANCH  20  21
ENDBRANCH  17  20
BRANCH  18  25
HETATM   25  C16 UNL     1      26.116   2.182  52.885  1.00  0.00     0.067 C 
BRANCH  25  26
HETATM   26  C17 UNL     1      26.724   1.885  51.536  1.00  0.00     0.172 C 
BRANCH  26  27
HETATM   27  O3  UNL     1      26.805   2.990  50.730  1.00  0.00    -0.391 OA
BRANCH  27  28
HETATM   28  C18 UNL     1      25.620   3.676  50.598  1.00  0.00     0.163 C 
HETATM   29  C19 UNL     1      25.398   4.298  49.242  1.00  0.00     0.033 C 
ENDBRANCH  27  28
ENDBRANCH  26  27
ENDBRANCH  25  26
ENDBRANCH  18  25
ENDBRANCH   8  10
ENDBRANCH   6   8
TORSDOF 10
ENDMDL
MODEL 2
REMARK VINA RESULT:      -7.0      3.906      7.688
REMARK  10 active torsions:
REMARK  status: ('A' for Active; 'I' for Inactive)
REMARK    1  A    between atoms: C6_6  and  N1_7 
REMARK    2  A    between atoms: N1_7  and  C7_8 
REMARK    3  A    between atoms: C11_14  and  O1_15 
REMARK    4  A    between atoms: O1_15  and  C12_16 
REMARK    5  A    between atoms: C12_16  and  C13_17 
REMARK    6  A    between atoms: C13_17  and  O2_18 
REMARK    7  A    between atoms: C15_20  and  C16_21 
REMARK    8  A    between atoms: C16_21  and  C17_22 
REMARK    9  A    between atoms: C17_22  and  O3_23 
REMARK   10  A    between atoms: O3_23  and  C18_24 
ROOT
HETATM    1  C1  UNL     1      29.853  -1.343  53.453  1.00  0.00     0.017 C 
HETATM    2  C2  UNL     1      28.812  -0.725  53.416  1.00  0.00    -0.082 C 
HETATM    3  C3  UNL     1      27.592  -0.003  53.394  1.00  0.00     0.000 A 
HETATM    4  C4  UNL     1      27.398   1.193  53.920  1.00  0.00     0.018 A 
HETATM    5  C5  UNL     1      26.010   1.624  53.703  1.00  0.00     0.026 A 
HETATM    6  C6  UNL     1      25.370   0.678  53.041  1.00  0.00     0.015 A 
HETATM    7  C22 UNL     1      26.313  -0.457  52.775  1.00  0.00     0.105 A 
ENDROOT
BRANCH   6   8
HETATM    8  N1  UNL     1      24.062   0.461  52.529  1.00  0.00    -0.343 N 
HETATM    9  H4  UNL     1      24.017   0.855  51.572  1.00  0.00     0.167 HD
BRANCH   8  10
HETATM   10  C7  UNL     1      23.105  -0.194  53.314  1.00  0.00     0.141 A 
HETATM   11  N2  UNL     1      23.527  -0.793  54.440  1.00  0.00    -0.224 NA
HETATM   12  C8  UNL     1      22.657  -1.451  55.260  1.00  0.00     0.236 A 
HETATM   13  N3  UNL     1      21.330  -1.504  54.934  1.00  0.00    -0.241 NA
HETATM   14  C9  UNL     1      20.914  -0.903  53.806  1.00  0.00     0.074 A 
HETATM   15  C10 UNL     1      19.594  -0.921  53.422  1.00  0.00     0.070 A 
HETATM   16  C21 UNL     1      21.774  -0.233  52.963  1.00  0.00     0.039 A 
HETATM   17  C11 UNL     1      19.045  -0.346  52.298  1.00  0.00     0.077 A 
HETATM   18  C15 UNL     1      19.955   0.326  51.465  1.00  0.00    -0.022 A 
HETATM   19  C20 UNL     1      21.311   0.370  51.816  1.00  0.00     0.027 A 
BRANCH  17  20
HETATM   20  O1  UNL     1      17.780  -0.315  51.850  1.00  0.00    -0.348 OA
BRANCH  20  21
HETATM   21  C12 UNL     1      16.545  -0.333  52.447  1.00  0.00     0.201 C 
BRANCH  21  22
HETATM   22  C13 UNL     1      15.464   0.491  51.847  1.00  0.00     0.193 C 
BRANCH  22  23
HETATM   23  O2  UNL     1      14.893   1.234  52.909  1.00  0.00    -0.394 OA
HETATM   24  C14 UNL     1      13.786   0.532  53.378  1.00  0.00     0.201 C 
ENDBRANCH  22  23
ENDBRANCH  21  22
ENDBRANCH  20  21
ENDBRANCH  17  20
BRANCH  18  25
HETATM   25  C16 UNL     1      19.526   0.996  50.214  1.00  0.00     0.067 C 
BRANCH  25  26
HETATM   26  C17 UNL     1      19.853   2.469  50.191  1.00  0.00     0.172 C 
BRANCH  26  27
HETATM   27  O3  UNL     1      21.022   2.749  49.534  1.00  0.00    -0.391 OA
BRANCH  27  28
HETATM   28  C18 UNL     1      21.150   2.110  48.322  1.00  0.00     0.163 C 
HETATM   29  C19 UNL     1      22.535   2.157  47.726  1.00  0.00     0.033 C 
ENDBRANCH  27  28
ENDBRANCH  26  27
ENDBRANCH  25  26
ENDBRANCH  18  25
ENDBRANCH   8  10
ENDBRANCH   6   8
TORSDOF 10
ENDMDL
MODEL 3
REMARK VINA RESULT:      -6.9      2.378      6.513
REMARK  10 active torsions:
REMARK  status: ('A' for Active; 'I' for Inactive)
REMARK    1  A    between atoms: C6_6  and  N1_7 
REMARK    2  A    between atoms: N1_7  and  C7_8 
REMARK    3  A    between atoms: C11_14  and  O1_15 
REMARK    4  A    between atoms: O1_15  and  C12_16 
REMARK    5  A    between atoms: C12_16  and  C13_17 
REMARK    6  A    between atoms: C13_17  and  O2_18 
REMARK    7  A    between atoms: C15_20  and  C16_21 
REMARK    8  A    between atoms: C16_21  and  C17_22 
REMARK    9  A    between atoms: C17_22  and  O3_23 
REMARK   10  A    between atoms: O3_23  and  C18_24 
ROOT
HETATM    1  C1  UNL     1      30.389  -0.811  53.503  1.00  0.00     0.017 C 
HETATM    2  C2  UNL     1      29.203  -0.578  53.592  1.00  0.00    -0.082 C 
HETATM    3  C3  UNL     1      27.818  -0.308  53.718  1.00  0.00     0.000 A 
HETATM    4  C4  UNL     1      27.288   0.683  54.410  1.00  0.00     0.018 A 
HETATM    5  C5  UNL     1      25.822   0.646  54.309  1.00  0.00     0.026 A 
HETATM    6  C6  UNL     1      25.473  -0.375  53.550  1.00  0.00     0.015 A 
HETATM    7  C22 UNL     1      26.710  -1.090  53.094  1.00  0.00     0.105 A 
ENDROOT
BRANCH   6   8
HETATM    8  N1  UNL     1      24.271  -0.957  53.065  1.00  0.00    -0.343 N 
HETATM    9  H4  UNL     1      24.519  -1.765  52.465  1.00  0.00     0.167 HD
BRANCH   8  10
HETATM   10  C7  UNL     1      23.034  -0.411  53.430  1.00  0.00     0.141 A 
HETATM   11  N2  UNL     1      22.443  -0.892  54.535  1.00  0.00    -0.224 NA
HETATM   12  C8  UNL     1      21.237  -0.412  54.959  1.00  0.00     0.236 A 
HETATM   13  N3  UNL     1      20.616   0.578  54.248  1.00  0.00    -0.241 NA
HETATM   14  C9  UNL     1      21.213   1.055  53.142  1.00  0.00     0.074 A 
HETATM   15  C10 UNL     1      20.641   2.049  52.385  1.00  0.00     0.070 A 
HETATM   16  C21 UNL     1      22.430   0.585  52.696  1.00  0.00     0.039 A 
HETATM   17  C11 UNL     1      21.148   2.619  51.239  1.00  0.00     0.077 A 
HETATM   18  C15 UNL     1      22.389   2.113  50.817  1.00  0.00    -0.022 A 
HETATM   19  C20 UNL     1      23.009   1.099  51.559  1.00  0.00     0.027 A 
BRANCH  17  20
HETATM   20  O1  UNL     1      20.661   3.585  50.443  1.00  0.00    -0.348 OA
BRANCH  20  21
HETATM   21  C12 UNL     1      20.356   4.911  50.613  1.00  0.00     0.201 C 
BRANCH  21  22
HETATM   22  C13 UNL     1      21.101   5.911  49.805  1.00  0.00     0.193 C 
BRANCH  22  23
HETATM   23  O2  UNL     1      21.588   6.879  50.717  1.00  0.00    -0.394 OA
HETATM   24  C14 UNL     1      21.488   8.128  50.112  1.00  0.00     0.201 C 
ENDBRANCH  22  23
ENDBRANCH  21  22
ENDBRANCH  20  21
ENDBRANCH  17  20
BRANCH  18  25
HETATM   25  C16 UNL     1      23.070   2.618  49.601  1.00  0.00     0.067 C 
BRANCH  25  26
HETATM   26  C17 UNL     1      24.098   3.682  49.898  1.00  0.00     0.172 C 
BRANCH  26  27
HETATM   27  O3  UNL     1      25.310   3.436  49.307  1.00  0.00    -0.391 OA
BRANCH  27  28
HETATM   28  C18 UNL     1      26.381   3.532  50.164  1.00  0.00     0.163 C 
HETATM   29  C19 UNL     1      26.424   2.478  51.242  1.00  0.00     0.033 C 
ENDBRANCH  27  28
ENDBRANCH  26  27
ENDBRANCH  25  26
ENDBRANCH  18  25
ENDBRANCH   8  10
ENDBRANCH   6   8
TORSDOF 10
ENDMDL
MODEL 4
REMARK VINA RESULT:      -6.8      3.609      8.096
REMARK  10 active torsions:
REMARK  status: ('A' for Active; 'I' for Inactive)
REMARK    1  A    between atoms: C6_6  and  N1_7 
REMARK    2  A    between atoms: N1_7  and  C7_8 
REMARK    3  A    between atoms: C11_14  and  O1_15 
REMARK    4  A    between atoms: O1_15  and  C12_16 
REMARK    5  A    between atoms: C12_16  and  C13_17 
REMARK    6  A    between atoms: C13_17  and  O2_18 
REMARK    7  A    between atoms: C15_20  and  C16_21 
REMARK    8  A    between atoms: C16_21  and  C17_22 
REMARK    9  A    between atoms: C17_22  and  O3_23 
REMARK   10  A    between atoms: O3_23  and  C18_24 
ROOT
HETATM    1  C1  UNL     1      30.163  -1.038  53.723  1.00  0.00     0.017 C 
HETATM    2  C2  UNL     1      28.997  -0.786  53.510  1.00  0.00    -0.082 C 
HETATM    3  C3  UNL     1      27.635  -0.501  53.242  1.00  0.00     0.000 A 
HETATM    4  C4  UNL     1      26.701  -1.395  52.975  1.00  0.00     0.018 A 
HETATM    5  C5  UNL     1      25.410  -0.728  52.752  1.00  0.00     0.026 A 
HETATM    6  C6  UNL     1      25.574   0.574  52.888  1.00  0.00     0.015 A 
HETATM    7  C22 UNL     1      27.010   0.854  53.215  1.00  0.00     0.105 A 
ENDROOT
BRANCH   6   8
HETATM    8  N1  UNL     1      24.771   1.744  52.809  1.00  0.00    -0.343 N 
HETATM    9  H4  UNL     1      24.628   2.106  53.769  1.00  0.00     0.167 HD
BRANCH   8  10
HETATM   10  C7  UNL     1      24.328   2.204  51.563  1.00  0.00     0.141 A 
HETATM   11  N2  UNL     1      25.193   2.909  50.815  1.00  0.00    -0.224 NA
HETATM   12  C8  UNL     1      24.838   3.391  49.588  1.00  0.00     0.236 A 
HETATM   13  N3  UNL     1      23.580   3.154  49.107  1.00  0.00    -0.241 NA
HETATM   14  C9  UNL     1      22.719   2.448  49.860  1.00  0.00     0.074 A 
HETATM   15  C10 UNL     1      21.441   2.175  49.433  1.00  0.00     0.070 A 
HETATM   16  C21 UNL     1      23.055   1.951  51.101  1.00  0.00     0.039 A 
HETATM   17  C11 UNL     1      20.471   1.467  50.106  1.00  0.00     0.077 A 
HETATM   18  C15 UNL     1      20.853   0.979  51.366  1.00  0.00    -0.022 A 
HETATM   19  C20 UNL     1      22.146   1.233  51.843  1.00  0.00     0.027 A 
BRANCH  17  20
HETATM   20  O1  UNL     1      19.209   1.157  49.767  1.00  0.00    -0.348 OA
BRANCH  20  21
HETATM   21  C12 UNL     1      18.086   1.885  49.466  1.00  0.00     0.201 C 
BRANCH  21  22
HETATM   22  C13 UNL     1      16.797   1.158  49.326  1.00  0.00     0.193 C 
BRANCH  22  23
HETATM   23  O2  UNL     1      17.009  -0.136  49.860  1.00  0.00    -0.394 OA
HETATM   24  C14 UNL     1      15.989  -0.963  49.399  1.00  0.00     0.201 C 
ENDBRANCH  22  23
ENDBRANCH  21  22
ENDBRANCH  20  21
ENDBRANCH  17  20
BRANCH  18  25
HETATM   25  C16 UNL     1      19.925   0.200  52.220  1.00  0.00     0.067 C 
BRANCH  25  26
HETATM   26  C17 UNL     1      20.387   0.095  53.653  1.00  0.00     0.172 C 
BRANCH  26  27
HETATM   27  O3  UNL     1      20.441  -1.197  54.105  1.00  0.00    -0.391 OA
BRANCH  27  28
HETATM   28  C18 UNL     1      21.704  -1.742  54.093  1.00  0.00     0.163 C 
HETATM   29  C19 UNL     1      22.625  -1.228  55.171  1.00  0.00     0.033 C 
ENDBRANCH  27  28
ENDBRANCH  26  27
ENDBRANCH  25  26
ENDBRANCH  18  25
ENDBRANCH   8  10
ENDBRANCH   6   8
TORSDOF 10
ENDMDL
MODEL 5
REMARK VINA RESULT:      -6.6      3.615      6.374
REMARK  10 active torsions:
REMARK  status: ('A' for Active; 'I' for Inactive)
REMARK    1  A    between atoms: C6_6  and  N1_7 
REMARK    2  A    between atoms: N1_7  and  C7_8 
REMARK    3  A    between atoms: C11_14  and  O1_15 
REMARK    4  A    between atoms: O1_15  and  C12_16 
REMARK    5  A    between atoms: C12_16  and  C13_17 
REMARK    6  A    between atoms: C13_17  and  O2_18 
REMARK    7  A    between atoms: C15_20  and  C16_21 
REMARK    8  A    between atoms: C16_21  and  C17_22 
REMARK    9  A    between atoms: C17_22  and  O3_23 
REMARK   10  A    between atoms: O3_23  and  C18_24 
ROOT
HETATM    1  C1  UNL     1      23.354   5.627  49.011  1.00  0.00     0.017 C 
HETATM    2  C2  UNL     1      23.569   4.864  49.929  1.00  0.00    -0.082 C 
HETATM    3  C3  UNL     1      23.837   3.983  51.006  1.00  0.00     0.000 A 
HETATM    4  C4  UNL     1      23.853   4.316  52.284  1.00  0.00     0.018 A 
HETATM    5  C5  UNL     1      24.167   3.141  53.110  1.00  0.00     0.026 A 
HETATM    6  C6  UNL     1      24.340   2.099  52.319  1.00  0.00     0.015 A 
HETATM    7  C22 UNL     1      24.146   2.528  50.895  1.00  0.00     0.105 A 
ENDROOT
BRANCH   6   8
HETATM    8  N1  UNL     1      24.650   0.719  52.459  1.00  0.00    -0.343 N 
HETATM    9  H4  UNL     1      25.338   0.464  51.727  1.00  0.00     0.167 HD
BRANCH   8  10
HETATM   10  C7  UNL     1      24.041  -0.035  53.470  1.00  0.00     0.141 A 
HETATM   11  N2  UNL     1      24.829  -0.532  54.436  1.00  0.00    -0.224 NA
HETATM   12  C8  UNL     1      24.313  -1.276  55.458  1.00  0.00     0.236 A 
HETATM   13  N3  UNL     1      22.968  -1.522  55.502  1.00  0.00    -0.241 NA
HETATM   14  C9  UNL     1      22.185  -1.022  54.531  1.00  0.00     0.074 A 
HETATM   15  C10 UNL     1      20.826  -1.233  54.519  1.00  0.00     0.070 A 
HETATM   16  C21 UNL     1      22.684  -0.268  53.491  1.00  0.00     0.039 A 
HETATM   17  C11 UNL     1      19.921  -0.777  53.588  1.00  0.00     0.077 A 
HETATM   18  C15 UNL     1      20.469  -0.014  52.544  1.00  0.00    -0.022 A 
HETATM   19  C20 UNL     1      21.849   0.227  52.516  1.00  0.00     0.027 A 
BRANCH  17  20
HETATM   20  O1  UNL     1      18.590  -0.935  53.499  1.00  0.00    -0.348 OA
BRANCH  20  21
HETATM   21  C12 UNL     1      17.765  -1.969  53.137  1.00  0.00     0.201 C 
BRANCH  21  22
HETATM   22  C13 UNL     1      16.363  -1.648  52.763  1.00  0.00     0.193 C 
BRANCH  22  23
HETATM   23  O2  UNL     1      16.178  -0.273  53.049  1.00  0.00    -0.394 OA
HETATM   24  C14 UNL     1      14.868   0.062  52.721  1.00  0.00     0.201 C 
ENDBRANCH  22  23
ENDBRANCH  21  22
ENDBRANCH  20  21
ENDBRANCH  17  20
BRANCH  18  25
HETATM   25  C16 UNL     1      19.630   0.549  51.459  1.00  0.00     0.067 C 
BRANCH  25  26
HETATM   26  C17 UNL     1      20.055   1.936  51.042  1.00  0.00     0.172 C 
BRANCH  26  27
HETATM   27  O3  UNL     1      20.236   2.057  49.689  1.00  0.00    -0.391 OA
BRANCH  27  28
HETATM   28  C18 UNL     1      21.209   1.231  49.178  1.00  0.00     0.163 C 
HETATM   29  C19 UNL     1      21.988   1.810  48.024  1.00  0.00     0.033 C 
ENDBRANCH  27  28
ENDBRANCH  26  27
ENDBRANCH  25  26
ENDBRANCH  18  25
ENDBRANCH   8  10
ENDBRANCH   6   8
TORSDOF 10
ENDMDL
MODEL 6
REMARK VINA RESULT:      -6.5      1.974      2.626
REMARK  10 active torsions:
REMARK  status: ('A' for Active; 'I' for Inactive)
REMARK    1  A    between atoms: C6_6  and  N1_7 
REMARK    2  A    between atoms: N1_7  and  C7_8 
REMARK    3  A    between atoms: C11_14  and  O1_15 
REMARK    4  A    between atoms: O1_15  and  C12_16 
REMARK    5  A    between atoms: C12_16  and  C13_17 
REMARK    6  A    between atoms: C13_17  and  O2_18 
REMARK    7  A    between atoms: C15_20  and  C16_21 
REMARK    8  A    between atoms: C16_21  and  C17_22 
REMARK    9  A    between atoms: C17_22  and  O3_23 
REMARK   10  A    between atoms: O3_23  and  C18_24 
ROOT
HETATM    1  C1  UNL     1      17.984   3.239  47.654  1.00  0.00     0.017 C 
HETATM    2  C2  UNL     1      18.300   2.639  48.659  1.00  0.00    -0.082 C 
HETATM    3  C3  UNL     1      18.648   1.936  49.840  1.00  0.00     0.000 A 
HETATM    4  C4  UNL     1      18.288   0.700  50.132  1.00  0.00     0.018 A 
HETATM    5  C5  UNL     1      18.836   0.307  51.438  1.00  0.00     0.026 A 
HETATM    6  C6  UNL     1      19.530   1.316  51.929  1.00  0.00     0.015 A 
HETATM    7  C22 UNL     1      19.482   2.460  50.960  1.00  0.00     0.105 A 
ENDROOT
BRANCH   6   8
HETATM    8  N1  UNL     1      20.288   1.595  53.099  1.00  0.00    -0.343 N 
HETATM    9  H4  UNL     1      19.963   2.499  53.489  1.00  0.00     0.167 HD
BRANCH   8  10
HETATM   10  C7  UNL     1      21.274   0.697  53.522  1.00  0.00     0.141 A 
HETATM   11  N2  UNL     1      20.886  -0.344  54.277  1.00  0.00    -0.224 NA
HETATM   12  C8  UNL     1      21.786  -1.266  54.729  1.00  0.00     0.236 A 
HETATM   13  N3  UNL     1      23.109  -1.131  54.409  1.00  0.00    -0.241 NA
HETATM   14  C9  UNL     1      23.491  -0.088  53.653  1.00  0.00     0.074 A 
HETATM   15  C10 UNL     1      24.805   0.103  53.296  1.00  0.00     0.070 A 
HETATM   16  C21 UNL     1      22.600   0.854  53.186  1.00  0.00     0.039 A 
HETATM   17  C11 UNL     1      25.320   1.125  52.531  1.00  0.00     0.077 A 
HETATM   18  C15 UNL     1      24.381   2.064  52.075  1.00  0.00    -0.022 A 
HETATM   19  C20 UNL     1      23.030   1.909  52.414  1.00  0.00     0.027 A 
BRANCH  17  20
HETATM   20  O1  UNL     1      26.578   1.387  52.138  1.00  0.00    -0.348 OA
BRANCH  20  21
HETATM   21  C12 UNL     1      27.666   1.982  52.724  1.00  0.00     0.201 C 
BRANCH  21  22
HETATM   22  C13 UNL     1      28.510   1.161  53.630  1.00  0.00     0.193 C 
BRANCH  22  23
HETATM   23  O2  UNL     1      28.460  -0.164  53.130  1.00  0.00    -0.394 OA
HETATM   24  C14 UNL     1      29.512  -0.877  53.698  1.00  0.00     0.201 C 
ENDBRANCH  22  23
ENDBRANCH  21  22
ENDBRANCH  20  21
ENDBRANCH  17  20
BRANCH  18  25
HETATM   25  C16 UNL     1      24.772   3.226  51.242  1.00  0.00     0.067 C 
BRANCH  25  26
HETATM   26  C17 UNL     1      24.456   3.037  49.778  1.00  0.00     0.172 C 
BRANCH  26  27
HETATM   27  O3  UNL     1      23.616   3.999  49.283  1.00  0.00    -0.391 OA
BRANCH  27  28
HETATM   28  C18 UNL     1      22.385   3.522  48.897  1.00  0.00     0.163 C 
HETATM   29  C19 UNL     1      22.338   2.040  48.624  1.00  0.00     0.033 C 
ENDBRANCH  27  28
ENDBRANCH  26  27
ENDBRANCH  25  26
ENDBRANCH  18  25
ENDBRANCH   8  10
ENDBRANCH   6   8
TORSDOF 10
ENDMDL
MODEL 7
REMARK VINA RESULT:      -6.5      2.843      4.985
REMARK  10 active torsions:
REMARK  status: ('A' for Active; 'I' for Inactive)
REMARK    1  A    between atoms: C6_6  and  N1_7 
REMARK    2  A    between atoms: N1_7  and  C7_8 
REMARK    3  A    between atoms: C11_14  and  O1_15 
REMARK    4  A    between atoms: O1_15  and  C12_16 
REMARK    5  A    between atoms: C12_16  and  C13_17 
REMARK    6  A    between atoms: C13_17  and  O2_18 
REMARK    7  A    between atoms: C15_20  and  C16_21 
REMARK    8  A    between atoms: C16_21  and  C17_22 
REMARK    9  A    between atoms: C17_22  and  O3_23 
REMARK   10  A    between atoms: O3_23  and  C18_24 
ROOT
HETATM    1  C1  UNL     1      20.741   3.833  44.126  1.00  0.00     0.017 C 
HETATM    2  C2  UNL     1      21.317   4.416  45.020  1.00  0.00    -0.082 C 
HETATM    3  C3  UNL     1      22.007   5.099  46.052  1.00  0.00     0.000 A 
HETATM    4  C4  UNL     1      22.425   6.350  45.999  1.00  0.00     0.018 A 
HETATM    5  C5  UNL     1      23.099   6.714  47.253  1.00  0.00     0.026 A 
HETATM    6  C6  UNL     1      23.084   5.672  48.062  1.00  0.00     0.015 A 
HETATM    7  C22 UNL     1      22.386   4.533  47.380  1.00  0.00     0.105 A 
ENDROOT
BRANCH   6   8
HETATM    8  N1  UNL     1      23.540   5.355  49.370  1.00  0.00    -0.343 N 
HETATM    9  H4  UNL     1      22.829   5.679  50.051  1.00  0.00     0.167 HD
BRANCH   8  10
HETATM   10  C7  UNL     1      24.771   4.711  49.543  1.00  0.00     0.141 A 
HETATM   11  N2  UNL     1      25.834   5.215  48.896  1.00  0.00    -0.224 NA
HETATM   12  C8  UNL     1      27.070   4.646  49.013  1.00  0.00     0.236 A 
HETATM   13  N3  UNL     1      27.233   3.542  49.803  1.00  0.00    -0.241 NA
HETATM   14  C9  UNL     1      26.165   3.042  50.448  1.00  0.00     0.074 A 
HETATM   15  C10 UNL     1      26.263   1.935  51.257  1.00  0.00     0.070 A 
HETATM   16  C21 UNL     1      24.909   3.600  50.345  1.00  0.00     0.039 A 
HETATM   17  C11 UNL     1      25.250   1.330  51.968  1.00  0.00     0.077 A 
HETATM   18  C15 UNL     1      23.986   1.928  51.835  1.00  0.00    -0.022 A 
HETATM   19  C20 UNL     1      23.839   3.059  51.020  1.00  0.00     0.027 A 
BRANCH  17  20
HETATM   20  O1  UNL     1      25.256   0.256  52.774  1.00  0.00    -0.348 OA
BRANCH  20  21
HETATM   21  C12 UNL     1      26.231  -0.445  53.437  1.00  0.00     0.201 C 
BRANCH  21  22
HETATM   22  C13 UNL     1      26.714   0.086  54.738  1.00  0.00     0.193 C 
BRANCH  22  23
HETATM   23  O2  UNL     1      28.076  -0.290  54.841  1.00  0.00    -0.394 OA
HETATM   24  C14 UNL     1      28.841   0.691  54.217  1.00  0.00     0.201 C 
ENDBRANCH  22  23
ENDBRANCH  21  22
ENDBRANCH  20  21
ENDBRANCH  17  20
BRANCH  18  25
HETATM   25  C16 UNL     1      22.790   1.398  52.532  1.00  0.00     0.067 C 
BRANCH  25  26
HETATM   26  C17 UNL     1      21.513   2.093  52.127  1.00  0.00     0.172 C 
BRANCH  26  27
HETATM   27  O3  UNL     1      20.607   1.250  51.539  1.00  0.00    -0.391 OA
BRANCH  27  28
HETATM   28  C18 UNL     1      21.138   0.463  50.544  1.00  0.00     0.163 C 
HETATM   29  C19 UNL     1      21.152   1.099  49.176  1.00  0.00     0.033 C 
ENDBRANCH  27  28
ENDBRANCH  26  27
ENDBRANCH  25  26
ENDBRANCH  18  25
ENDBRANCH   8  10
ENDBRANCH   6   8
TORSDOF 10
ENDMDL
MODEL 8
REMARK VINA RESULT:      -6.3      2.357      4.478
REMARK  10 active torsions:
REMARK  status: ('A' for Active; 'I' for Inactive)
REMARK    1  A    between atoms: C6_6  and  N1_7 
REMARK    2  A    between atoms: N1_7  and  C7_8 
REMARK    3  A    between atoms: C11_14  and  O1_15 
REMARK    4  A    between atoms: O1_15  and  C12_16 
REMARK    5  A    between atoms: C12_16  and  C13_17 
REMARK    6  A    between atoms: C13_17  and  O2_18 
REMARK    7  A    between atoms: C15_20  and  C16_21 
REMARK    8  A    between atoms: C16_21  and  C17_22 
REMARK    9  A    between atoms: C17_22  and  O3_23 
REMARK   10  A    between atoms: O3_23  and  C18_24 
ROOT
HETATM    1  C1  UNL     1      16.740   4.453  49.057  1.00  0.00     0.017 C 
HETATM    2  C2  UNL     1      17.788   4.035  49.500  1.00  0.00    -0.082 C 
HETATM    3  C3  UNL     1      19.003   3.534  50.031  1.00  0.00     0.000 A 
HETATM    4  C4  UNL     1      19.439   2.293  49.911  1.00  0.00     0.018 A 
HETATM    5  C5  UNL     1      20.735   2.143  50.588  1.00  0.00     0.026 A 
HETATM    6  C6  UNL     1      21.076   3.303  51.117  1.00  0.00     0.015 A 
HETATM    7  C22 UNL     1      20.006   4.311  50.816  1.00  0.00     0.105 A 
ENDROOT
BRANCH   6   8
HETATM    8  N1  UNL     1      22.157   3.832  51.872  1.00  0.00    -0.343 N 
HETATM    9  H4  UNL     1      21.778   4.218  52.756  1.00  0.00     0.167 HD
BRANCH   8  10
HETATM   10  C7  UNL     1      23.461   3.765  51.367  1.00  0.00     0.141 A 
HETATM   11  N2  UNL     1      23.870   4.762  50.565  1.00  0.00    -0.224 NA
HETATM   12  C8  UNL     1      25.127   4.772  50.033  1.00  0.00     0.236 A 
HETATM   13  N3  UNL     1      25.989   3.749  50.318  1.00  0.00    -0.241 NA
HETATM   14  C9  UNL     1      25.574   2.754  51.120  1.00  0.00     0.074 A 
HETATM   15  C10 UNL     1      26.392   1.698  51.445  1.00  0.00     0.070 A 
HETATM   16  C21 UNL     1      24.310   2.724  51.669  1.00  0.00     0.039 A 
HETATM   17  C11 UNL     1      26.087   0.625  52.251  1.00  0.00     0.077 A 
HETATM   18  C15 UNL     1      24.790   0.631  52.790  1.00  0.00    -0.022 A 
HETATM   19  C20 UNL     1      23.920   1.687  52.486  1.00  0.00     0.027 A 
BRANCH  17  20
HETATM   20  O1  UNL     1      26.818  -0.441  52.618  1.00  0.00    -0.348 OA
BRANCH  20  21
HETATM   21  C12 UNL     1      28.089  -0.616  53.103  1.00  0.00     0.201 C 
BRANCH  21  22
HETATM   22  C13 UNL     1      28.427  -0.011  54.417  1.00  0.00     0.193 C 
BRANCH  22  23
HETATM   23  O2  UNL     1      29.529   0.849  54.188  1.00  0.00    -0.394 OA
HETATM   24  C14 UNL     1      29.034   2.126  53.944  1.00  0.00     0.201 C 
ENDBRANCH  22  23
ENDBRANCH  21  22
ENDBRANCH  20  21
ENDBRANCH  17  20
BRANCH  18  25
HETATM   25  C16 UNL     1      24.303  -0.453  53.676  1.00  0.00     0.067 C 
BRANCH  25  26
HETATM   26  C17 UNL     1      22.854  -0.290  54.068  1.00  0.00     0.172 C 
BRANCH  26  27
HETATM   27  O3  UNL     1      22.256  -1.474  54.411  1.00  0.00    -0.391 OA
BRANCH  27  28
HETATM   28  C18 UNL     1      20.881  -1.433  54.388  1.00  0.00     0.163 C 
HETATM   29  C19 UNL     1      20.296  -0.140  53.878  1.00  0.00     0.033 C 
ENDBRANCH  27  28
ENDBRANCH  26  27
ENDBRANCH  25  26
ENDBRANCH  18  25
ENDBRANCH   8  10
ENDBRANCH   6   8
TORSDOF 10
ENDMDL
MODEL 9
REMARK VINA RESULT:      -6.3      3.221      7.190
REMARK  10 active torsions:
REMARK  status: ('A' for Active; 'I' for Inactive)
REMARK    1  A    between atoms: C6_6  and  N1_7 
REMARK    2  A    between atoms: N1_7  and  C7_8 
REMARK    3  A    between atoms: C11_14  and  O1_15 
REMARK    4  A    between atoms: O1_15  and  C12_16 
REMARK    5  A    between atoms: C12_16  and  C13_17 
REMARK    6  A    between atoms: C13_17  and  O2_18 
REMARK    7  A    between atoms: C15_20  and  C16_21 
REMARK    8  A    between atoms: C16_21  and  C17_22 
REMARK    9  A    between atoms: C17_22  and  O3_23 
REMARK   10  A    between atoms: O3_23  and  C18_24 
ROOT
HETATM    1  C1  UNL     1      30.544  -1.174  53.786  1.00  0.00     0.017 C 
HETATM    2  C2  UNL     1      29.395  -0.791  53.839  1.00  0.00    -0.082 C 
HETATM    3  C3  UNL     1      28.048  -0.357  53.917  1.00  0.00     0.000 A 
HETATM    4  C4  UNL     1      27.505   0.281  54.938  1.00  0.00     0.018 A 
HETATM    5  C5  UNL     1      26.091   0.569  54.661  1.00  0.00     0.026 A 
HETATM    6  C6  UNL     1      25.787   0.101  53.466  1.00  0.00     0.015 A 
HETATM    7  C22 UNL     1      27.004  -0.539  52.867  1.00  0.00     0.105 A 
ENDROOT
BRANCH   6   8
HETATM    8  N1  UNL     1      24.644   0.046  52.622  1.00  0.00    -0.343 N 
HETATM    9  H4  UNL     1      24.964   0.083  51.637  1.00  0.00     0.167 HD
BRANCH   8  10
HETATM   10  C7  UNL     1      23.365  -0.043  53.185  1.00  0.00     0.141 A 
HETATM   11  N2  UNL     1      23.117  -1.075  54.008  1.00  0.00    -0.224 NA
HETATM   12  C8  UNL     1      21.896  -1.233  54.597  1.00  0.00     0.236 A 
HETATM   13  N3  UNL     1      20.903  -0.326  54.348  1.00  0.00    -0.241 NA
HETATM   14  C9  UNL     1      21.158   0.705  53.523  1.00  0.00     0.074 A 
HETATM   15  C10 UNL     1      20.203   1.650  53.233  1.00  0.00     0.070 A 
HETATM   16  C21 UNL     1      22.383   0.884  52.917  1.00  0.00     0.039 A 
HETATM   17  C11 UNL     1      20.338   2.746  52.409  1.00  0.00     0.077 A 
HETATM   18  C15 UNL     1      21.601   2.892  51.811  1.00  0.00    -0.022 A 
HETATM   19  C20 UNL     1      22.605   1.951  52.078  1.00  0.00     0.027 A 
BRANCH  17  20
HETATM   20  O1  UNL     1      19.467   3.710  52.072  1.00  0.00    -0.348 OA
BRANCH  20  21
HETATM   21  C12 UNL     1      18.234   3.728  51.472  1.00  0.00     0.201 C 
BRANCH  21  22
HETATM   22  C13 UNL     1      17.767   2.490  50.794  1.00  0.00     0.193 C 
BRANCH  22  23
HETATM   23  O2  UNL     1      16.801   1.907  51.650  1.00  0.00    -0.394 OA
HETATM   24  C14 UNL     1      15.573   2.505  51.383  1.00  0.00     0.201 C 
ENDBRANCH  22  23
ENDBRANCH  21  22
ENDBRANCH  20  21
ENDBRANCH  17  20
BRANCH  18  25
HETATM   25  C16 UNL     1      21.910   4.016  50.896  1.00  0.00     0.067 C 
BRANCH  25  26
HETATM   26  C17 UNL     1      22.335   5.269  51.621  1.00  0.00     0.172 C 
BRANCH  26  27
HETATM   27  O3  UNL     1      23.676   5.527  51.504  1.00  0.00    -0.391 OA
BRANCH  27  28
HETATM   28  C18 UNL     1      24.267   4.936  50.412  1.00  0.00     0.163 C 
HETATM   29  C19 UNL     1      24.294   5.790  49.169  1.00  0.00     0.033 C 
ENDBRANCH  27  28
ENDBRANCH  26  27
ENDBRANCH  25  26
ENDBRANCH  18  25
ENDBRANCH   8  10
ENDBRANCH   6   8
TORSDOF 10
ENDMDL
