MODEL 1
REMARK VINA RESULT:      -6.9      0.000      0.000
REMARK  11 active torsions:
REMARK  status: ('A' for Active; 'I' for Inactive)
REMARK    1  A    between atoms: C2_2  and  C3_3 
REMARK    2  A    between atoms: C3_3  and  C4_4 
REMARK    3  A    between atoms: C5_5  and  C6_6 
REMARK    4  A    between atoms: C6_6  and  S1_7 
REMARK    5  A    between atoms: S1_7  and  C7_8 
REMARK    6  A    between atoms: C8_9  and  C9_10 
REMARK    7  A    between atoms: C9_10  and  C10_11 
REMARK    8  A    between atoms: C11_12  and  C12_14 
REMARK    9  A    between atoms: C12_14  and  O1_15 
REMARK   10  A    between atoms: C12_14  and  C13_16 
REMARK   11  A    between atoms: C13_16  and  C14_17 
ROOT
HETATM    1  C10 UNL     1      23.153   1.856  51.977  1.00  0.00    -0.001 C 
HETATM    2  C11 UNL     1      23.760   1.144  52.909  1.00  0.00     0.037 C 
HETATM    3 CL1  UNL     1      22.873  -0.195  53.598  1.00  0.00    -0.086 Cl
ENDROOT
BRANCH   2   4
HETATM    4  C12 UNL     1      25.131   1.550  53.280  1.00  0.00     0.166 C 
BRANCH   4   5
HETATM    5  O1  UNL     1      25.255   2.927  53.451  1.00  0.00    -0.390 OA
HETATM    6  H16 UNL     1      26.167   3.078  53.845  1.00  0.00     0.210 HD
ENDBRANCH   4   5
BRANCH   4   7
HETATM    7  C13 UNL     1      26.070   1.119  52.161  1.00  0.00     0.076 C 
BRANCH   7   8
HETATM    8  C14 UNL     1      27.301   0.489  52.716  1.00  0.00    -0.052 A 
HETATM    9  C15 UNL     1      28.339   1.199  53.273  1.00  0.00     0.007 A 
HETATM   10  C16 UNL     1      29.476   0.571  53.783  1.00  0.00     0.003 A 
HETATM   11  C17 UNL     1      29.538  -0.800  53.713  1.00  0.00     0.042 A 
HETATM   12  C18 UNL     1      28.502  -1.520  53.156  1.00  0.00     0.116 A 
HETATM   13  F1  UNL     1      28.675  -2.874  53.143  1.00  0.00    -0.206 F 
HETATM   14  C19 UNL     1      27.395  -0.892  52.661  1.00  0.00     0.049 A 
ENDBRANCH   7   8
ENDBRANCH   4   7
ENDBRANCH   2   4
BRANCH   1  15
HETATM   15  C9  UNL     1      21.817   1.747  51.369  1.00  0.00     0.056 C 
BRANCH  15  16
HETATM   16  C8  UNL     1      21.843   0.878  50.135  1.00  0.00    -0.016 C 
HETATM   17  C7  UNL     1      21.416   1.259  48.928  1.00  0.00     0.042 C 
BRANCH  17  18
HETATM   18  S1  UNL     1      20.810   2.944  48.989  1.00  0.00    -0.130 SA
BRANCH  18  19
HETATM   19  C6  UNL     1      22.011   3.978  48.104  1.00  0.00     0.172 C 
BRANCH  19  20
HETATM   20  C5  UNL     1      23.264   4.075  48.855  1.00  0.00    -0.096 C 
HETATM   21  C4  UNL     1      24.304   4.160  49.465  1.00  0.00    -0.106 C 
BRANCH  21  22
HETATM   22  C3  UNL     1      25.572   4.275  50.194  1.00  0.00     0.093 C 
BRANCH  22  23
HETATM   23  C2  UNL     1      26.729   3.697  49.410  1.00  0.00     0.007 C 
HETATM   24  C1  UNL     1      27.476   4.803  48.704  1.00  0.00     0.006 C 
ENDBRANCH  22  23
ENDBRANCH  21  22
ENDBRANCH  19  20
ENDBRANCH  18  19
ENDBRANCH  17  18
ENDBRANCH  15  16
ENDBRANCH   1  15
TORSDOF 11
ENDMDL
MODEL 2
REMARK VINA RESULT:      -6.8      1.883      2.135
REMARK  11 active torsions:
REMARK  status: ('A' for Active; 'I' for Inactive)
REMARK    1  A    between atoms: C2_2  and  C3_3 
REMARK    2  A    between atoms: C3_3  and  C4_4 
REMARK    3  A    between atoms: C5_5  and  C6_6 
REMARK    4  A    between atoms: C6_6  and  S1_7 
REMARK    5  A    between atoms: S1_7  and  C7_8 
REMARK    6  A    between atoms: C8_9  and  C9_10 
REMARK    7  A    between atoms: C9_10  and  C10_11 
REMARK    8  A    between atoms: C11_12  and  C12_14 
REMARK    9  A    between atoms: C12_14  and  O1_15 
REMARK   10  A    between atoms: C12_14  and  C13_16 
REMARK   11  A    between atoms: C13_16  and  C14_17 
ROOT
HETATM    1  C10 UNL     1      23.042   0.244  52.754  1.00  0.00    -0.001 C 
HETATM    2  C11 UNL     1      23.412  -0.520  53.767  1.00  0.00     0.037 C 
HETATM    3 CL1  UNL     1      22.157  -1.090  54.840  1.00  0.00    -0.086 Cl
ENDROOT
BRANCH   2   4
HETATM    4  C12 UNL     1      24.854  -0.817  53.894  1.00  0.00     0.166 C 
BRANCH   4   5
HETATM    5  O1  UNL     1      25.290  -0.797  55.217  1.00  0.00    -0.390 OA
HETATM    6  H16 UNL     1      24.642  -0.212  55.715  1.00  0.00     0.210 HD
ENDBRANCH   4   5
BRANCH   4   7
HETATM    7  C13 UNL     1      25.624   0.244  53.119  1.00  0.00     0.076 C 
BRANCH   7   8
HETATM    8  C14 UNL     1      27.090   0.107  53.349  1.00  0.00    -0.052 A 
HETATM    9  C15 UNL     1      27.811  -1.023  53.040  1.00  0.00     0.007 A 
HETATM   10  C16 UNL     1      29.184  -1.111  53.271  1.00  0.00     0.003 A 
HETATM   11  C17 UNL     1      29.813  -0.022  53.826  1.00  0.00     0.042 A 
HETATM   12  C18 UNL     1      29.099   1.115  54.139  1.00  0.00     0.116 A 
HETATM   13  F1  UNL     1      29.830   2.131  54.683  1.00  0.00    -0.206 F 
HETATM   14  C19 UNL     1      27.754   1.188  53.907  1.00  0.00     0.049 A 
ENDBRANCH   7   8
ENDBRANCH   4   7
ENDBRANCH   2   4
BRANCH   1  15
HETATM   15  C9  UNL     1      21.723   0.736  52.322  1.00  0.00     0.056 C 
BRANCH  15  16
HETATM   16  C8  UNL     1      21.429   0.343  50.895  1.00  0.00    -0.016 C 
HETATM   17  C7  UNL     1      20.901   1.155  49.977  1.00  0.00     0.042 C 
BRANCH  17  18
HETATM   18  S1  UNL     1      20.594   2.773  50.684  1.00  0.00    -0.130 SA
BRANCH  18  19
HETATM   19  C6  UNL     1      21.723   3.937  49.870  1.00  0.00     0.172 C 
BRANCH  19  20
HETATM   20  C5  UNL     1      23.117   3.608  50.177  1.00  0.00    -0.096 C 
HETATM   21  C4  UNL     1      24.263   3.325  50.434  1.00  0.00    -0.106 C 
BRANCH  21  22
HETATM   22  C3  UNL     1      25.652   2.965  50.744  1.00  0.00     0.093 C 
BRANCH  22  23
HETATM   23  C2  UNL     1      26.557   3.122  49.543  1.00  0.00     0.007 C 
HETATM   24  C1  UNL     1      26.673   4.581  49.172  1.00  0.00     0.006 C 
ENDBRANCH  22  23
ENDBRANCH  21  22
ENDBRANCH  19  20
ENDBRANCH  18  19
ENDBRANCH  17  18
ENDBRANCH  15  16
ENDBRANCH   1  15
TORSDOF 11
ENDMDL
MODEL 3
REMARK VINA RESULT:      -6.8      2.413      4.142
REMARK  11 active torsions:
REMARK  status: ('A' for Active; 'I' for Inactive)
REMARK    1  A    between atoms: C2_2  and  C3_3 
REMARK    2  A    between atoms: C3_3  and  C4_4 
REMARK    3  A    between atoms: C5_5  and  C6_6 
REMARK    4  A    between atoms: C6_6  and  S1_7 
REMARK    5  A    between atoms: S1_7  and  C7_8 
REMARK    6  A    between atoms: C8_9  and  C9_10 
REMARK    7  A    between atoms: C9_10  and  C10_11 
REMARK    8  A    between atoms: C11_12  and  C12_14 
REMARK    9  A    between atoms: C12_14  and  O1_15 
REMARK   10  A    between atoms: C12_14  and  C13_16 
REMARK   11  A    between atoms: C13_16  and  C14_17 
ROOT
HETATM    1  C10 UNL     1      23.392   3.494  50.458  1.00  0.00    -0.001 C 
HETATM    2  C11 UNL     1      22.981   3.597  51.709  1.00  0.00     0.037 C 
HETATM    3 CL1  UNL     1      21.299   3.989  51.971  1.00  0.00    -0.086 Cl
ENDROOT
BRANCH   2   4
HETATM    4  C12 UNL     1      23.987   3.372  52.768  1.00  0.00     0.166 C 
BRANCH   4   5
HETATM    5  O1  UNL     1      24.205   4.505  53.549  1.00  0.00    -0.390 OA
HETATM    6  H16 UNL     1      23.778   5.269  53.056  1.00  0.00     0.210 HD
ENDBRANCH   4   5
BRANCH   4   7
HETATM    7  C13 UNL     1      25.300   2.991  52.097  1.00  0.00     0.076 C 
BRANCH   7   8
HETATM    8  C14 UNL     1      25.747   1.640  52.540  1.00  0.00    -0.052 A 
HETATM    9  C15 UNL     1      26.250   0.684  51.689  1.00  0.00     0.007 A 
HETATM   10  C16 UNL     1      26.658  -0.571  52.143  1.00  0.00     0.003 A 
HETATM   11  C17 UNL     1      26.544  -0.835  53.487  1.00  0.00     0.042 A 
HETATM   12  C18 UNL     1      26.041   0.117  54.348  1.00  0.00     0.116 A 
HETATM   13  F1  UNL     1      25.976  -0.258  55.659  1.00  0.00    -0.206 F 
HETATM   14  C19 UNL     1      25.645   1.342  53.889  1.00  0.00     0.049 A 
ENDBRANCH   7   8
ENDBRANCH   4   7
ENDBRANCH   2   4
BRANCH   1  15
HETATM   15  C9  UNL     1      22.686   3.649  49.174  1.00  0.00     0.056 C 
BRANCH  15  16
HETATM   16  C8  UNL     1      22.757   2.385  48.352  1.00  0.00    -0.016 C 
HETATM   17  C7  UNL     1      21.710   1.611  48.057  1.00  0.00     0.042 C 
BRANCH  17  18
HETATM   18  S1  UNL     1      20.216   2.291  48.775  1.00  0.00    -0.130 SA
BRANCH  18  19
HETATM   19  C6  UNL     1      19.574   1.059  49.944  1.00  0.00     0.172 C 
BRANCH  19  20
HETATM   20  C5  UNL     1      20.624   0.628  50.869  1.00  0.00    -0.096 C 
HETATM   21  C4  UNL     1      21.482   0.262  51.637  1.00  0.00    -0.106 C 
BRANCH  21  22
HETATM   22  C3  UNL     1      22.518  -0.197  52.570  1.00  0.00     0.093 C 
BRANCH  22  23
HETATM   23  C2  UNL     1      22.102  -0.012  54.012  1.00  0.00     0.007 C 
HETATM   24  C1  UNL     1      22.610  -1.164  54.846  1.00  0.00     0.006 C 
ENDBRANCH  22  23
ENDBRANCH  21  22
ENDBRANCH  19  20
ENDBRANCH  18  19
ENDBRANCH  17  18
ENDBRANCH  15  16
ENDBRANCH   1  15
TORSDOF 11
ENDMDL
MODEL 4
REMARK VINA RESULT:      -6.7      3.592      7.180
REMARK  11 active torsions:
REMARK  status: ('A' for Active; 'I' for Inactive)
REMARK    1  A    between atoms: C2_2  and  C3_3 
REMARK    2  A    between atoms: C3_3  and  C4_4 
REMARK    3  A    between atoms: C5_5  and  C6_6 
REMARK    4  A    between atoms: C6_6  and  S1_7 
REMARK    5  A    between atoms: S1_7  and  C7_8 
REMARK    6  A    between atoms: C8_9  and  C9_10 
REMARK    7  A    between atoms: C9_10  and  C10_11 
REMARK    8  A    between atoms: C11_12  and  C12_14 
REMARK    9  A    between atoms: C12_14  and  O1_15 
REMARK   10  A    between atoms: C12_14  and  C13_16 
REMARK   11  A    between atoms: C13_16  and  C14_17 
ROOT
HETATM    1  C10 UNL     1      25.918   2.461  51.864  1.00  0.00    -0.001 C 
HETATM    2  C11 UNL     1      25.463   3.249  50.906  1.00  0.00     0.037 C 
HETATM    3 CL1  UNL     1      26.429   3.390  49.458  1.00  0.00    -0.086 Cl
ENDROOT
BRANCH   2   4
HETATM    4  C12 UNL     1      24.178   3.937  51.155  1.00  0.00     0.166 C 
BRANCH   4   5
HETATM    5  O1  UNL     1      24.348   5.266  51.536  1.00  0.00    -0.390 OA
HETATM    6  H16 UNL     1      25.281   5.518  51.261  1.00  0.00     0.210 HD
ENDBRANCH   4   5
BRANCH   4   7
HETATM    7  C13 UNL     1      23.461   3.203  52.280  1.00  0.00     0.076 C 
BRANCH   7   8
HETATM    8  C14 UNL     1      22.309   2.420  51.750  1.00  0.00    -0.052 A 
HETATM    9  C15 UNL     1      21.113   2.274  52.413  1.00  0.00     0.007 A 
HETATM   10  C16 UNL     1      20.057   1.532  51.882  1.00  0.00     0.003 A 
HETATM   11  C17 UNL     1      20.243   0.938  50.657  1.00  0.00     0.042 A 
HETATM   12  C18 UNL     1      21.438   1.079  49.984  1.00  0.00     0.116 A 
HETATM   13  F1  UNL     1      21.505   0.446  48.777  1.00  0.00    -0.206 F 
HETATM   14  C19 UNL     1      22.463   1.809  50.516  1.00  0.00     0.049 A 
ENDBRANCH   7   8
ENDBRANCH   4   7
ENDBRANCH   2   4
BRANCH   1  15
HETATM   15  C9  UNL     1      27.133   1.636  51.964  1.00  0.00     0.056 C 
BRANCH  15  16
HETATM   16  C8  UNL     1      28.115   2.221  52.950  1.00  0.00    -0.016 C 
HETATM   17  C7  UNL     1      28.592   1.580  54.019  1.00  0.00     0.042 C 
BRANCH  17  18
HETATM   18  S1  UNL     1      27.898  -0.069  54.113  1.00  0.00    -0.130 SA
BRANCH  18  19
HETATM   19  C6  UNL     1      26.435   0.024  55.182  1.00  0.00     0.172 C 
BRANCH  19  20
HETATM   20  C5  UNL     1      25.219  -0.272  54.423  1.00  0.00    -0.096 C 
HETATM   21  C4  UNL     1      24.222  -0.516  53.785  1.00  0.00    -0.106 C 
BRANCH  21  22
HETATM   22  C3  UNL     1      23.020  -0.819  52.998  1.00  0.00     0.093 C 
BRANCH  22  23
HETATM   23  C2  UNL     1      21.928  -1.429  53.847  1.00  0.00     0.007 C 
HETATM   24  C1  UNL     1      21.431  -0.417  54.853  1.00  0.00     0.006 C 
ENDBRANCH  22  23
ENDBRANCH  21  22
ENDBRANCH  19  20
ENDBRANCH  18  19
ENDBRANCH  17  18
ENDBRANCH  15  16
ENDBRANCH   1  15
TORSDOF 11
ENDMDL
MODEL 5
REMARK VINA RESULT:      -6.6      2.042      4.021
REMARK  11 active torsions:
REMARK  status: ('A' for Active; 'I' for Inactive)
REMARK    1  A    between atoms: C2_2  and  C3_3 
REMARK    2  A    between atoms: C3_3  and  C4_4 
REMARK    3  A    between atoms: C5_5  and  C6_6 
REMARK    4  A    between atoms: C6_6  and  S1_7 
REMARK    5  A    between atoms: S1_7  and  C7_8 
REMARK    6  A    between atoms: C8_9  and  C9_10 
REMARK    7  A    between atoms: C9_10  and  C10_11 
REMARK    8  A    between atoms: C11_12  and  C12_14 
REMARK    9  A    between atoms: C12_14  and  O1_15 
REMARK   10  A    between atoms: C12_14  and  C13_16 
REMARK   11  A    between atoms: C13_16  and  C14_17 
ROOT
HETATM    1  C10 UNL     1      23.805   2.901  50.681  1.00  0.00    -0.001 C 
HETATM    2  C11 UNL     1      25.086   2.884  51.001  1.00  0.00     0.037 C 
HETATM    3 CL1  UNL     1      26.217   3.493  49.817  1.00  0.00    -0.086 Cl
ENDROOT
BRANCH   2   4
HETATM    4  C12 UNL     1      25.440   2.350  52.333  1.00  0.00     0.166 C 
BRANCH   4   5
HETATM    5  O1  UNL     1      25.080   3.211  53.368  1.00  0.00    -0.390 OA
HETATM    6  H16 UNL     1      25.938   3.485  53.813  1.00  0.00     0.210 HD
ENDBRANCH   4   5
BRANCH   4   7
HETATM    7  C13 UNL     1      26.950   2.153  52.376  1.00  0.00     0.076 C 
BRANCH   7   8
HETATM    8  C14 UNL     1      27.289   0.722  52.617  1.00  0.00    -0.052 A 
HETATM    9  C15 UNL     1      26.462  -0.326  52.288  1.00  0.00     0.007 A 
HETATM   10  C16 UNL     1      26.818  -1.654  52.530  1.00  0.00     0.003 A 
HETATM   11  C17 UNL     1      28.036  -1.895  53.118  1.00  0.00     0.042 A 
HETATM   12  C18 UNL     1      28.872  -0.851  53.452  1.00  0.00     0.116 A 
HETATM   13  F1  UNL     1      30.055  -1.212  54.029  1.00  0.00    -0.206 F 
HETATM   14  C19 UNL     1      28.511   0.445  53.208  1.00  0.00     0.049 A 
ENDBRANCH   7   8
ENDBRANCH   4   7
ENDBRANCH   2   4
BRANCH   1  15
HETATM   15  C9  UNL     1      23.099   3.350  49.469  1.00  0.00     0.056 C 
BRANCH  15  16
HETATM   16  C8  UNL     1      22.979   2.237  48.458  1.00  0.00    -0.016 C 
HETATM   17  C7  UNL     1      21.835   1.635  48.122  1.00  0.00     0.042 C 
BRANCH  17  18
HETATM   18  S1  UNL     1      20.471   2.342  49.044  1.00  0.00    -0.130 SA
BRANCH  18  19
HETATM   19  C6  UNL     1      19.839   1.045  50.146  1.00  0.00     0.172 C 
BRANCH  19  20
HETATM   20  C5  UNL     1      20.883   0.596  51.069  1.00  0.00    -0.096 C 
HETATM   21  C4  UNL     1      21.737   0.218  51.837  1.00  0.00    -0.106 C 
BRANCH  21  22
HETATM   22  C3  UNL     1      22.763  -0.253  52.774  1.00  0.00     0.093 C 
BRANCH  22  23
HETATM   23  C2  UNL     1      22.187  -1.174  53.826  1.00  0.00     0.007 C 
HETATM   24  C1  UNL     1      21.324  -0.387  54.783  1.00  0.00     0.006 C 
ENDBRANCH  22  23
ENDBRANCH  21  22
ENDBRANCH  19  20
ENDBRANCH  18  19
ENDBRANCH  17  18
ENDBRANCH  15  16
ENDBRANCH   1  15
TORSDOF 11
ENDMDL
MODEL 6
REMARK VINA RESULT:      -6.6      2.238      2.655
REMARK  11 active torsions:
REMARK  status: ('A' for Active; 'I' for Inactive)
REMARK    1  A    between atoms: C2_2  and  C3_3 
REMARK    2  A    between atoms: C3_3  and  C4_4 
REMARK    3  A    between atoms: C5_5  and  C6_6 
REMARK    4  A    between atoms: C6_6  and  S1_7 
REMARK    5  A    between atoms: S1_7  and  C7_8 
REMARK    6  A    between atoms: C8_9  and  C9_10 
REMARK    7  A    between atoms: C9_10  and  C10_11 
REMARK    8  A    between atoms: C11_12  and  C12_14 
REMARK    9  A    between atoms: C12_14  and  O1_15 
REMARK   10  A    between atoms: C12_14  and  C13_16 
REMARK   11  A    between atoms: C13_16  and  C14_17 
ROOT
HETATM    1  C10 UNL     1      22.972   0.039  52.976  1.00  0.00    -0.001 C 
HETATM    2  C11 UNL     1      23.392  -0.742  53.955  1.00  0.00     0.037 C 
HETATM    3 CL1  UNL     1      22.179  -1.442  54.999  1.00  0.00    -0.086 Cl
ENDROOT
BRANCH   2   4
HETATM    4  C12 UNL     1      24.851  -0.948  54.072  1.00  0.00     0.166 C 
BRANCH   4   5
HETATM    5  O1  UNL     1      25.292  -0.917  55.393  1.00  0.00    -0.390 OA
HETATM    6  H16 UNL     1      25.412   0.053  55.624  1.00  0.00     0.210 HD
ENDBRANCH   4   5
BRANCH   4   7
HETATM    7  C13 UNL     1      25.548   0.169  53.307  1.00  0.00     0.076 C 
BRANCH   7   8
HETATM    8  C14 UNL     1      27.028   0.053  53.433  1.00  0.00    -0.052 A 
HETATM    9  C15 UNL     1      27.846   1.088  53.823  1.00  0.00     0.007 A 
HETATM   10  C16 UNL     1      29.229   0.939  53.929  1.00  0.00     0.003 A 
HETATM   11  C17 UNL     1      29.767  -0.290  53.629  1.00  0.00     0.042 A 
HETATM   12  C18 UNL     1      28.955  -1.333  53.238  1.00  0.00     0.116 A 
HETATM   13  F1  UNL     1      29.601  -2.504  52.967  1.00  0.00    -0.206 F 
HETATM   14  C19 UNL     1      27.602  -1.172  53.138  1.00  0.00     0.049 A 
ENDBRANCH   7   8
ENDBRANCH   4   7
ENDBRANCH   2   4
BRANCH   1  15
HETATM   15  C9  UNL     1      21.623   0.462  52.565  1.00  0.00     0.056 C 
BRANCH  15  16
HETATM   16  C8  UNL     1      21.495   0.505  51.062  1.00  0.00    -0.016 C 
HETATM   17  C7  UNL     1      20.430   0.969  50.402  1.00  0.00     0.042 C 
BRANCH  17  18
HETATM   18  S1  UNL     1      19.183   1.531  51.559  1.00  0.00    -0.130 SA
BRANCH  18  19
HETATM   19  C6  UNL     1      19.240   3.345  51.570  1.00  0.00     0.172 C 
BRANCH  19  20
HETATM   20  C5  UNL     1      20.585   3.819  51.900  1.00  0.00    -0.096 C 
HETATM   21  C4  UNL     1      21.696   4.216  52.162  1.00  0.00    -0.106 C 
BRANCH  21  22
HETATM   22  C3  UNL     1      23.043   4.712  52.469  1.00  0.00     0.093 C 
BRANCH  22  23
HETATM   23  C2  UNL     1      24.016   3.583  52.724  1.00  0.00     0.007 C 
HETATM   24  C1  UNL     1      24.666   3.161  51.428  1.00  0.00     0.006 C 
ENDBRANCH  22  23
ENDBRANCH  21  22
ENDBRANCH  19  20
ENDBRANCH  18  19
ENDBRANCH  17  18
ENDBRANCH  15  16
ENDBRANCH   1  15
TORSDOF 11
ENDMDL
MODEL 7
REMARK VINA RESULT:      -6.6      2.251      4.191
REMARK  11 active torsions:
REMARK  status: ('A' for Active; 'I' for Inactive)
REMARK    1  A    between atoms: C2_2  and  C3_3 
REMARK    2  A    between atoms: C3_3  and  C4_4 
REMARK    3  A    between atoms: C5_5  and  C6_6 
REMARK    4  A    between atoms: C6_6  and  S1_7 
REMARK    5  A    between atoms: S1_7  and  C7_8 
REMARK    6  A    between atoms: C8_9  and  C9_10 
REMARK    7  A    between atoms: C9_10  and  C10_11 
REMARK    8  A    between atoms: C11_12  and  C12_14 
REMARK    9  A    between atoms: C12_14  and  O1_15 
REMARK   10  A    between atoms: C12_14  and  C13_16 
REMARK   11  A    between atoms: C13_16  and  C14_17 
ROOT
HETATM    1  C10 UNL     1      24.353   3.282  51.538  1.00  0.00    -0.001 C 
HETATM    2  C11 UNL     1      25.569   2.767  51.532  1.00  0.00     0.037 C 
HETATM    3 CL1  UNL     1      26.492   2.907  50.056  1.00  0.00    -0.086 Cl
ENDROOT
BRANCH   2   4
HETATM    4  C12 UNL     1      26.031   2.119  52.778  1.00  0.00     0.166 C 
BRANCH   4   5
HETATM    5  O1  UNL     1      25.571   2.768  53.922  1.00  0.00    -0.390 OA
HETATM    6  H16 UNL     1      25.294   3.688  53.627  1.00  0.00     0.210 HD
ENDBRANCH   4   5
BRANCH   4   7
HETATM    7  C13 UNL     1      27.554   2.149  52.788  1.00  0.00     0.076 C 
BRANCH   7   8
HETATM    8  C14 UNL     1      28.108   0.782  52.995  1.00  0.00    -0.052 A 
HETATM    9  C15 UNL     1      29.355   0.533  53.519  1.00  0.00     0.007 A 
HETATM   10  C16 UNL     1      29.838  -0.764  53.697  1.00  0.00     0.003 A 
HETATM   11  C17 UNL     1      29.024  -1.808  53.329  1.00  0.00     0.042 A 
HETATM   12  C18 UNL     1      27.772  -1.569  52.803  1.00  0.00     0.116 A 
HETATM   13  F1  UNL     1      27.054  -2.683  52.476  1.00  0.00    -0.206 F 
HETATM   14  C19 UNL     1      27.312  -0.293  52.634  1.00  0.00     0.049 A 
ENDBRANCH   7   8
ENDBRANCH   4   7
ENDBRANCH   2   4
BRANCH   1  15
HETATM   15  C9  UNL     1      23.578   3.986  50.503  1.00  0.00     0.056 C 
BRANCH  15  16
HETATM   16  C8  UNL     1      22.778   5.122  51.092  1.00  0.00    -0.016 C 
HETATM   17  C7  UNL     1      21.464   5.086  51.325  1.00  0.00     0.042 C 
BRANCH  17  18
HETATM   18  S1  UNL     1      20.792   3.498  50.837  1.00  0.00    -0.130 SA
BRANCH  18  19
HETATM   19  C6  UNL     1      20.289   2.639  52.355  1.00  0.00     0.172 C 
BRANCH  19  20
HETATM   20  C5  UNL     1      21.299   1.656  52.753  1.00  0.00    -0.096 C 
HETATM   21  C4  UNL     1      22.127   0.836  53.073  1.00  0.00    -0.106 C 
BRANCH  21  22
HETATM   22  C3  UNL     1      23.130  -0.168  53.448  1.00  0.00     0.093 C 
BRANCH  22  23
HETATM   23  C2  UNL     1      22.688  -0.991  54.637  1.00  0.00     0.007 C 
HETATM   24  C1  UNL     1      21.302  -1.542  54.396  1.00  0.00     0.006 C 
ENDBRANCH  22  23
ENDBRANCH  21  22
ENDBRANCH  19  20
ENDBRANCH  18  19
ENDBRANCH  17  18
ENDBRANCH  15  16
ENDBRANCH   1  15
TORSDOF 11
ENDMDL
MODEL 8
REMARK VINA RESULT:      -6.4      2.481      4.341
REMARK  11 active torsions:
REMARK  status: ('A' for Active; 'I' for Inactive)
REMARK    1  A    between atoms: C2_2  and  C3_3 
REMARK    2  A    between atoms: C3_3  and  C4_4 
REMARK    3  A    between atoms: C5_5  and  C6_6 
REMARK    4  A    between atoms: C6_6  and  S1_7 
REMARK    5  A    between atoms: S1_7  and  C7_8 
REMARK    6  A    between atoms: C8_9  and  C9_10 
REMARK    7  A    between atoms: C9_10  and  C10_11 
REMARK    8  A    between atoms: C11_12  and  C12_14 
REMARK    9  A    between atoms: C12_14  and  O1_15 
REMARK   10  A    between atoms: C12_14  and  C13_16 
REMARK   11  A    between atoms: C13_16  and  C14_17 
ROOT
HETATM    1  C10 UNL     1      23.790   3.836  51.659  1.00  0.00    -0.001 C 
HETATM    2  C11 UNL     1      24.598   3.275  50.778  1.00  0.00     0.037 C 
HETATM    3 CL1  UNL     1      24.041   3.182  49.125  1.00  0.00    -0.086 Cl
ENDROOT
BRANCH   2   4
HETATM    4  C12 UNL     1      25.898   2.778  51.277  1.00  0.00     0.166 C 
BRANCH   4   5
HETATM    5  O1  UNL     1      26.783   2.465  50.247  1.00  0.00    -0.390 OA
HETATM    6  H16 UNL     1      26.542   3.068  49.481  1.00  0.00     0.210 HD
ENDBRANCH   4   5
BRANCH   4   7
HETATM    7  C13 UNL     1      25.639   1.516  52.089  1.00  0.00     0.076 C 
BRANCH   7   8
HETATM    8  C14 UNL     1      26.897   1.030  52.724  1.00  0.00    -0.052 A 
HETATM    9  C15 UNL     1      27.320  -0.278  52.680  1.00  0.00     0.007 A 
HETATM   10  C16 UNL     1      28.505  -0.694  53.289  1.00  0.00     0.003 A 
HETATM   11  C17 UNL     1      29.254   0.252  53.947  1.00  0.00     0.042 A 
HETATM   12  C18 UNL     1      28.838   1.565  53.996  1.00  0.00     0.116 A 
HETATM   13  F1  UNL     1      29.664   2.413  54.676  1.00  0.00    -0.206 F 
HETATM   14  C19 UNL     1      27.675   1.958  53.396  1.00  0.00     0.049 A 
ENDBRANCH   7   8
ENDBRANCH   4   7
ENDBRANCH   2   4
BRANCH   1  15
HETATM   15  C9  UNL     1      22.449   4.429  51.527  1.00  0.00     0.056 C 
BRANCH  15  16
HETATM   16  C8  UNL     1      21.468   3.788  52.478  1.00  0.00    -0.016 C 
HETATM   17  C7  UNL     1      20.454   3.002  52.109  1.00  0.00     0.042 C 
BRANCH  17  18
HETATM   18  S1  UNL     1      20.430   2.820  50.327  1.00  0.00    -0.130 SA
BRANCH  18  19
HETATM   19  C6  UNL     1      21.069   1.164  49.948  1.00  0.00     0.172 C 
BRANCH  19  20
HETATM   20  C5  UNL     1      21.685   0.563  51.133  1.00  0.00    -0.096 C 
HETATM   21  C4  UNL     1      22.194   0.056  52.104  1.00  0.00    -0.106 C 
BRANCH  21  22
HETATM   22  C3  UNL     1      22.822  -0.570  53.274  1.00  0.00     0.093 C 
BRANCH  22  23
HETATM   23  C2  UNL     1      21.800  -0.983  54.310  1.00  0.00     0.007 C 
HETATM   24  C1  UNL     1      20.923   0.194  54.666  1.00  0.00     0.006 C 
ENDBRANCH  22  23
ENDBRANCH  21  22
ENDBRANCH  19  20
ENDBRANCH  18  19
ENDBRANCH  17  18
ENDBRANCH  15  16
ENDBRANCH   1  15
TORSDOF 11
ENDMDL
MODEL 9
REMARK VINA RESULT:      -6.4      2.295      3.141
REMARK  11 active torsions:
REMARK  status: ('A' for Active; 'I' for Inactive)
REMARK    1  A    between atoms: C2_2  and  C3_3 
REMARK    2  A    between atoms: C3_3  and  C4_4 
REMARK    3  A    between atoms: C5_5  and  C6_6 
REMARK    4  A    between atoms: C6_6  and  S1_7 
REMARK    5  A    between atoms: S1_7  and  C7_8 
REMARK    6  A    between atoms: C8_9  and  C9_10 
REMARK    7  A    between atoms: C9_10  and  C10_11 
REMARK    8  A    between atoms: C11_12  and  C12_14 
REMARK    9  A    between atoms: C12_14  and  O1_15 
REMARK   10  A    between atoms: C12_14  and  C13_16 
REMARK   11  A    between atoms: C13_16  and  C14_17 
ROOT
HETATM    1  C10 UNL     1      21.405   0.738  50.236  1.00  0.00    -0.001 C 
HETATM    2  C11 UNL     1      21.281   0.976  51.529  1.00  0.00     0.037 C 
HETATM    3 CL1  UNL     1      20.381   2.397  52.001  1.00  0.00    -0.086 Cl
ENDROOT
BRANCH   2   4
HETATM    4  C12 UNL     1      21.917   0.014  52.454  1.00  0.00     0.166 C 
BRANCH   4   5
HETATM    5  O1  UNL     1      20.998  -0.610  53.294  1.00  0.00    -0.390 OA
HETATM    6  H16 UNL     1      20.607  -1.368  52.764  1.00  0.00     0.210 HD
ENDBRANCH   4   5
BRANCH   4   7
HETATM    7  C13 UNL     1      22.914   0.778  53.315  1.00  0.00     0.076 C 
BRANCH   7   8
HETATM    8  C14 UNL     1      24.313   0.404  52.962  1.00  0.00    -0.052 A 
HETATM    9  C15 UNL     1      24.935  -0.739  53.407  1.00  0.00     0.007 A 
HETATM   10  C16 UNL     1      26.248  -1.054  53.054  1.00  0.00     0.003 A 
HETATM   11  C17 UNL     1      26.919  -0.178  52.234  1.00  0.00     0.042 A 
HETATM   12  C18 UNL     1      26.304   0.970  51.783  1.00  0.00     0.116 A 
HETATM   13  F1  UNL     1      27.068   1.762  50.976  1.00  0.00    -0.206 F 
HETATM   14  C19 UNL     1      25.018   1.266  52.138  1.00  0.00     0.049 A 
ENDBRANCH   7   8
ENDBRANCH   4   7
ENDBRANCH   2   4
BRANCH   1  15
HETATM   15  C9  UNL     1      20.915   1.463  49.051  1.00  0.00     0.056 C 
BRANCH  15  16
HETATM   16  C8  UNL     1      22.026   1.710  48.059  1.00  0.00    -0.016 C 
HETATM   17  C7  UNL     1      22.632   2.885  47.874  1.00  0.00     0.042 C 
BRANCH  17  18
HETATM   18  S1  UNL     1      21.936   4.120  48.970  1.00  0.00    -0.130 SA
BRANCH  18  19
HETATM   19  C6  UNL     1      23.063   4.279  50.383  1.00  0.00     0.172 C 
BRANCH  19  20
HETATM   20  C5  UNL     1      24.458   4.273  49.937  1.00  0.00    -0.096 C 
HETATM   21  C4  UNL     1      25.605   4.271  49.557  1.00  0.00    -0.106 C 
BRANCH  21  22
HETATM   22  C3  UNL     1      26.993   4.278  49.082  1.00  0.00     0.093 C 
BRANCH  22  23
HETATM   23  C2  UNL     1      27.396   5.629  48.533  1.00  0.00     0.007 C 
HETATM   24  C1  UNL     1      28.864   5.624  48.179  1.00  0.00     0.006 C 
ENDBRANCH  22  23
ENDBRANCH  21  22
ENDBRANCH  19  20
ENDBRANCH  18  19
ENDBRANCH  17  18
ENDBRANCH  15  16
ENDBRANCH   1  15
TORSDOF 11
ENDMDL
