MODEL 1
REMARK VINA RESULT:      -6.9      0.000      0.000
REMARK  5 active torsions:
REMARK  status: ('A' for Active; 'I' for Inactive)
REMARK    1  A    between atoms: C2_2  and  C3_3 
REMARK    2  A    between atoms: C3_3  and  C5_5 
REMARK    3  A    between atoms: C9_12  and  C10_13 
REMARK    4  A    between atoms: C10_13  and  N4_14 
REMARK    5  A    between atoms: C13_17  and  N5_18 
ROOT
HETATM    1  C5  UNL     1      24.542  -0.106  53.831  1.00  0.00     0.069 A 
HETATM    2  N1  UNL     1      25.118  -0.883  54.768  1.00  0.00    -0.242 NA
HETATM    3  C6  UNL     1      24.379  -1.586  55.673  1.00  0.00     0.255 A 
HETATM    4  N2  UNL     1      23.026  -1.487  55.611  1.00  0.00    -0.161 NA
HETATM    5  N3  UNL     1      22.478  -0.731  54.700  1.00  0.00    -0.241 N 
HETATM    6  C7  UNL     1      21.158  -0.501  54.466  1.00  0.00     0.119 A 
HETATM    7  C8  UNL     1      21.090   0.367  53.388  1.00  0.00     0.030 A 
HETATM    8  C9  UNL     1      22.371   0.685  52.941  1.00  0.00     0.002 A 
HETATM    9  C15 UNL     1      23.167  -0.028  53.798  1.00  0.00     0.091 A 
ENDROOT
BRANCH   8  10
HETATM   10  C10 UNL     1      22.764   1.554  51.817  1.00  0.00     0.313 C 
BRANCH  10  11
HETATM   11  N4  UNL     1      22.863   2.926  52.362  1.00  0.00     0.094 N 
HETATM   12  C11 UNL     1      21.633   3.652  52.037  1.00  0.00     0.275 C 
HETATM   13  C12 UNL     1      22.028   5.072  51.743  1.00  0.00     0.067 C 
HETATM   14  C13 UNL     1      23.543   5.056  51.912  1.00  0.00     0.247 C 
HETATM   15  C14 UNL     1      23.856   3.614  51.524  1.00  0.00     0.307 C 
BRANCH  14  16
HETATM   16  N5  UNL     1      23.829   5.205  53.336  1.00  0.00     0.084 N 
HETATM   17  H20 UNL     1      22.963   4.854  53.836  1.00  0.00     0.313 HD
HETATM   18  H21 UNL     1      24.588   4.504  53.551  1.00  0.00     0.313 HD
ENDBRANCH  14  16
ENDBRANCH  10  11
ENDBRANCH   8  10
BRANCH   1  19
HETATM   19  C3  UNL     1      25.504   0.569  52.969  1.00  0.00     0.036 C 
HETATM   20  C4  UNL     1      26.622  -0.358  52.510  1.00  0.00     0.016 C 
BRANCH  19  21
HETATM   21  C2  UNL     1      26.156   1.653  53.849  1.00  0.00     0.006 C 
HETATM   22  C1  UNL     1      27.488   2.071  53.302  1.00  0.00     0.006 C 
ENDBRANCH  19  21
ENDBRANCH   1  19
TORSDOF 5
ENDMDL
MODEL 2
REMARK VINA RESULT:      -6.5      2.069      5.134
REMARK  5 active torsions:
REMARK  status: ('A' for Active; 'I' for Inactive)
REMARK    1  A    between atoms: C2_2  and  C3_3 
REMARK    2  A    between atoms: C3_3  and  C5_5 
REMARK    3  A    between atoms: C9_12  and  C10_13 
REMARK    4  A    between atoms: C10_13  and  N4_14 
REMARK    5  A    between atoms: C13_17  and  N5_18 
ROOT
HETATM    1  C5  UNL     1      21.711   1.048  51.876  1.00  0.00     0.069 A 
HETATM    2  N1  UNL     1      20.419   1.056  51.495  1.00  0.00    -0.242 NA
HETATM    3  C6  UNL     1      19.484   0.273  52.105  1.00  0.00     0.255 A 
HETATM    4  N2  UNL     1      19.887  -0.531  53.123  1.00  0.00    -0.161 NA
HETATM    5  N3  UNL     1      21.140  -0.531  53.484  1.00  0.00    -0.241 N 
HETATM    6  C7  UNL     1      21.741  -1.249  54.472  1.00  0.00     0.119 A 
HETATM    7  C8  UNL     1      23.080  -0.893  54.463  1.00  0.00     0.030 A 
HETATM    8  C9  UNL     1      23.325   0.052  53.468  1.00  0.00     0.002 A 
HETATM    9  C15 UNL     1      22.083   0.220  52.913  1.00  0.00     0.091 A 
ENDROOT
BRANCH   8  10
HETATM   10  C10 UNL     1      24.594   0.714  53.119  1.00  0.00     0.313 C 
BRANCH  10  11
HETATM   11  N4  UNL     1      25.670  -0.257  53.418  1.00  0.00     0.094 N 
HETATM   12  C11 UNL     1      26.510   0.285  54.489  1.00  0.00     0.275 C 
HETATM   13  C12 UNL     1      27.925  -0.123  54.184  1.00  0.00     0.067 C 
HETATM   14  C13 UNL     1      27.791  -0.899  52.879  1.00  0.00     0.247 C 
HETATM   15  C14 UNL     1      26.578  -0.210  52.262  1.00  0.00     0.307 C 
BRANCH  14  16
HETATM   16  N5  UNL     1      27.402  -2.265  53.216  1.00  0.00     0.084 N 
HETATM   17  H20 UNL     1      27.602  -2.369  54.252  1.00  0.00     0.313 HD
HETATM   18  H21 UNL     1      26.351  -2.296  53.121  1.00  0.00     0.313 HD
ENDBRANCH  14  16
ENDBRANCH  10  11
ENDBRANCH   8  10
BRANCH   1  19
HETATM   19  C3  UNL     1      22.549   1.946  51.093  1.00  0.00     0.036 C 
HETATM   20  C4  UNL     1      22.232   3.412  51.354  1.00  0.00     0.016 C 
BRANCH  19  21
HETATM   21  C2  UNL     1      22.190   1.666  49.621  1.00  0.00     0.006 C 
HETATM   22  C1  UNL     1      22.746   2.722  48.713  1.00  0.00     0.006 C 
ENDBRANCH  19  21
ENDBRANCH   1  19
TORSDOF 5
ENDMDL
MODEL 3
REMARK VINA RESULT:      -6.4      1.099      3.425
REMARK  5 active torsions:
REMARK  status: ('A' for Active; 'I' for Inactive)
REMARK    1  A    between atoms: C2_2  and  C3_3 
REMARK    2  A    between atoms: C3_3  and  C5_5 
REMARK    3  A    between atoms: C9_12  and  C10_13 
REMARK    4  A    between atoms: C10_13  and  N4_14 
REMARK    5  A    between atoms: C13_17  and  N5_18 
ROOT
HETATM    1  C5  UNL     1      23.298   0.128  53.585  1.00  0.00     0.069 A 
HETATM    2  N1  UNL     1      23.309  -0.739  54.615  1.00  0.00    -0.242 NA
HETATM    3  C6  UNL     1      24.470  -1.266  55.099  1.00  0.00     0.255 A 
HETATM    4  N2  UNL     1      25.637  -0.894  54.511  1.00  0.00    -0.161 NA
HETATM    5  N3  UNL     1      25.614  -0.054  53.514  1.00  0.00    -0.241 N 
HETATM    6  C7  UNL     1      26.658   0.445  52.798  1.00  0.00     0.119 A 
HETATM    7  C8  UNL     1      26.118   1.301  51.851  1.00  0.00     0.030 A 
HETATM    8  C9  UNL     1      24.730   1.342  51.970  1.00  0.00     0.002 A 
HETATM    9  C15 UNL     1      24.500   0.483  53.013  1.00  0.00     0.091 A 
ENDROOT
BRANCH   8  10
HETATM   10  C10 UNL     1      23.761   2.127  51.185  1.00  0.00     0.313 C 
BRANCH  10  11
HETATM   11  N4  UNL     1      23.573   3.405  51.907  1.00  0.00     0.094 N 
HETATM   12  C11 UNL     1      22.162   3.792  51.821  1.00  0.00     0.275 C 
HETATM   13  C12 UNL     1      22.127   5.289  51.692  1.00  0.00     0.067 C 
HETATM   14  C13 UNL     1      23.601   5.676  51.696  1.00  0.00     0.247 C 
HETATM   15  C14 UNL     1      24.223   4.429  51.075  1.00  0.00     0.307 C 
BRANCH  14  16
HETATM   16  N5  UNL     1      24.036   5.742  53.089  1.00  0.00     0.084 N 
HETATM   17  H20 UNL     1      23.195   5.444  53.662  1.00  0.00     0.313 HD
HETATM   18  H21 UNL     1      24.749   4.973  53.204  1.00  0.00     0.313 HD
ENDBRANCH  14  16
ENDBRANCH  10  11
ENDBRANCH   8  10
BRANCH   1  19
HETATM   19  C3  UNL     1      21.958   0.565  53.213  1.00  0.00     0.036 C 
HETATM   20  C4  UNL     1      20.953   0.382  54.342  1.00  0.00     0.016 C 
BRANCH  19  21
HETATM   21  C2  UNL     1      21.522  -0.371  52.070  1.00  0.00     0.006 C 
HETATM   22  C1  UNL     1      20.646   0.343  51.084  1.00  0.00     0.006 C 
ENDBRANCH  19  21
ENDBRANCH   1  19
TORSDOF 5
ENDMDL
MODEL 4
REMARK VINA RESULT:      -6.4      1.987      4.099
REMARK  5 active torsions:
REMARK  status: ('A' for Active; 'I' for Inactive)
REMARK    1  A    between atoms: C2_2  and  C3_3 
REMARK    2  A    between atoms: C3_3  and  C5_5 
REMARK    3  A    between atoms: C9_12  and  C10_13 
REMARK    4  A    between atoms: C10_13  and  N4_14 
REMARK    5  A    between atoms: C13_17  and  N5_18 
ROOT
HETATM    1  C5  UNL     1      23.257   1.101  52.051  1.00  0.00     0.069 A 
HETATM    2  N1  UNL     1      23.128   0.087  52.928  1.00  0.00    -0.242 NA
HETATM    3  C6  UNL     1      24.212  -0.523  53.486  1.00  0.00     0.255 A 
HETATM    4  N2  UNL     1      25.448  -0.082  53.135  1.00  0.00    -0.161 NA
HETATM    5  N3  UNL     1      25.561   0.901  52.285  1.00  0.00    -0.241 N 
HETATM    6  C7  UNL     1      26.693   1.489  51.811  1.00  0.00     0.119 A 
HETATM    7  C8  UNL     1      26.287   2.487  50.938  1.00  0.00     0.030 A 
HETATM    8  C9  UNL     1      24.896   2.528  50.862  1.00  0.00     0.002 A 
HETATM    9  C15 UNL     1      24.526   1.523  51.717  1.00  0.00     0.091 A 
ENDROOT
BRANCH   8  10
HETATM   10  C10 UNL     1      24.043   3.436  50.076  1.00  0.00     0.313 C 
BRANCH  10  11
HETATM   11  N4  UNL     1      23.911   4.679  50.868  1.00  0.00     0.094 N 
HETATM   12  C11 UNL     1      22.520   5.136  50.801  1.00  0.00     0.275 C 
HETATM   13  C12 UNL     1      22.555   6.638  50.757  1.00  0.00     0.067 C 
HETATM   14  C13 UNL     1      24.046   6.954  50.785  1.00  0.00     0.247 C 
HETATM   15  C14 UNL     1      24.612   5.716  50.097  1.00  0.00     0.307 C 
BRANCH  14  16
HETATM   16  N5  UNL     1      24.477   6.922  52.180  1.00  0.00     0.084 N 
HETATM   17  H20 UNL     1      24.013   7.758  52.639  1.00  0.00     0.313 HD
HETATM   18  H21 UNL     1      24.018   6.071  52.603  1.00  0.00     0.313 HD
ENDBRANCH  14  16
ENDBRANCH  10  11
ENDBRANCH   8  10
BRANCH   1  19
HETATM   19  C3  UNL     1      21.981   1.608  51.562  1.00  0.00     0.036 C 
HETATM   20  C4  UNL     1      20.955   1.767  52.676  1.00  0.00     0.016 C 
BRANCH  19  21
HETATM   21  C2  UNL     1      21.444   0.522  50.611  1.00  0.00     0.006 C 
HETATM   22  C1  UNL     1      21.319   1.039  49.209  1.00  0.00     0.006 C 
ENDBRANCH  19  21
ENDBRANCH   1  19
TORSDOF 5
ENDMDL
MODEL 5
REMARK VINA RESULT:      -6.2      2.106      5.951
REMARK  5 active torsions:
REMARK  status: ('A' for Active; 'I' for Inactive)
REMARK    1  A    between atoms: C2_2  and  C3_3 
REMARK    2  A    between atoms: C3_3  and  C5_5 
REMARK    3  A    between atoms: C9_12  and  C10_13 
REMARK    4  A    between atoms: C10_13  and  N4_14 
REMARK    5  A    between atoms: C13_17  and  N5_18 
ROOT
HETATM    1  C5  UNL     1      21.551   2.589  50.727  1.00  0.00     0.069 A 
HETATM    2  N1  UNL     1      20.611   3.392  50.193  1.00  0.00    -0.242 NA
HETATM    3  C6  UNL     1      20.543   4.720  50.496  1.00  0.00     0.255 A 
HETATM    4  N2  UNL     1      21.458   5.228  51.362  1.00  0.00    -0.161 NA
HETATM    5  N3  UNL     1      22.364   4.441  51.873  1.00  0.00    -0.241 N 
HETATM    6  C7  UNL     1      23.363   4.748  52.745  1.00  0.00     0.119 A 
HETATM    7  C8  UNL     1      24.060   3.573  52.980  1.00  0.00     0.030 A 
HETATM    8  C9  UNL     1      23.499   2.523  52.255  1.00  0.00     0.002 A 
HETATM    9  C15 UNL     1      22.463   3.138  51.602  1.00  0.00     0.091 A 
ENDROOT
BRANCH   8  10
HETATM   10  C10 UNL     1      23.927   1.114  52.193  1.00  0.00     0.313 C 
BRANCH  10  11
HETATM   11  N4  UNL     1      25.217   1.036  52.915  1.00  0.00     0.094 N 
HETATM   12  C11 UNL     1      26.265   0.647  51.967  1.00  0.00     0.275 C 
HETATM   13  C12 UNL     1      27.212  -0.255  52.707  1.00  0.00     0.067 C 
HETATM   14  C13 UNL     1      26.598  -0.339  54.100  1.00  0.00     0.247 C 
HETATM   15  C14 UNL     1      25.120  -0.157  53.770  1.00  0.00     0.307 C 
BRANCH  14  16
HETATM   16  N5  UNL     1      27.034   0.837  54.846  1.00  0.00     0.084 N 
HETATM   17  H20 UNL     1      26.143   1.340  55.128  1.00  0.00     0.313 HD
HETATM   18  H21 UNL     1      27.452   0.471  55.743  1.00  0.00     0.313 HD
ENDBRANCH  14  16
ENDBRANCH  10  11
ENDBRANCH   8  10
BRANCH   1  19
HETATM   19  C3  UNL     1      21.446   1.204  50.285  1.00  0.00     0.036 C 
HETATM   20  C4  UNL     1      21.429   1.079  48.768  1.00  0.00     0.016 C 
BRANCH  19  21
HETATM   21  C2  UNL     1      20.076   0.714  50.790  1.00  0.00     0.006 C 
HETATM   22  C1  UNL     1      20.168   0.185  52.190  1.00  0.00     0.006 C 
ENDBRANCH  19  21
ENDBRANCH   1  19
TORSDOF 5
ENDMDL
MODEL 6
REMARK VINA RESULT:      -6.0      1.788      2.344
REMARK  5 active torsions:
REMARK  status: ('A' for Active; 'I' for Inactive)
REMARK    1  A    between atoms: C2_2  and  C3_3 
REMARK    2  A    between atoms: C3_3  and  C5_5 
REMARK    3  A    between atoms: C9_12  and  C10_13 
REMARK    4  A    between atoms: C10_13  and  N4_14 
REMARK    5  A    between atoms: C13_17  and  N5_18 
ROOT
HETATM    1  C5  UNL     1      24.214   0.849  52.391  1.00  0.00     0.069 A 
HETATM    2  N1  UNL     1      24.183  -0.047  53.396  1.00  0.00    -0.242 NA
HETATM    3  C6  UNL     1      23.017  -0.614  53.818  1.00  0.00     0.255 A 
HETATM    4  N2  UNL     1      21.865  -0.250  53.196  1.00  0.00    -0.161 NA
HETATM    5  N3  UNL     1      21.907   0.618  52.224  1.00  0.00    -0.241 N 
HETATM    6  C7  UNL     1      20.881   1.107  51.476  1.00  0.00     0.119 A 
HETATM    7  C8  UNL     1      21.438   1.997  50.571  1.00  0.00     0.030 A 
HETATM    8  C9  UNL     1      22.818   2.070  50.749  1.00  0.00     0.002 A 
HETATM    9  C15 UNL     1      23.027   1.194  51.783  1.00  0.00     0.091 A 
ENDROOT
BRANCH   8  10
HETATM   10  C10 UNL     1      23.803   2.871  50.001  1.00  0.00     0.313 C 
BRANCH  10  11
HETATM   11  N4  UNL     1      23.736   4.242  50.555  1.00  0.00     0.094 N 
HETATM   12  C11 UNL     1      22.973   5.086  49.632  1.00  0.00     0.275 C 
HETATM   13  C12 UNL     1      23.617   6.444  49.647  1.00  0.00     0.067 C 
HETATM   14  C13 UNL     1      24.779   6.269  50.618  1.00  0.00     0.247 C 
HETATM   15  C14 UNL     1      25.094   4.790  50.420  1.00  0.00     0.307 C 
BRANCH  14  16
HETATM   16  N5  UNL     1      24.252   6.433  51.970  1.00  0.00     0.084 N 
HETATM   17  H20 UNL     1      24.054   7.470  52.073  1.00  0.00     0.313 HD
HETATM   18  H21 UNL     1      23.310   5.959  51.971  1.00  0.00     0.313 HD
ENDBRANCH  14  16
ENDBRANCH  10  11
ENDBRANCH   8  10
BRANCH   1  19
HETATM   19  C3  UNL     1      25.554   1.343  52.100  1.00  0.00     0.036 C 
HETATM   20  C4  UNL     1      26.569   0.218  51.958  1.00  0.00     0.016 C 
BRANCH  19  21
HETATM   21  C2  UNL     1      25.967   2.165  53.336  1.00  0.00     0.006 C 
HETATM   22  C1  UNL     1      27.449   2.107  53.559  1.00  0.00     0.006 C 
ENDBRANCH  19  21
ENDBRANCH   1  19
TORSDOF 5
ENDMDL
MODEL 7
REMARK VINA RESULT:      -5.9      2.020      5.306
REMARK  5 active torsions:
REMARK  status: ('A' for Active; 'I' for Inactive)
REMARK    1  A    between atoms: C2_2  and  C3_3 
REMARK    2  A    between atoms: C3_3  and  C5_5 
REMARK    3  A    between atoms: C9_12  and  C10_13 
REMARK    4  A    between atoms: C10_13  and  N4_14 
REMARK    5  A    between atoms: C13_17  and  N5_18 
ROOT
HETATM    1  C5  UNL     1      22.182   3.420  51.732  1.00  0.00     0.069 A 
HETATM    2  N1  UNL     1      20.975   3.999  51.580  1.00  0.00    -0.242 NA
HETATM    3  C6  UNL     1      19.835   3.418  52.050  1.00  0.00     0.255 A 
HETATM    4  N2  UNL     1      19.940   2.222  52.687  1.00  0.00    -0.161 NA
HETATM    5  N3  UNL     1      21.113   1.671  52.829  1.00  0.00    -0.241 N 
HETATM    6  C7  UNL     1      21.432   0.494  53.432  1.00  0.00     0.119 A 
HETATM    7  C8  UNL     1      22.807   0.353  53.326  1.00  0.00     0.030 A 
HETATM    8  C9  UNL     1      23.356   1.444  52.655  1.00  0.00     0.002 A 
HETATM    9  C15 UNL     1      22.251   2.207  52.382  1.00  0.00     0.091 A 
ENDROOT
BRANCH   8  10
HETATM   10  C10 UNL     1      24.769   1.714  52.338  1.00  0.00     0.313 C 
BRANCH  10  11
HETATM   11  N4  UNL     1      25.556   0.629  52.966  1.00  0.00     0.094 N 
HETATM   12  C11 UNL     1      26.306   1.184  54.096  1.00  0.00     0.275 C 
HETATM   13  C12 UNL     1      27.634   0.480  54.127  1.00  0.00     0.067 C 
HETATM   14  C13 UNL     1      27.554  -0.469  52.936  1.00  0.00     0.247 C 
HETATM   15  C14 UNL     1      26.628   0.314  52.011  1.00  0.00     0.307 C 
BRANCH  14  16
HETATM   16  N5  UNL     1      26.838  -1.664  53.373  1.00  0.00     0.084 N 
HETATM   17  H20 UNL     1      26.841  -1.625  54.432  1.00  0.00     0.313 HD
HETATM   18  H21 UNL     1      25.834  -1.520  53.083  1.00  0.00     0.313 HD
ENDBRANCH  14  16
ENDBRANCH  10  11
ENDBRANCH   8  10
BRANCH   1  19
HETATM   19  C3  UNL     1      23.271   4.194  51.150  1.00  0.00     0.036 C 
HETATM   20  C4  UNL     1      23.649   5.397  52.004  1.00  0.00     0.016 C 
BRANCH  19  21
HETATM   21  C2  UNL     1      22.720   4.745  49.822  1.00  0.00     0.006 C 
HETATM   22  C1  UNL     1      23.699   4.549  48.702  1.00  0.00     0.006 C 
ENDBRANCH  19  21
ENDBRANCH   1  19
TORSDOF 5
ENDMDL
MODEL 8
REMARK VINA RESULT:      -5.7      2.100      4.291
REMARK  5 active torsions:
REMARK  status: ('A' for Active; 'I' for Inactive)
REMARK    1  A    between atoms: C2_2  and  C3_3 
REMARK    2  A    between atoms: C3_3  and  C5_5 
REMARK    3  A    between atoms: C9_12  and  C10_13 
REMARK    4  A    between atoms: C10_13  and  N4_14 
REMARK    5  A    between atoms: C13_17  and  N5_18 
ROOT
HETATM    1  C5  UNL     1      21.596   0.538  52.623  1.00  0.00     0.069 A 
HETATM    2  N1  UNL     1      21.015  -0.415  53.377  1.00  0.00    -0.242 NA
HETATM    3  C6  UNL     1      21.738  -1.202  54.224  1.00  0.00     0.255 A 
HETATM    4  N2  UNL     1      23.080  -1.003  54.295  1.00  0.00    -0.161 NA
HETATM    5  N3  UNL     1      23.632  -0.078  53.561  1.00  0.00    -0.241 N 
HETATM    6  C7  UNL     1      24.942   0.282  53.488  1.00  0.00     0.119 A 
HETATM    7  C8  UNL     1      25.020   1.317  52.570  1.00  0.00     0.030 A 
HETATM    8  C9  UNL     1      23.756   1.612  52.063  1.00  0.00     0.002 A 
HETATM    9  C15 UNL     1      22.959   0.711  52.721  1.00  0.00     0.091 A 
ENDROOT
BRANCH   8  10
HETATM   10  C10 UNL     1      23.375   2.644  51.083  1.00  0.00     0.313 C 
BRANCH  10  11
HETATM   11  N4  UNL     1      24.569   3.494  50.883  1.00  0.00     0.094 N 
HETATM   12  C11 UNL     1      24.183   4.897  51.055  1.00  0.00     0.275 C 
HETATM   13  C12 UNL     1      24.978   5.695  50.059  1.00  0.00     0.067 C 
HETATM   14  C13 UNL     1      25.796   4.633  49.333  1.00  0.00     0.247 C 
HETATM   15  C14 UNL     1      24.862   3.432  49.443  1.00  0.00     0.307 C 
BRANCH  14  16
HETATM   16  N5  UNL     1      26.976   4.353  50.147  1.00  0.00     0.084 N 
HETATM   17  H20 UNL     1      26.967   5.081  50.918  1.00  0.00     0.313 HD
HETATM   18  H21 UNL     1      26.786   3.430  50.621  1.00  0.00     0.313 HD
ENDBRANCH  14  16
ENDBRANCH  10  11
ENDBRANCH   8  10
BRANCH   1  19
HETATM   19  C3  UNL     1      20.653   1.260  51.778  1.00  0.00     0.036 C 
HETATM   20  C4  UNL     1      20.023   2.447  52.493  1.00  0.00     0.016 C 
BRANCH  19  21
HETATM   21  C2  UNL     1      19.518   0.262  51.482  1.00  0.00     0.006 C 
HETATM   22  C1  UNL     1      18.184   0.946  51.452  1.00  0.00     0.006 C 
ENDBRANCH  19  21
ENDBRANCH   1  19
TORSDOF 5
ENDMDL
MODEL 9
REMARK VINA RESULT:      -5.5      2.305      4.271
REMARK  5 active torsions:
REMARK  status: ('A' for Active; 'I' for Inactive)
REMARK    1  A    between atoms: C2_2  and  C3_3 
REMARK    2  A    between atoms: C3_3  and  C5_5 
REMARK    3  A    between atoms: C9_12  and  C10_13 
REMARK    4  A    between atoms: C10_13  and  N4_14 
REMARK    5  A    between atoms: C13_17  and  N5_18 
ROOT
HETATM    1  C5  UNL     1      23.822   0.555  52.780  1.00  0.00     0.069 A 
HETATM    2  N1  UNL     1      24.382  -0.569  53.270  1.00  0.00    -0.242 NA
HETATM    3  C6  UNL     1      25.706  -0.844  53.100  1.00  0.00     0.255 A 
HETATM    4  N2  UNL     1      26.466   0.050  52.416  1.00  0.00    -0.161 NA
HETATM    5  N3  UNL     1      25.913   1.135  51.946  1.00  0.00    -0.241 N 
HETATM    6  C7  UNL     1      26.490   2.149  51.246  1.00  0.00     0.119 A 
HETATM    7  C8  UNL     1      25.488   3.069  50.981  1.00  0.00     0.030 A 
HETATM    8  C9  UNL     1      24.277   2.635  51.515  1.00  0.00     0.002 A 
HETATM    9  C15 UNL     1      24.622   1.440  52.091  1.00  0.00     0.091 A 
ENDROOT
BRANCH   8  10
HETATM   10  C10 UNL     1      22.964   3.303  51.485  1.00  0.00     0.313 C 
BRANCH  10  11
HETATM   11  N4  UNL     1      22.763   3.770  50.095  1.00  0.00     0.094 N 
HETATM   12  C11 UNL     1      22.412   5.192  50.121  1.00  0.00     0.275 C 
HETATM   13  C12 UNL     1      21.406   5.414  49.027  1.00  0.00     0.067 C 
HETATM   14  C13 UNL     1      21.227   4.024  48.428  1.00  0.00     0.247 C 
HETATM   15  C14 UNL     1      21.506   3.152  49.648  1.00  0.00     0.307 C 
BRANCH  14  16
HETATM   16  N5  UNL     1      22.312   3.811  47.474  1.00  0.00     0.084 N 
HETATM   17  H20 UNL     1      22.937   3.077  47.915  1.00  0.00     0.313 HD
HETATM   18  H21 UNL     1      21.872   3.348  46.635  1.00  0.00     0.313 HD
ENDBRANCH  14  16
ENDBRANCH  10  11
ENDBRANCH   8  10
BRANCH   1  19
HETATM   19  C3  UNL     1      22.395   0.657  53.059  1.00  0.00     0.036 C 
HETATM   20  C4  UNL     1      21.988  -0.127  54.299  1.00  0.00     0.016 C 
BRANCH  19  21
HETATM   21  C2  UNL     1      21.693  -0.008  51.859  1.00  0.00     0.006 C 
HETATM   22  C1  UNL     1      20.237   0.348  51.814  1.00  0.00     0.006 C 
ENDBRANCH  19  21
ENDBRANCH   1  19
TORSDOF 5
ENDMDL
