MODEL 1
REMARK VINA RESULT:      -6.6      0.000      0.000
REMARK  8 active torsions:
REMARK  status: ('A' for Active; 'I' for Inactive)
REMARK    1  A    between atoms: C2_2  and  C3_3 
REMARK    2  A    between atoms: C3_3  and  C4_4 
REMARK    3  A    between atoms: C4_4  and  N1_5 
REMARK    4  A    between atoms: N1_5  and  C5_6 
REMARK    5  A    between atoms: C5_6  and  C6_7 
REMARK    6  A    between atoms: C6_7  and  C7_8 
REMARK    7  A    between atoms: C10_11  and  N2_12 
REMARK    8  A    between atoms: N2_12  and  C11_13 
ROOT
HETATM    1  C7  UNL     1      24.138   1.548  52.756  1.00  0.00     0.053 A 
HETATM    2  C8  UNL     1      23.318   1.363  51.758  1.00  0.00     0.007 A 
HETATM    3  C9  UNL     1      22.558   2.268  50.899  1.00  0.00     0.060 A 
HETATM    4  C10 UNL     1      22.728   3.722  51.230  1.00  0.00     0.126 A 
HETATM    5  C17 UNL     1      23.674   3.835  52.365  1.00  0.00     0.115 A 
HETATM    6  N3  UNL     1      24.310   2.917  53.059  1.00  0.00    -0.263 NA
ENDROOT
BRANCH   4   7
HETATM    7  N2  UNL     1      23.203   4.416  50.053  1.00  0.00    -0.380 N 
HETATM    8  H15 UNL     1      22.490   4.890  49.417  1.00  0.00     0.160 HD
BRANCH   7   9
HETATM    9  C11 UNL     1      24.555   4.531  49.653  1.00  0.00     0.029 A 
HETATM   10  C12 UNL     1      25.456   3.507  49.647  1.00  0.00     0.029 A 
HETATM   11  C13 UNL     1      26.775   3.605  49.251  1.00  0.00     0.004 A 
HETATM   12  C14 UNL     1      27.254   4.825  48.822  1.00  0.00     0.019 A 
HETATM   13  C15 UNL     1      26.381   5.892  48.811  1.00  0.00     0.013 A 
HETATM   14 BR1  UNL     1      26.983   7.608  48.228  1.00  0.00    -0.051 Br
HETATM   15  C16 UNL     1      25.072   5.738  49.216  1.00  0.00     0.048 A 
ENDBRANCH   7   9
ENDBRANCH   4   7
BRANCH   1  16
HETATM   16  C6  UNL     1      24.637   0.321  53.281  1.00  0.00     0.048 C 
BRANCH  16  17
HETATM   17  C5  UNL     1      25.594  -0.450  53.633  1.00  0.00     0.085 C 
BRANCH  17  18
HETATM   18  N1  UNL     1      26.663  -1.313  53.873  1.00  0.00    -0.398 N 
HETATM   19  H8  UNL     1      26.575  -1.925  54.733  1.00  0.00     0.158 HD
BRANCH  18  20
HETATM   20  C4  UNL     1      27.747  -1.247  52.906  1.00  0.00     0.122 C 
BRANCH  20  21
HETATM   21  C3  UNL     1      29.082  -1.097  53.591  1.00  0.00     0.046 C 
BRANCH  21  22
HETATM   22  C2  UNL     1      29.561   0.303  53.587  1.00  0.00    -0.035 C 
HETATM   23  C1  UNL     1      29.076   1.180  54.424  1.00  0.00     0.007 C 
ENDBRANCH  21  22
ENDBRANCH  20  21
ENDBRANCH  18  20
ENDBRANCH  17  18
ENDBRANCH  16  17
ENDBRANCH   1  16
TORSDOF 8
ENDMDL
MODEL 2
REMARK VINA RESULT:      -6.5      4.634      6.675
REMARK  8 active torsions:
REMARK  status: ('A' for Active; 'I' for Inactive)
REMARK    1  A    between atoms: C2_2  and  C3_3 
REMARK    2  A    between atoms: C3_3  and  C4_4 
REMARK    3  A    between atoms: C4_4  and  N1_5 
REMARK    4  A    between atoms: N1_5  and  C5_6 
REMARK    5  A    between atoms: C5_6  and  C6_7 
REMARK    6  A    between atoms: C6_7  and  C7_8 
REMARK    7  A    between atoms: C10_11  and  N2_12 
REMARK    8  A    between atoms: N2_12  and  C11_13 
ROOT
HETATM    1  C7  UNL     1      24.164   1.414  53.049  1.00  0.00     0.053 A 
HETATM    2  C8  UNL     1      23.628   0.275  53.396  1.00  0.00     0.007 A 
HETATM    3  C9  UNL     1      22.256  -0.226  53.417  1.00  0.00     0.060 A 
HETATM    4  C10 UNL     1      21.227   0.770  52.968  1.00  0.00     0.126 A 
HETATM    5  C17 UNL     1      21.924   2.024  52.593  1.00  0.00     0.115 A 
HETATM    6  N3  UNL     1      23.198   2.347  52.614  1.00  0.00    -0.263 NA
ENDROOT
BRANCH   4   7
HETATM    7  N2  UNL     1      20.484   0.208  51.862  1.00  0.00    -0.380 N 
HETATM    8  H15 UNL     1      20.982   0.070  50.929  1.00  0.00     0.160 HD
BRANCH   7   9
HETATM    9  C11 UNL     1      19.126  -0.187  51.897  1.00  0.00     0.029 A 
HETATM   10  C12 UNL     1      18.527  -0.823  52.945  1.00  0.00     0.029 A 
HETATM   11  C13 UNL     1      17.201  -1.206  52.995  1.00  0.00     0.004 A 
HETATM   12  C14 UNL     1      16.389  -0.940  51.913  1.00  0.00     0.019 A 
HETATM   13  C15 UNL     1      16.949  -0.299  50.828  1.00  0.00     0.013 A 
HETATM   14 BR1  UNL     1      15.877   0.097  49.298  1.00  0.00    -0.051 Br
HETATM   15  C16 UNL     1      18.279   0.062  50.832  1.00  0.00     0.048 A 
ENDBRANCH   7   9
ENDBRANCH   4   7
BRANCH   1  16
HETATM   16  C6  UNL     1      25.579   1.417  53.211  1.00  0.00     0.048 C 
BRANCH  16  17
HETATM   17  C5  UNL     1      26.665   1.936  53.642  1.00  0.00     0.085 C 
BRANCH  17  18
HETATM   18  N1  UNL     1      27.836   2.602  54.004  1.00  0.00    -0.398 N 
HETATM   19  H8  UNL     1      27.717   3.612  54.299  1.00  0.00     0.158 HD
BRANCH  18  20
HETATM   20  C4  UNL     1      29.053   1.810  53.924  1.00  0.00     0.122 C 
BRANCH  20  21
HETATM   21  C3  UNL     1      28.849   0.434  54.505  1.00  0.00     0.046 C 
BRANCH  21  22
HETATM   22  C2  UNL     1      29.695  -0.585  53.846  1.00  0.00    -0.035 C 
HETATM   23  C1  UNL     1      29.163  -1.626  53.266  1.00  0.00     0.007 C 
ENDBRANCH  21  22
ENDBRANCH  20  21
ENDBRANCH  18  20
ENDBRANCH  17  18
ENDBRANCH  16  17
ENDBRANCH   1  16
TORSDOF 8
ENDMDL
MODEL 3
REMARK VINA RESULT:      -6.5      2.144      3.039
REMARK  8 active torsions:
REMARK  status: ('A' for Active; 'I' for Inactive)
REMARK    1  A    between atoms: C2_2  and  C3_3 
REMARK    2  A    between atoms: C3_3  and  C4_4 
REMARK    3  A    between atoms: C4_4  and  N1_5 
REMARK    4  A    between atoms: N1_5  and  C5_6 
REMARK    5  A    between atoms: C5_6  and  C6_7 
REMARK    6  A    between atoms: C6_7  and  C7_8 
REMARK    7  A    between atoms: C10_11  and  N2_12 
REMARK    8  A    between atoms: N2_12  and  C11_13 
ROOT
HETATM    1  C7  UNL     1      25.284   2.714  51.475  1.00  0.00     0.053 A 
HETATM    2  C8  UNL     1      26.251   2.689  50.599  1.00  0.00     0.007 A 
HETATM    3  C9  UNL     1      26.678   3.608  49.546  1.00  0.00     0.060 A 
HETATM    4  C10 UNL     1      25.827   4.837  49.416  1.00  0.00     0.126 A 
HETATM    5  C17 UNL     1      24.764   4.780  50.447  1.00  0.00     0.115 A 
HETATM    6  N3  UNL     1      24.490   3.876  51.362  1.00  0.00    -0.263 NA
ENDROOT
BRANCH   4   7
HETATM    7  N2  UNL     1      26.667   6.005  49.562  1.00  0.00    -0.380 N 
HETATM    8  H15 UNL     1      26.820   6.405  50.539  1.00  0.00     0.160 HD
BRANCH   7   9
HETATM    9  C11 UNL     1      27.322   6.687  48.510  1.00  0.00     0.029 A 
HETATM   10  C12 UNL     1      28.623   6.498  48.150  1.00  0.00     0.029 A 
HETATM   11  C13 UNL     1      29.271   7.150  47.119  1.00  0.00     0.004 A 
HETATM   12  C14 UNL     1      28.573   8.077  46.374  1.00  0.00     0.019 A 
HETATM   13  C15 UNL     1      27.253   8.305  46.701  1.00  0.00     0.013 A 
HETATM   14 BR1  UNL     1      26.233   9.576  45.707  1.00  0.00    -0.051 Br
HETATM   15  C16 UNL     1      26.656   7.623  47.739  1.00  0.00     0.048 A 
ENDBRANCH   7   9
ENDBRANCH   4   7
BRANCH   1  16
HETATM   16  C6  UNL     1      25.279   1.558  52.307  1.00  0.00     0.048 C 
BRANCH  16  17
HETATM   17  C5  UNL     1      25.712   0.399  52.634  1.00  0.00     0.085 C 
BRANCH  17  18
HETATM   18  N1  UNL     1      26.320  -0.805  52.987  1.00  0.00    -0.398 N 
HETATM   19  H8  UNL     1      25.670  -1.635  53.086  1.00  0.00     0.158 HD
BRANCH  18  20
HETATM   20  C4  UNL     1      27.762  -0.746  53.170  1.00  0.00     0.122 C 
BRANCH  20  21
HETATM   21  C3  UNL     1      28.126   0.092  54.369  1.00  0.00     0.046 C 
BRANCH  21  22
HETATM   22  C2  UNL     1      29.089   1.165  54.033  1.00  0.00    -0.035 C 
HETATM   23  C1  UNL     1      28.675   2.335  53.631  1.00  0.00     0.007 C 
ENDBRANCH  21  22
ENDBRANCH  20  21
ENDBRANCH  18  20
ENDBRANCH  17  18
ENDBRANCH  16  17
ENDBRANCH   1  16
TORSDOF 8
ENDMDL
MODEL 4
REMARK VINA RESULT:      -6.5      1.179      1.954
REMARK  8 active torsions:
REMARK  status: ('A' for Active; 'I' for Inactive)
REMARK    1  A    between atoms: C2_2  and  C3_3 
REMARK    2  A    between atoms: C3_3  and  C4_4 
REMARK    3  A    between atoms: C4_4  and  N1_5 
REMARK    4  A    between atoms: N1_5  and  C5_6 
REMARK    5  A    between atoms: C5_6  and  C6_7 
REMARK    6  A    between atoms: C6_7  and  C7_8 
REMARK    7  A    between atoms: C10_11  and  N2_12 
REMARK    8  A    between atoms: N2_12  and  C11_13 
ROOT
HETATM    1  C7  UNL     1      24.482   1.718  52.865  1.00  0.00     0.053 A 
HETATM    2  C8  UNL     1      23.781   1.314  51.841  1.00  0.00     0.007 A 
HETATM    3  C9  UNL     1      22.804   1.965  50.972  1.00  0.00     0.060 A 
HETATM    4  C10 UNL     1      22.518   3.395  51.326  1.00  0.00     0.126 A 
HETATM    5  C17 UNL     1      23.356   3.764  52.491  1.00  0.00     0.115 A 
HETATM    6  N3  UNL     1      24.223   3.067  53.192  1.00  0.00    -0.263 NA
ENDROOT
BRANCH   4   7
HETATM    7  N2  UNL     1      22.788   4.226  50.173  1.00  0.00    -0.380 N 
HETATM    8  H15 UNL     1      22.155   4.137  49.320  1.00  0.00     0.160 HD
BRANCH   7   9
HETATM    9  C11 UNL     1      23.838   5.167  50.064  1.00  0.00     0.029 A 
HETATM   10  C12 UNL     1      23.770   6.463  50.484  1.00  0.00     0.029 A 
HETATM   11  C13 UNL     1      24.790   7.389  50.391  1.00  0.00     0.004 A 
HETATM   12  C14 UNL     1      25.990   7.004  49.831  1.00  0.00     0.019 A 
HETATM   13  C15 UNL     1      26.108   5.704  49.390  1.00  0.00     0.013 A 
HETATM   14 BR1  UNL     1      27.744   5.110  48.605  1.00  0.00    -0.051 Br
HETATM   15  C16 UNL     1      25.057   4.820  49.509  1.00  0.00     0.048 A 
ENDBRANCH   7   9
ENDBRANCH   4   7
BRANCH   1  16
HETATM   16  C6  UNL     1      25.316   0.688  53.389  1.00  0.00     0.048 C 
BRANCH  16  17
HETATM   17  C5  UNL     1      26.265   0.277  54.142  1.00  0.00     0.085 C 
BRANCH  17  18
HETATM   18  N1  UNL     1      27.203  -0.166  55.074  1.00  0.00    -0.398 N 
HETATM   19  H8  UNL     1      26.839  -0.840  55.805  1.00  0.00     0.158 HD
BRANCH  18  20
HETATM   20  C4  UNL     1      28.547   0.364  54.906  1.00  0.00     0.122 C 
BRANCH  20  21
HETATM   21  C3  UNL     1      29.118  -0.013  53.562  1.00  0.00     0.046 C 
BRANCH  21  22
HETATM   22  C2  UNL     1      29.758  -1.347  53.579  1.00  0.00    -0.035 C 
HETATM   23  C1  UNL     1      29.116  -2.404  53.163  1.00  0.00     0.007 C 
ENDBRANCH  21  22
ENDBRANCH  20  21
ENDBRANCH  18  20
ENDBRANCH  17  18
ENDBRANCH  16  17
ENDBRANCH   1  16
TORSDOF 8
ENDMDL
MODEL 5
REMARK VINA RESULT:      -6.5      2.758      6.833
REMARK  8 active torsions:
REMARK  status: ('A' for Active; 'I' for Inactive)
REMARK    1  A    between atoms: C2_2  and  C3_3 
REMARK    2  A    between atoms: C3_3  and  C4_4 
REMARK    3  A    between atoms: C4_4  and  N1_5 
REMARK    4  A    between atoms: N1_5  and  C5_6 
REMARK    5  A    between atoms: C5_6  and  C6_7 
REMARK    6  A    between atoms: C6_7  and  C7_8 
REMARK    7  A    between atoms: C10_11  and  N2_12 
REMARK    8  A    between atoms: N2_12  and  C11_13 
ROOT
HETATM    1  C7  UNL     1      26.528   1.952  52.031  1.00  0.00     0.053 A 
HETATM    2  C8  UNL     1      26.788   0.699  51.774  1.00  0.00     0.007 A 
HETATM    3  C9  UNL     1      26.801  -0.513  52.590  1.00  0.00     0.060 A 
HETATM    4  C10 UNL     1      26.466  -0.288  54.035  1.00  0.00     0.126 A 
HETATM    5  C17 UNL     1      26.184   1.154  54.231  1.00  0.00     0.115 A 
HETATM    6  N3  UNL     1      26.200   2.163  53.388  1.00  0.00    -0.263 NA
ENDROOT
BRANCH   4   7
HETATM    7  N2  UNL     1      25.335  -1.118  54.387  1.00  0.00    -0.380 N 
HETATM    8  H15 UNL     1      25.519  -2.067  54.838  1.00  0.00     0.160 HD
BRANCH   7   9
HETATM    9  C11 UNL     1      23.975  -0.786  54.187  1.00  0.00     0.029 A 
HETATM   10  C12 UNL     1      22.982  -0.981  55.102  1.00  0.00     0.029 A 
HETATM   11  C13 UNL     1      21.653  -0.654  54.921  1.00  0.00     0.004 A 
HETATM   12  C14 UNL     1      21.263  -0.082  53.728  1.00  0.00     0.019 A 
HETATM   13  C15 UNL     1      22.231   0.135  52.771  1.00  0.00     0.013 A 
HETATM   14 BR1  UNL     1      21.755   0.923  51.098  1.00  0.00    -0.051 Br
HETATM   15  C16 UNL     1      23.545  -0.211  53.005  1.00  0.00     0.048 A 
ENDBRANCH   7   9
ENDBRANCH   4   7
BRANCH   1  16
HETATM   16  C6  UNL     1      26.653   2.778  50.876  1.00  0.00     0.048 C 
BRANCH  16  17
HETATM   17  C5  UNL     1      26.243   3.715  50.108  1.00  0.00     0.085 C 
BRANCH  17  18
HETATM   18  N1  UNL     1      25.868   4.830  49.360  1.00  0.00    -0.398 N 
HETATM   19  H8  UNL     1      26.237   4.862  48.368  1.00  0.00     0.158 HD
BRANCH  18  20
HETATM   20  C4  UNL     1      25.022   5.789  50.052  1.00  0.00     0.122 C 
BRANCH  20  21
HETATM   21  C3  UNL     1      23.714   5.165  50.468  1.00  0.00     0.046 C 
BRANCH  21  22
HETATM   22  C2  UNL     1      23.513   5.204  51.933  1.00  0.00    -0.035 C 
HETATM   23  C1  UNL     1      23.337   4.105  52.615  1.00  0.00     0.007 C 
ENDBRANCH  21  22
ENDBRANCH  20  21
ENDBRANCH  18  20
ENDBRANCH  17  18
ENDBRANCH  16  17
ENDBRANCH   1  16
TORSDOF 8
ENDMDL
MODEL 6
REMARK VINA RESULT:      -6.5      3.643      5.637
REMARK  8 active torsions:
REMARK  status: ('A' for Active; 'I' for Inactive)
REMARK    1  A    between atoms: C2_2  and  C3_3 
REMARK    2  A    between atoms: C3_3  and  C4_4 
REMARK    3  A    between atoms: C4_4  and  N1_5 
REMARK    4  A    between atoms: N1_5  and  C5_6 
REMARK    5  A    between atoms: C5_6  and  C6_7 
REMARK    6  A    between atoms: C6_7  and  C7_8 
REMARK    7  A    between atoms: C10_11  and  N2_12 
REMARK    8  A    between atoms: N2_12  and  C11_13 
ROOT
HETATM    1  C7  UNL     1      23.334   0.390  53.010  1.00  0.00     0.053 A 
HETATM    2  C8  UNL     1      22.808   1.447  52.453  1.00  0.00     0.007 A 
HETATM    3  C9  UNL     1      23.373   2.626  51.802  1.00  0.00     0.060 A 
HETATM    4  C10 UNL     1      24.872   2.658  51.774  1.00  0.00     0.126 A 
HETATM    5  C17 UNL     1      25.378   1.424  52.421  1.00  0.00     0.115 A 
HETATM    6  N3  UNL     1      24.745   0.412  52.973  1.00  0.00    -0.263 NA
ENDROOT
BRANCH   4   7
HETATM    7  N2  UNL     1      25.312   2.773  50.401  1.00  0.00    -0.380 N 
HETATM    8  H15 UNL     1      25.400   1.886  49.817  1.00  0.00     0.160 HD
BRANCH   7   9
HETATM    9  C11 UNL     1      25.646   3.979  49.740  1.00  0.00     0.029 A 
HETATM   10  C12 UNL     1      24.767   4.983  49.461  1.00  0.00     0.029 A 
HETATM   11  C13 UNL     1      25.083   6.168  48.825  1.00  0.00     0.004 A 
HETATM   12  C14 UNL     1      26.384   6.384  48.425  1.00  0.00     0.019 A 
HETATM   13  C15 UNL     1      27.311   5.396  48.684  1.00  0.00     0.013 A 
HETATM   14 BR1  UNL     1      29.130   5.634  48.155  1.00  0.00    -0.051 Br
HETATM   15  C16 UNL     1      26.941   4.232  49.324  1.00  0.00     0.048 A 
ENDBRANCH   7   9
ENDBRANCH   4   7
BRANCH   1  16
HETATM   16  C6  UNL     1      22.345  -0.503  53.517  1.00  0.00     0.048 C 
BRANCH  16  17
HETATM   17  C5  UNL     1      21.145  -0.783  53.858  1.00  0.00     0.085 C 
BRANCH  17  18
HETATM   18  N1  UNL     1      19.802  -1.081  54.085  1.00  0.00    -0.398 N 
HETATM   19  H8  UNL     1      19.586  -1.546  55.012  1.00  0.00     0.158 HD
BRANCH  18  20
HETATM   20  C4  UNL     1      18.891  -0.709  53.015  1.00  0.00     0.122 C 
BRANCH  20  21
HETATM   21  C3  UNL     1      17.615  -1.511  53.080  1.00  0.00     0.046 C 
BRANCH  21  22
HETATM   22  C2  UNL     1      17.802  -2.807  53.770  1.00  0.00    -0.035 C 
HETATM   23  C1  UNL     1      17.078  -3.846  53.452  1.00  0.00     0.007 C 
ENDBRANCH  21  22
ENDBRANCH  20  21
ENDBRANCH  18  20
ENDBRANCH  17  18
ENDBRANCH  16  17
ENDBRANCH   1  16
TORSDOF 8
ENDMDL
MODEL 7
REMARK VINA RESULT:      -6.3      4.919      8.000
REMARK  8 active torsions:
REMARK  status: ('A' for Active; 'I' for Inactive)
REMARK    1  A    between atoms: C2_2  and  C3_3 
REMARK    2  A    between atoms: C3_3  and  C4_4 
REMARK    3  A    between atoms: C4_4  and  N1_5 
REMARK    4  A    between atoms: N1_5  and  C5_6 
REMARK    5  A    between atoms: C5_6  and  C6_7 
REMARK    6  A    between atoms: C6_7  and  C7_8 
REMARK    7  A    between atoms: C10_11  and  N2_12 
REMARK    8  A    between atoms: N2_12  and  C11_13 
ROOT
HETATM    1  C7  UNL     1      21.323  -0.515  53.857  1.00  0.00     0.053 A 
HETATM    2  C8  UNL     1      21.955   0.179  52.950  1.00  0.00     0.007 A 
HETATM    3  C9  UNL     1      23.367   0.454  52.697  1.00  0.00     0.060 A 
HETATM    4  C10 UNL     1      24.305  -0.169  53.688  1.00  0.00     0.126 A 
HETATM    5  C17 UNL     1      23.504  -0.936  54.671  1.00  0.00     0.115 A 
HETATM    6  N3  UNL     1      22.206  -1.114  54.782  1.00  0.00    -0.263 NA
ENDROOT
BRANCH   4   7
HETATM    7  N2  UNL     1      25.247  -1.007  52.978  1.00  0.00    -0.380 N 
HETATM    8  H15 UNL     1      24.871  -1.712  52.272  1.00  0.00     0.160 HD
BRANCH   7   9
HETATM    9  C11 UNL     1      26.652  -0.982  53.133  1.00  0.00     0.029 A 
HETATM   10  C12 UNL     1      27.481  -2.040  52.898  1.00  0.00     0.029 A 
HETATM   11  C13 UNL     1      28.855  -2.025  53.038  1.00  0.00     0.004 A 
HETATM   12  C14 UNL     1      29.471  -0.862  53.447  1.00  0.00     0.019 A 
HETATM   13  C15 UNL     1      28.676   0.235  53.697  1.00  0.00     0.013 A 
HETATM   14 BR1  UNL     1      29.469   1.876  54.267  1.00  0.00    -0.051 Br
HETATM   15  C16 UNL     1      27.308   0.166  53.541  1.00  0.00     0.048 A 
ENDBRANCH   7   9
ENDBRANCH   4   7
BRANCH   1  16
HETATM   16  C6  UNL     1      19.910  -0.480  53.678  1.00  0.00     0.048 C 
BRANCH  16  17
HETATM   17  C5  UNL     1      18.852  -0.705  52.996  1.00  0.00     0.085 C 
BRANCH  17  18
HETATM   18  N1  UNL     1      17.765  -0.881  52.141  1.00  0.00    -0.398 N 
HETATM   19  H8  UNL     1      17.938  -0.643  51.123  1.00  0.00     0.158 HD
BRANCH  18  20
HETATM   20  C4  UNL     1      16.547  -1.365  52.772  1.00  0.00     0.122 C 
BRANCH  20  21
HETATM   21  C3  UNL     1      16.360  -2.842  52.536  1.00  0.00     0.046 C 
BRANCH  21  22
HETATM   22  C2  UNL     1      17.014  -3.664  53.578  1.00  0.00    -0.035 C 
HETATM   23  C1  UNL     1      16.615  -4.884  53.818  1.00  0.00     0.007 C 
ENDBRANCH  21  22
ENDBRANCH  20  21
ENDBRANCH  18  20
ENDBRANCH  17  18
ENDBRANCH  16  17
ENDBRANCH   1  16
TORSDOF 8
ENDMDL
MODEL 8
REMARK VINA RESULT:      -6.3      2.346      4.695
REMARK  8 active torsions:
REMARK  status: ('A' for Active; 'I' for Inactive)
REMARK    1  A    between atoms: C2_2  and  C3_3 
REMARK    2  A    between atoms: C3_3  and  C4_4 
REMARK    3  A    between atoms: C4_4  and  N1_5 
REMARK    4  A    between atoms: N1_5  and  C5_6 
REMARK    5  A    between atoms: C5_6  and  C6_7 
REMARK    6  A    between atoms: C6_7  and  C7_8 
REMARK    7  A    between atoms: C10_11  and  N2_12 
REMARK    8  A    between atoms: N2_12  and  C11_13 
ROOT
HETATM    1  C7  UNL     1      24.576   0.113  53.263  1.00  0.00     0.053 A 
HETATM    2  C8  UNL     1      24.367   1.394  53.118  1.00  0.00     0.007 A 
HETATM    3  C9  UNL     1      25.135   2.475  52.505  1.00  0.00     0.060 A 
HETATM    4  C10 UNL     1      26.454   2.047  51.930  1.00  0.00     0.126 A 
HETATM    5  C17 UNL     1      26.601   0.587  52.136  1.00  0.00     0.115 A 
HETATM    6  N3  UNL     1      25.811  -0.292  52.710  1.00  0.00    -0.263 NA
ENDROOT
BRANCH   4   7
HETATM    7  N2  UNL     1      26.492   2.408  50.530  1.00  0.00    -0.380 N 
HETATM    8  H15 UNL     1      27.210   1.933  49.900  1.00  0.00     0.160 HD
BRANCH   7   9
HETATM    9  C11 UNL     1      25.651   3.353  49.898  1.00  0.00     0.029 A 
HETATM   10  C12 UNL     1      24.354   3.127  49.543  1.00  0.00     0.029 A 
HETATM   11  C13 UNL     1      23.520   4.044  48.934  1.00  0.00     0.004 A 
HETATM   12  C14 UNL     1      24.008   5.301  48.646  1.00  0.00     0.019 A 
HETATM   13  C15 UNL     1      25.316   5.578  48.985  1.00  0.00     0.013 A 
HETATM   14 BR1  UNL     1      26.052   7.300  48.612  1.00  0.00    -0.051 Br
HETATM   15  C16 UNL     1      26.104   4.624  49.593  1.00  0.00     0.048 A 
ENDBRANCH   7   9
ENDBRANCH   4   7
BRANCH   1  16
HETATM   16  C6  UNL     1      23.507  -0.535  53.947  1.00  0.00     0.048 C 
BRANCH  16  17
HETATM   17  C5  UNL     1      22.264  -0.730  54.171  1.00  0.00     0.085 C 
BRANCH  17  18
HETATM   18  N1  UNL     1      20.938  -0.925  54.559  1.00  0.00    -0.398 N 
HETATM   19  H8  UNL     1      20.797  -1.281  55.546  1.00  0.00     0.158 HD
BRANCH  18  20
HETATM   20  C4  UNL     1      19.941  -0.609  53.549  1.00  0.00     0.122 C 
BRANCH  20  21
HETATM   21  C3  UNL     1      20.287   0.663  52.817  1.00  0.00     0.046 C 
BRANCH  21  22
HETATM   22  C2  UNL     1      20.310   0.478  51.350  1.00  0.00    -0.035 C 
HETATM   23  C1  UNL     1      21.431   0.539  50.683  1.00  0.00     0.007 C 
ENDBRANCH  21  22
ENDBRANCH  20  21
ENDBRANCH  18  20
ENDBRANCH  17  18
ENDBRANCH  16  17
ENDBRANCH   1  16
TORSDOF 8
ENDMDL
MODEL 9
REMARK VINA RESULT:      -6.2      3.763      7.081
REMARK  8 active torsions:
REMARK  status: ('A' for Active; 'I' for Inactive)
REMARK    1  A    between atoms: C2_2  and  C3_3 
REMARK    2  A    between atoms: C3_3  and  C4_4 
REMARK    3  A    between atoms: C4_4  and  N1_5 
REMARK    4  A    between atoms: N1_5  and  C5_6 
REMARK    5  A    between atoms: C5_6  and  C6_7 
REMARK    6  A    between atoms: C6_7  and  C7_8 
REMARK    7  A    between atoms: C10_11  and  N2_12 
REMARK    8  A    between atoms: N2_12  and  C11_13 
ROOT
HETATM    1  C7  UNL     1      27.088   5.231  48.868  1.00  0.00     0.053 A 
HETATM    2  C8  UNL     1      25.990   5.690  49.404  1.00  0.00     0.007 A 
HETATM    3  C9  UNL     1      24.940   5.086  50.220  1.00  0.00     0.060 A 
HETATM    4  C10 UNL     1      25.137   3.625  50.498  1.00  0.00     0.126 A 
HETATM    5  C17 UNL     1      26.403   3.194  49.858  1.00  0.00     0.115 A 
HETATM    6  N3  UNL     1      27.281   3.858  49.140  1.00  0.00    -0.263 NA
ENDROOT
BRANCH   4   7
HETATM    7  N2  UNL     1      25.151   3.419  51.930  1.00  0.00    -0.380 N 
HETATM    8  H15 UNL     1      25.064   4.268  52.569  1.00  0.00     0.160 HD
BRANCH   7   9
HETATM    9  C11 UNL     1      25.274   2.170  52.582  1.00  0.00     0.029 A 
HETATM   10  C12 UNL     1      24.292   1.225  52.647  1.00  0.00     0.029 A 
HETATM   11  C13 UNL     1      24.402  -0.001  53.273  1.00  0.00     0.004 A 
HETATM   12  C14 UNL     1      25.589  -0.328  53.893  1.00  0.00     0.019 A 
HETATM   13  C15 UNL     1      26.612   0.595  53.856  1.00  0.00     0.013 A 
HETATM   14 BR1  UNL     1      28.281   0.202  54.697  1.00  0.00    -0.051 Br
HETATM   15  C16 UNL     1      26.448   1.805  53.215  1.00  0.00     0.048 A 
ENDBRANCH   7   9
ENDBRANCH   4   7
BRANCH   1  16
HETATM   16  C6  UNL     1      27.797   6.232  48.144  1.00  0.00     0.048 C 
BRANCH  16  17
HETATM   17  C5  UNL     1      28.880   6.783  47.745  1.00  0.00     0.085 C 
BRANCH  17  18
HETATM   18  N1  UNL     1      30.123   7.332  47.433  1.00  0.00    -0.398 N 
HETATM   19  H8  UNL     1      30.204   8.382  47.551  1.00  0.00     0.158 HD
BRANCH  18  20
HETATM   20  C4  UNL     1      31.131   6.382  46.990  1.00  0.00     0.122 C 
BRANCH  20  21
HETATM   21  C3  UNL     1      31.073   5.109  47.797  1.00  0.00     0.046 C 
BRANCH  21  22
HETATM   22  C2  UNL     1      32.162   4.171  47.444  1.00  0.00    -0.035 C 
HETATM   23  C1  UNL     1      31.958   3.191  46.606  1.00  0.00     0.007 C 
ENDBRANCH  21  22
ENDBRANCH  20  21
ENDBRANCH  18  20
ENDBRANCH  17  18
ENDBRANCH  16  17
ENDBRANCH   1  16
TORSDOF 8
ENDMDL
