MODEL 1
REMARK VINA RESULT:      -6.4      0.000      0.000
REMARK  9 active torsions:
REMARK  status: ('A' for Active; 'I' for Inactive)
REMARK    1  A    between atoms: C2_2  and  C3_3 
REMARK    2  A    between atoms: C2_2  and  N2_14 
REMARK    3  A    between atoms: C3_3  and  C4_4 
REMARK    4  A    between atoms: C4_4  and  C5_5 
REMARK    5  A    between atoms: C5_5  and  N1_6 
REMARK    6  A    between atoms: N1_6  and  C6_7 
REMARK       I    between atoms: N2_14  and  C12_15 
REMARK    7  A    between atoms: C12_15  and  C13_17 
REMARK    8  A    between atoms: C14_18  and  C15_19 
REMARK    9  A    between atoms: C15_19  and  N3_20 
ROOT
HETATM    1  C1  UNL     1      26.380   3.005  49.802  1.00  0.00     0.063 C 
HETATM    2  C2  UNL     1      26.435   4.313  49.608  1.00  0.00     0.012 C 
ENDROOT
BRANCH   2   3
HETATM    3  C3  UNL     1      25.191   4.816  50.102  1.00  0.00     0.022 C 
BRANCH   3   4
HETATM    4  C4  UNL     1      24.225   4.882  50.965  1.00  0.00    -0.005 C 
BRANCH   4   5
HETATM    5  C5  UNL     1      23.424   4.693  52.183  1.00  0.00     0.147 C 
BRANCH   5   6
HETATM    6  N1  UNL     1      24.262   4.079  53.190  1.00  0.00    -0.386 N 
HETATM    7  H7  UNL     1      24.691   4.671  53.956  1.00  0.00     0.160 HD
BRANCH   6   8
HETATM    8  C6  UNL     1      24.578   2.697  53.253  1.00  0.00     0.029 A 
HETATM    9  C7  UNL     1      23.723   1.699  52.851  1.00  0.00     0.029 A 
HETATM   10  C8  UNL     1      24.005   0.361  52.897  1.00  0.00     0.004 A 
HETATM   11  C9  UNL     1      25.219  -0.059  53.373  1.00  0.00     0.019 A 
HETATM   12  C10 UNL     1      26.122   0.891  53.794  1.00  0.00     0.013 A 
HETATM   13 BR1  UNL     1      27.814   0.277  54.457  1.00  0.00    -0.051 Br
HETATM   14  C11 UNL     1      25.791   2.224  53.727  1.00  0.00     0.048 A 
ENDBRANCH   6   8
ENDBRANCH   5   6
ENDBRANCH   4   5
ENDBRANCH   3   4
ENDBRANCH   2   3
BRANCH   2  15
HETATM   15  N2  UNL     1      27.572   4.889  49.013  1.00  0.00    -0.327 N 
HETATM   16  C12 UNL     1      27.966   6.028  48.272  1.00  0.00     0.245 C 
HETATM   17  O1  UNL     1      27.001   6.797  48.062  1.00  0.00    -0.268 OA
HETATM   18  H12 UNL     1      28.435   4.289  49.155  1.00  0.00     0.169 HD
BRANCH  16  19
HETATM   19  C13 UNL     1      29.307   6.311  47.797  1.00  0.00     0.072 C 
HETATM   20  C14 UNL     1      30.355   5.545  48.014  1.00  0.00     0.008 C 
BRANCH  20  21
HETATM   21  C15 UNL     1      31.711   5.830  47.534  1.00  0.00     0.299 C 
BRANCH  21  22
HETATM   22  N3  UNL     1      32.483   6.465  48.589  1.00  0.00     0.083 N 
HETATM   23  C16 UNL     1      33.784   5.824  48.741  1.00  0.00     0.309 C 
HETATM   24  C17 UNL     1      32.662   7.890  48.342  1.00  0.00     0.309 C 
ENDBRANCH  21  22
ENDBRANCH  20  21
ENDBRANCH  16  19
ENDBRANCH   2  15
TORSDOF 9
ENDMDL
MODEL 2
REMARK VINA RESULT:      -6.2      1.807      2.393
REMARK  9 active torsions:
REMARK  status: ('A' for Active; 'I' for Inactive)
REMARK    1  A    between atoms: C2_2  and  C3_3 
REMARK    2  A    between atoms: C2_2  and  N2_14 
REMARK    3  A    between atoms: C3_3  and  C4_4 
REMARK    4  A    between atoms: C4_4  and  C5_5 
REMARK    5  A    between atoms: C5_5  and  N1_6 
REMARK    6  A    between atoms: N1_6  and  C6_7 
REMARK       I    between atoms: N2_14  and  C12_15 
REMARK    7  A    between atoms: C12_15  and  C13_17 
REMARK    8  A    between atoms: C14_18  and  C15_19 
REMARK    9  A    between atoms: C15_19  and  N3_20 
ROOT
HETATM    1  C1  UNL     1      26.358   5.997  48.757  1.00  0.00     0.063 C 
HETATM    2  C2  UNL     1      27.257   5.044  48.944  1.00  0.00     0.012 C 
ENDROOT
BRANCH   2   3
HETATM    3  C3  UNL     1      26.527   3.949  49.507  1.00  0.00     0.022 C 
BRANCH   3   4
HETATM    4  C4  UNL     1      25.756   3.402  50.394  1.00  0.00    -0.005 C 
BRANCH   4   5
HETATM    5  C5  UNL     1      24.834   3.223  51.526  1.00  0.00     0.147 C 
BRANCH   5   6
HETATM    6  N1  UNL     1      25.592   2.746  52.662  1.00  0.00    -0.386 N 
HETATM    7  H7  UNL     1      25.769   3.386  53.486  1.00  0.00     0.160 HD
BRANCH   6   8
HETATM    8  C6  UNL     1      26.145   1.445  52.782  1.00  0.00     0.029 A 
HETATM    9  C7  UNL     1      25.420   0.288  52.619  1.00  0.00     0.029 A 
HETATM   10  C8  UNL     1      25.930  -0.976  52.726  1.00  0.00     0.004 A 
HETATM   11  C9  UNL     1      27.258  -1.149  53.016  1.00  0.00     0.019 A 
HETATM   12  C10 UNL     1      28.040  -0.031  53.193  1.00  0.00     0.013 A 
HETATM   13 BR1  UNL     1      29.896  -0.299  53.599  1.00  0.00    -0.051 Br
HETATM   14  C11 UNL     1      27.480   1.220  53.074  1.00  0.00     0.048 A 
ENDBRANCH   6   8
ENDBRANCH   5   6
ENDBRANCH   4   5
ENDBRANCH   3   4
ENDBRANCH   2   3
BRANCH   2  15
HETATM   15  N2  UNL     1      28.602   5.267  48.602  1.00  0.00    -0.327 N 
HETATM   16  C12 UNL     1      29.412   6.143  47.843  1.00  0.00     0.245 C 
HETATM   17  O1  UNL     1      28.730   7.024  47.274  1.00  0.00    -0.268 OA
HETATM   18  H12 UNL     1      29.245   4.554  49.055  1.00  0.00     0.169 HD
BRANCH  16  19
HETATM   19  C13 UNL     1      30.855   6.069  47.711  1.00  0.00     0.072 C 
HETATM   20  C14 UNL     1      31.586   5.031  48.061  1.00  0.00     0.008 C 
BRANCH  20  21
HETATM   21  C15 UNL     1      33.044   4.955  47.929  1.00  0.00     0.299 C 
BRANCH  21  22
HETATM   22  N3  UNL     1      33.451   3.569  47.765  1.00  0.00     0.083 N 
HETATM   23  C16 UNL     1      32.656   2.912  46.734  1.00  0.00     0.309 C 
HETATM   24  C17 UNL     1      34.867   3.457  47.441  1.00  0.00     0.309 C 
ENDBRANCH  21  22
ENDBRANCH  20  21
ENDBRANCH  16  19
ENDBRANCH   2  15
TORSDOF 9
ENDMDL
MODEL 3
REMARK VINA RESULT:      -6.2      3.059      8.135
REMARK  9 active torsions:
REMARK  status: ('A' for Active; 'I' for Inactive)
REMARK    1  A    between atoms: C2_2  and  C3_3 
REMARK    2  A    between atoms: C2_2  and  N2_14 
REMARK    3  A    between atoms: C3_3  and  C4_4 
REMARK    4  A    between atoms: C4_4  and  C5_5 
REMARK    5  A    between atoms: C5_5  and  N1_6 
REMARK    6  A    between atoms: N1_6  and  C6_7 
REMARK       I    between atoms: N2_14  and  C12_15 
REMARK    7  A    between atoms: C12_15  and  C13_17 
REMARK    8  A    between atoms: C14_18  and  C15_19 
REMARK    9  A    between atoms: C15_19  and  N3_20 
ROOT
HETATM    1  C1  UNL     1      25.569   5.564  49.368  1.00  0.00     0.063 C 
HETATM    2  C2  UNL     1      26.605   4.763  49.552  1.00  0.00     0.012 C 
ENDROOT
BRANCH   2   3
HETATM    3  C3  UNL     1      27.582   5.192  48.599  1.00  0.00     0.022 C 
BRANCH   3   4
HETATM    4  C4  UNL     1      28.480   6.009  48.145  1.00  0.00    -0.005 C 
BRANCH   4   5
HETATM    5  C5  UNL     1      29.570   6.995  48.083  1.00  0.00     0.147 C 
BRANCH   5   6
HETATM    6  N1  UNL     1      30.607   6.588  49.006  1.00  0.00    -0.386 N 
HETATM    7  H7  UNL     1      30.507   6.793  50.039  1.00  0.00     0.160 HD
BRANCH   6   8
HETATM    8  C6  UNL     1      31.799   5.910  48.642  1.00  0.00     0.029 A 
HETATM    9  C7  UNL     1      33.058   6.436  48.809  1.00  0.00     0.029 A 
HETATM   10  C8  UNL     1      34.222   5.801  48.470  1.00  0.00     0.004 A 
HETATM   11  C9  UNL     1      34.174   4.547  47.920  1.00  0.00     0.019 A 
HETATM   12  C10 UNL     1      32.944   3.964  47.724  1.00  0.00     0.013 A 
HETATM   13 BR1  UNL     1      32.904   2.208  46.952  1.00  0.00    -0.051 Br
HETATM   14  C11 UNL     1      31.802   4.643  48.082  1.00  0.00     0.048 A 
ENDBRANCH   6   8
ENDBRANCH   5   6
ENDBRANCH   4   5
ENDBRANCH   3   4
ENDBRANCH   2   3
BRANCH   2  15
HETATM   15  N2  UNL     1      26.550   3.753  50.529  1.00  0.00    -0.327 N 
HETATM   16  C12 UNL     1      25.697   2.728  51.003  1.00  0.00     0.245 C 
HETATM   17  O1  UNL     1      24.628   2.682  50.355  1.00  0.00    -0.268 OA
HETATM   18  H12 UNL     1      27.431   3.730  51.119  1.00  0.00     0.169 HD
BRANCH  16  19
HETATM   19  C13 UNL     1      25.985   1.822  52.099  1.00  0.00     0.072 C 
HETATM   20  C14 UNL     1      26.798   0.789  52.021  1.00  0.00     0.008 C 
BRANCH  20  21
HETATM   21  C15 UNL     1      27.090  -0.128  53.128  1.00  0.00     0.299 C 
BRANCH  21  22
HETATM   22  N3  UNL     1      28.508  -0.083  53.442  1.00  0.00     0.083 N 
HETATM   23  C16 UNL     1      28.726   0.421  54.793  1.00  0.00     0.309 C 
HETATM   24  C17 UNL     1      29.135  -1.390  53.296  1.00  0.00     0.309 C 
ENDBRANCH  21  22
ENDBRANCH  20  21
ENDBRANCH  16  19
ENDBRANCH   2  15
TORSDOF 9
ENDMDL
MODEL 4
REMARK VINA RESULT:      -6.1      3.399      9.198
REMARK  9 active torsions:
REMARK  status: ('A' for Active; 'I' for Inactive)
REMARK    1  A    between atoms: C2_2  and  C3_3 
REMARK    2  A    between atoms: C2_2  and  N2_14 
REMARK    3  A    between atoms: C3_3  and  C4_4 
REMARK    4  A    between atoms: C4_4  and  C5_5 
REMARK    5  A    between atoms: C5_5  and  N1_6 
REMARK    6  A    between atoms: N1_6  and  C6_7 
REMARK       I    between atoms: N2_14  and  C12_15 
REMARK    7  A    between atoms: C12_15  and  C13_17 
REMARK    8  A    between atoms: C14_18  and  C15_19 
REMARK    9  A    between atoms: C15_19  and  N3_20 
ROOT
HETATM    1  C1  UNL     1      24.875   4.663  49.592  1.00  0.00     0.063 C 
HETATM    2  C2  UNL     1      25.851   3.784  49.750  1.00  0.00     0.012 C 
ENDROOT
BRANCH   2   3
HETATM    3  C3  UNL     1      26.927   4.272  48.943  1.00  0.00     0.022 C 
BRANCH   3   4
HETATM    4  C4  UNL     1      27.934   5.052  48.698  1.00  0.00    -0.005 C 
BRANCH   4   5
HETATM    5  C5  UNL     1      28.753   6.153  48.171  1.00  0.00     0.147 C 
BRANCH   5   6
HETATM    6  N1  UNL     1      30.000   6.187  48.904  1.00  0.00    -0.386 N 
HETATM    7  H7  UNL     1      30.005   6.465  49.925  1.00  0.00     0.160 HD
BRANCH   6   8
HETATM    8  C6  UNL     1      31.272   5.871  48.361  1.00  0.00     0.029 A 
HETATM    9  C7  UNL     1      31.519   4.757  47.594  1.00  0.00     0.029 A 
HETATM   10  C8  UNL     1      32.734   4.432  47.056  1.00  0.00     0.004 A 
HETATM   11  C9  UNL     1      33.812   5.250  47.274  1.00  0.00     0.019 A 
HETATM   12  C10 UNL     1      33.632   6.382  48.035  1.00  0.00     0.013 A 
HETATM   13 BR1  UNL     1      35.156   7.510  48.325  1.00  0.00    -0.051 Br
HETATM   14  C11 UNL     1      32.390   6.665  48.553  1.00  0.00     0.048 A 
ENDBRANCH   6   8
ENDBRANCH   5   6
ENDBRANCH   4   5
ENDBRANCH   3   4
ENDBRANCH   2   3
BRANCH   2  15
HETATM   15  N2  UNL     1      25.663   2.662  50.577  1.00  0.00    -0.327 N 
HETATM   16  C12 UNL     1      26.318   1.919  51.586  1.00  0.00     0.245 C 
HETATM   17  O1  UNL     1      27.443   2.396  51.852  1.00  0.00    -0.268 OA
HETATM   18  H12 UNL     1      24.721   2.205  50.407  1.00  0.00     0.169 HD
BRANCH  16  19
HETATM   19  C13 UNL     1      25.790   0.746  52.257  1.00  0.00     0.072 C 
HETATM   20  C14 UNL     1      24.622   0.692  52.863  1.00  0.00     0.008 C 
BRANCH  20  21
HETATM   21  C15 UNL     1      24.087  -0.493  53.541  1.00  0.00     0.299 C 
BRANCH  21  22
HETATM   22  N3  UNL     1      22.651  -0.572  53.332  1.00  0.00     0.083 N 
HETATM   23  C16 UNL     1      22.030  -1.454  54.312  1.00  0.00     0.309 C 
HETATM   24  C17 UNL     1      22.026   0.744  53.387  1.00  0.00     0.309 C 
ENDBRANCH  21  22
ENDBRANCH  20  21
ENDBRANCH  16  19
ENDBRANCH   2  15
TORSDOF 9
ENDMDL
MODEL 5
REMARK VINA RESULT:      -6.1      3.433      5.861
REMARK  9 active torsions:
REMARK  status: ('A' for Active; 'I' for Inactive)
REMARK    1  A    between atoms: C2_2  and  C3_3 
REMARK    2  A    between atoms: C2_2  and  N2_14 
REMARK    3  A    between atoms: C3_3  and  C4_4 
REMARK    4  A    between atoms: C4_4  and  C5_5 
REMARK    5  A    between atoms: C5_5  and  N1_6 
REMARK    6  A    between atoms: N1_6  and  C6_7 
REMARK       I    between atoms: N2_14  and  C12_15 
REMARK    7  A    between atoms: C12_15  and  C13_17 
REMARK    8  A    between atoms: C14_18  and  C15_19 
REMARK    9  A    between atoms: C15_19  and  N3_20 
ROOT
HETATM    1  C1  UNL     1      27.762   5.382  48.500  1.00  0.00     0.063 C 
HETATM    2  C2  UNL     1      26.752   5.023  49.276  1.00  0.00     0.012 C 
ENDROOT
BRANCH   2   3
HETATM    3  C3  UNL     1      25.662   5.862  48.880  1.00  0.00     0.022 C 
BRANCH   3   4
HETATM    4  C4  UNL     1      24.420   6.090  48.586  1.00  0.00    -0.005 C 
BRANCH   4   5
HETATM    5  C5  UNL     1      22.953   6.153  48.666  1.00  0.00     0.147 C 
BRANCH   5   6
HETATM    6  N1  UNL     1      22.568   6.068  50.058  1.00  0.00    -0.386 N 
HETATM    7  H7  UNL     1      22.131   6.904  50.538  1.00  0.00     0.160 HD
BRANCH   6   8
HETATM    8  C6  UNL     1      22.727   4.921  50.878  1.00  0.00     0.029 A 
HETATM    9  C7  UNL     1      23.501   4.895  52.014  1.00  0.00     0.029 A 
HETATM   10  C8  UNL     1      23.666   3.804  52.822  1.00  0.00     0.004 A 
HETATM   11  C9  UNL     1      23.032   2.630  52.513  1.00  0.00     0.019 A 
HETATM   12  C10 UNL     1      22.243   2.588  51.387  1.00  0.00     0.013 A 
HETATM   13 BR1  UNL     1      21.366   0.932  50.976  1.00  0.00    -0.051 Br
HETATM   14  C11 UNL     1      22.107   3.713  50.607  1.00  0.00     0.048 A 
ENDBRANCH   6   8
ENDBRANCH   5   6
ENDBRANCH   4   5
ENDBRANCH   3   4
ENDBRANCH   2   3
BRANCH   2  15
HETATM   15  N2  UNL     1      26.926   4.011  50.236  1.00  0.00    -0.327 N 
HETATM   16  C12 UNL     1      26.344   2.797  50.671  1.00  0.00     0.245 C 
HETATM   17  O1  UNL     1      25.335   2.501  49.992  1.00  0.00    -0.268 OA
HETATM   18  H12 UNL     1      27.771   4.195  50.850  1.00  0.00     0.169 HD
BRANCH  16  19
HETATM   19  C13 UNL     1      26.822   1.967  51.760  1.00  0.00     0.072 C 
HETATM   20  C14 UNL     1      26.813   0.651  51.758  1.00  0.00     0.008 C 
BRANCH  20  21
HETATM   21  C15 UNL     1      27.296  -0.189  52.858  1.00  0.00     0.299 C 
BRANCH  21  22
HETATM   22  N3  UNL     1      27.329   0.584  54.088  1.00  0.00     0.083 N 
HETATM   23  C16 UNL     1      26.335   0.096  55.037  1.00  0.00     0.309 C 
HETATM   24  C17 UNL     1      28.650   0.561  54.704  1.00  0.00     0.309 C 
ENDBRANCH  21  22
ENDBRANCH  20  21
ENDBRANCH  16  19
ENDBRANCH   2  15
TORSDOF 9
ENDMDL
MODEL 6
REMARK VINA RESULT:      -6.1      3.018      9.162
REMARK  9 active torsions:
REMARK  status: ('A' for Active; 'I' for Inactive)
REMARK    1  A    between atoms: C2_2  and  C3_3 
REMARK    2  A    between atoms: C2_2  and  N2_14 
REMARK    3  A    between atoms: C3_3  and  C4_4 
REMARK    4  A    between atoms: C4_4  and  C5_5 
REMARK    5  A    between atoms: C5_5  and  N1_6 
REMARK    6  A    between atoms: N1_6  and  C6_7 
REMARK       I    between atoms: N2_14  and  C12_15 
REMARK    7  A    between atoms: C12_15  and  C13_17 
REMARK    8  A    between atoms: C14_18  and  C15_19 
REMARK    9  A    between atoms: C15_19  and  N3_20 
ROOT
HETATM    1  C1  UNL     1      25.171   5.608  49.427  1.00  0.00     0.063 C 
HETATM    2  C2  UNL     1      25.943   4.599  49.798  1.00  0.00     0.012 C 
ENDROOT
BRANCH   2   3
HETATM    3  C3  UNL     1      27.101   4.690  48.963  1.00  0.00     0.022 C 
BRANCH   3   4
HETATM    4  C4  UNL     1      28.114   5.312  48.446  1.00  0.00    -0.005 C 
BRANCH   4   5
HETATM    5  C5  UNL     1      29.145   6.328  48.184  1.00  0.00     0.147 C 
BRANCH   5   6
HETATM    6  N1  UNL     1      30.210   6.159  49.149  1.00  0.00    -0.386 N 
HETATM    7  H7  UNL     1      29.978   5.980  50.166  1.00  0.00     0.160 HD
BRANCH   6   8
HETATM    8  C6  UNL     1      31.595   6.211  48.850  1.00  0.00     0.029 A 
HETATM    9  C7  UNL     1      32.341   7.365  48.885  1.00  0.00     0.029 A 
HETATM   10  C8  UNL     1      33.678   7.441  48.604  1.00  0.00     0.004 A 
HETATM   11  C9  UNL     1      34.363   6.306  48.258  1.00  0.00     0.019 A 
HETATM   12  C10 UNL     1      33.674   5.117  48.203  1.00  0.00     0.013 A 
HETATM   13 BR1  UNL     1      34.656   3.542  47.715  1.00  0.00    -0.051 Br
HETATM   14  C11 UNL     1      32.330   5.092  48.494  1.00  0.00     0.048 A 
ENDBRANCH   6   8
ENDBRANCH   5   6
ENDBRANCH   4   5
ENDBRANCH   3   4
ENDBRANCH   2   3
BRANCH   2  15
HETATM   15  N2  UNL     1      25.522   3.726  50.816  1.00  0.00    -0.327 N 
HETATM   16  C12 UNL     1      25.975   2.621  51.574  1.00  0.00     0.245 C 
HETATM   17  O1  UNL     1      27.136   2.286  51.250  1.00  0.00    -0.268 OA
HETATM   18  H12 UNL     1      24.539   3.953  51.145  1.00  0.00     0.169 HD
BRANCH  16  19
HETATM   19  C13 UNL     1      25.224   1.931  52.605  1.00  0.00     0.072 C 
HETATM   20  C14 UNL     1      24.284   1.038  52.377  1.00  0.00     0.008 C 
BRANCH  20  21
HETATM   21  C15 UNL     1      23.524   0.340  53.419  1.00  0.00     0.299 C 
BRANCH  21  22
HETATM   22  N3  UNL     1      22.296  -0.196  52.855  1.00  0.00     0.083 N 
HETATM   23  C16 UNL     1      21.237  -0.234  53.857  1.00  0.00     0.309 C 
HETATM   24  C17 UNL     1      21.854   0.571  51.698  1.00  0.00     0.309 C 
ENDBRANCH  21  22
ENDBRANCH  20  21
ENDBRANCH  16  19
ENDBRANCH   2  15
TORSDOF 9
ENDMDL
MODEL 7
REMARK VINA RESULT:      -6.1      2.189      2.850
REMARK  9 active torsions:
REMARK  status: ('A' for Active; 'I' for Inactive)
REMARK    1  A    between atoms: C2_2  and  C3_3 
REMARK    2  A    between atoms: C2_2  and  N2_14 
REMARK    3  A    between atoms: C3_3  and  C4_4 
REMARK    4  A    between atoms: C4_4  and  C5_5 
REMARK    5  A    between atoms: C5_5  and  N1_6 
REMARK    6  A    between atoms: N1_6  and  C6_7 
REMARK       I    between atoms: N2_14  and  C12_15 
REMARK    7  A    between atoms: C12_15  and  C13_17 
REMARK    8  A    between atoms: C14_18  and  C15_19 
REMARK    9  A    between atoms: C15_19  and  N3_20 
ROOT
HETATM    1  C1  UNL     1      25.726   6.644  48.366  1.00  0.00     0.063 C 
HETATM    2  C2  UNL     1      26.772   5.969  48.817  1.00  0.00     0.012 C 
ENDROOT
BRANCH   2   3
HETATM    3  C3  UNL     1      26.237   4.737  49.309  1.00  0.00     0.022 C 
BRANCH   3   4
HETATM    4  C4  UNL     1      26.313   3.611  49.945  1.00  0.00    -0.005 C 
BRANCH   4   5
HETATM    5  C5  UNL     1      26.616   2.603  50.973  1.00  0.00     0.147 C 
BRANCH   5   6
HETATM    6  N1  UNL     1      25.700   2.786  52.077  1.00  0.00    -0.386 N 
HETATM    7  H7  UNL     1      25.652   3.718  52.577  1.00  0.00     0.160 HD
BRANCH   6   8
HETATM    8  C6  UNL     1      24.819   1.792  52.576  1.00  0.00     0.029 A 
HETATM    9  C7  UNL     1      25.240   0.605  53.126  1.00  0.00     0.029 A 
HETATM   10  C8  UNL     1      24.412  -0.367  53.617  1.00  0.00     0.004 A 
HETATM   11  C9  UNL     1      23.055  -0.184  53.578  1.00  0.00     0.019 A 
HETATM   12  C10 UNL     1      22.567   0.984  53.039  1.00  0.00     0.013 A 
HETATM   13 BR1  UNL     1      20.663   1.216  52.995  1.00  0.00    -0.051 Br
HETATM   14  C11 UNL     1      23.441   1.931  52.558  1.00  0.00     0.048 A 
ENDBRANCH   6   8
ENDBRANCH   5   6
ENDBRANCH   4   5
ENDBRANCH   3   4
ENDBRANCH   2   3
BRANCH   2  15
HETATM   15  N2  UNL     1      28.058   6.533  48.744  1.00  0.00    -0.327 N 
HETATM   16  C12 UNL     1      29.390   6.191  48.413  1.00  0.00     0.245 C 
HETATM   17  O1  UNL     1      29.485   4.992  48.066  1.00  0.00    -0.268 OA
HETATM   18  H12 UNL     1      28.054   7.556  49.023  1.00  0.00     0.169 HD
BRANCH  16  19
HETATM   19  C13 UNL     1      30.533   7.083  48.455  1.00  0.00     0.072 C 
HETATM   20  C14 UNL     1      31.734   6.743  48.874  1.00  0.00     0.008 C 
BRANCH  20  21
HETATM   21  C15 UNL     1      32.890   7.644  48.917  1.00  0.00     0.299 C 
BRANCH  21  22
HETATM   22  N3  UNL     1      34.000   7.054  48.187  1.00  0.00     0.083 N 
HETATM   23  C16 UNL     1      35.183   7.904  48.264  1.00  0.00     0.309 C 
HETATM   24  C17 UNL     1      34.319   5.720  48.678  1.00  0.00     0.309 C 
ENDBRANCH  21  22
ENDBRANCH  20  21
ENDBRANCH  16  19
ENDBRANCH   2  15
TORSDOF 9
ENDMDL
MODEL 8
REMARK VINA RESULT:      -6.0      3.653      8.330
REMARK  9 active torsions:
REMARK  status: ('A' for Active; 'I' for Inactive)
REMARK    1  A    between atoms: C2_2  and  C3_3 
REMARK    2  A    between atoms: C2_2  and  N2_14 
REMARK    3  A    between atoms: C3_3  and  C4_4 
REMARK    4  A    between atoms: C4_4  and  C5_5 
REMARK    5  A    between atoms: C5_5  and  N1_6 
REMARK    6  A    between atoms: N1_6  and  C6_7 
REMARK       I    between atoms: N2_14  and  C12_15 
REMARK    7  A    between atoms: C12_15  and  C13_17 
REMARK    8  A    between atoms: C14_18  and  C15_19 
REMARK    9  A    between atoms: C15_19  and  N3_20 
ROOT
HETATM    1  C1  UNL     1      24.688   4.909  50.286  1.00  0.00     0.063 C 
HETATM    2  C2  UNL     1      25.749   4.123  50.353  1.00  0.00     0.012 C 
ENDROOT
BRANCH   2   3
HETATM    3  C3  UNL     1      26.546   4.473  49.218  1.00  0.00     0.022 C 
BRANCH   3   4
HETATM    4  C4  UNL     1      27.503   5.115  48.625  1.00  0.00    -0.005 C 
BRANCH   4   5
HETATM    5  C5  UNL     1      28.450   6.174  48.245  1.00  0.00     0.147 C 
BRANCH   5   6
HETATM    6  N1  UNL     1      29.722   5.898  48.876  1.00  0.00    -0.386 N 
HETATM    7  H7  UNL     1      29.765   5.698  49.915  1.00  0.00     0.160 HD
BRANCH   6   8
HETATM    8  C6  UNL     1      30.973   5.868  48.208  1.00  0.00     0.029 A 
HETATM    9  C7  UNL     1      31.443   4.777  47.515  1.00  0.00     0.029 A 
HETATM   10  C8  UNL     1      32.642   4.724  46.860  1.00  0.00     0.004 A 
HETATM   11  C9  UNL     1      33.468   5.817  46.868  1.00  0.00     0.019 A 
HETATM   12  C10 UNL     1      33.057   6.943  47.545  1.00  0.00     0.013 A 
HETATM   13 BR1  UNL     1      34.231   8.460  47.543  1.00  0.00    -0.051 Br
HETATM   14  C11 UNL     1      31.841   6.946  48.189  1.00  0.00     0.048 A 
ENDBRANCH   6   8
ENDBRANCH   5   6
ENDBRANCH   4   5
ENDBRANCH   3   4
ENDBRANCH   2   3
BRANCH   2  15
HETATM   15  N2  UNL     1      25.872   3.194  51.402  1.00  0.00    -0.327 N 
HETATM   16  C12 UNL     1      25.263   2.022  51.909  1.00  0.00     0.245 C 
HETATM   17  O1  UNL     1      24.286   1.672  51.211  1.00  0.00    -0.268 OA
HETATM   18  H12 UNL     1      26.689   3.426  52.038  1.00  0.00     0.169 HD
BRANCH  16  19
HETATM   19  C13 UNL     1      25.685   1.285  53.085  1.00  0.00     0.072 C 
HETATM   20  C14 UNL     1      26.880   0.760  53.251  1.00  0.00     0.008 C 
BRANCH  20  21
HETATM   21  C15 UNL     1      27.308   0.015  54.440  1.00  0.00     0.299 C 
BRANCH  21  22
HETATM   22  N3  UNL     1      28.728   0.224  54.666  1.00  0.00     0.083 N 
HETATM   23  C16 UNL     1      29.524  -0.706  53.874  1.00  0.00     0.309 C 
HETATM   24  C17 UNL     1      29.126   1.593  54.364  1.00  0.00     0.309 C 
ENDBRANCH  21  22
ENDBRANCH  20  21
ENDBRANCH  16  19
ENDBRANCH   2  15
TORSDOF 9
ENDMDL
MODEL 9
REMARK VINA RESULT:      -5.8      3.950      6.353
REMARK  9 active torsions:
REMARK  status: ('A' for Active; 'I' for Inactive)
REMARK    1  A    between atoms: C2_2  and  C3_3 
REMARK    2  A    between atoms: C2_2  and  N2_14 
REMARK    3  A    between atoms: C3_3  and  C4_4 
REMARK    4  A    between atoms: C4_4  and  C5_5 
REMARK    5  A    between atoms: C5_5  and  N1_6 
REMARK    6  A    between atoms: N1_6  and  C6_7 
REMARK       I    between atoms: N2_14  and  C12_15 
REMARK    7  A    between atoms: C12_15  and  C13_17 
REMARK    8  A    between atoms: C14_18  and  C15_19 
REMARK    9  A    between atoms: C15_19  and  N3_20 
ROOT
HETATM    1  C1  UNL     1      27.421   5.132  48.651  1.00  0.00     0.063 C 
HETATM    2  C2  UNL     1      26.466   4.594  49.392  1.00  0.00     0.012 C 
ENDROOT
BRANCH   2   3
HETATM    3  C3  UNL     1      25.270   5.286  49.020  1.00  0.00     0.022 C 
BRANCH   3   4
HETATM    4  C4  UNL     1      24.001   5.358  48.769  1.00  0.00    -0.005 C 
BRANCH   4   5
HETATM    5  C5  UNL     1      22.716   5.723  48.152  1.00  0.00     0.147 C 
BRANCH   5   6
HETATM    6  N1  UNL     1      22.123   4.528  47.591  1.00  0.00    -0.386 N 
HETATM    7  H7  UNL     1      21.950   4.463  46.549  1.00  0.00     0.160 HD
BRANCH   6   8
HETATM    8  C6  UNL     1      21.735   3.386  48.336  1.00  0.00     0.029 A 
HETATM    9  C7  UNL     1      22.028   2.095  47.964  1.00  0.00     0.029 A 
HETATM   10  C8  UNL     1      21.668   0.978  48.667  1.00  0.00     0.004 A 
HETATM   11  C9  UNL     1      20.963   1.109  49.834  1.00  0.00     0.019 A 
HETATM   12  C10 UNL     1      20.636   2.375  50.263  1.00  0.00     0.013 A 
HETATM   13 BR1  UNL     1      19.648   2.533  51.899  1.00  0.00    -0.051 Br
HETATM   14  C11 UNL     1      21.021   3.467  49.520  1.00  0.00     0.048 A 
ENDBRANCH   6   8
ENDBRANCH   5   6
ENDBRANCH   4   5
ENDBRANCH   3   4
ENDBRANCH   2   3
BRANCH   2  15
HETATM   15  N2  UNL     1      26.775   3.570  50.305  1.00  0.00    -0.327 N 
HETATM   16  C12 UNL     1      26.161   2.517  51.024  1.00  0.00     0.245 C 
HETATM   17  O1  UNL     1      24.934   2.453  50.790  1.00  0.00    -0.268 OA
HETATM   18  H12 UNL     1      27.806   3.561  50.549  1.00  0.00     0.169 HD
BRANCH  16  19
HETATM   19  C13 UNL     1      26.831   1.603  51.930  1.00  0.00     0.072 C 
HETATM   20  C14 UNL     1      26.649   0.300  51.949  1.00  0.00     0.008 C 
BRANCH  20  21
HETATM   21  C15 UNL     1      27.325  -0.625  52.864  1.00  0.00     0.299 C 
BRANCH  21  22
HETATM   22  N3  UNL     1      28.424   0.057  53.528  1.00  0.00     0.083 N 
HETATM   23  C16 UNL     1      28.134   0.258  54.943  1.00  0.00     0.309 C 
HETATM   24  C17 UNL     1      29.678  -0.671  53.380  1.00  0.00     0.309 C 
ENDBRANCH  21  22
ENDBRANCH  20  21
ENDBRANCH  16  19
ENDBRANCH   2  15
TORSDOF 9
ENDMDL
