MODEL 1
REMARK VINA RESULT:      -7.9      0.000      0.000
REMARK  4 active torsions:
REMARK  status: ('A' for Active; 'I' for Inactive)
REMARK    1  A    between atoms: C2_2  and  C3_3 
REMARK    2  A    between atoms: C6_6  and  N1_7 
REMARK    3  A    between atoms: C17_26  and  C18_27 
REMARK    4  A    between atoms: C18_27  and  O3_28 
ROOT
HETATM    1  C3  UNL     1      26.712   6.959  48.701  1.00  0.00    -0.012 C 
HETATM    2  C4  UNL     1      26.074   6.117  49.490  1.00  0.00    -0.035 C 
HETATM    3  C5  UNL     1      26.810   4.847  49.484  1.00  0.00     0.032 C 
HETATM    4  C6  UNL     1      26.730   3.686  50.027  1.00  0.00     0.004 C 
HETATM    5  C7  UNL     1      26.575   2.422  50.692  1.00  0.00     0.020 C 
HETATM    6  C8  UNL     1      26.075   1.647  51.558  1.00  0.00     0.177 C 
HETATM    7  S1  UNL     1      25.112   1.001  52.909  1.00  0.00     0.238 S 
HETATM    8  O1  UNL     1      25.048  -0.513  52.632  1.00  0.00    -0.205 OA
HETATM    9  O2  UNL     1      25.804   1.223  54.219  1.00  0.00    -0.205 OA
HETATM   10  N2  UNL     1      23.542   1.575  52.931  1.00  0.00    -0.305 N 
HETATM   11  C9  UNL     1      23.388   2.992  53.008  1.00  0.00     0.140 C 
HETATM   12  C10 UNL     1      22.859   3.677  51.842  1.00  0.00     0.061 C 
HETATM   13  C11 UNL     1      22.636   2.890  50.610  1.00  0.00    -0.025 A 
HETATM   14  C12 UNL     1      22.219   1.459  50.914  1.00  0.00     0.011 A 
HETATM   15  S2  UNL     1      21.556   1.021  49.240  1.00  0.00    -0.072 SA
HETATM   16  C13 UNL     1      21.919   2.679  48.422  1.00  0.00     0.114 A 
HETATM   17  N3  UNL     1      21.632   2.848  47.163  1.00  0.00    -0.234 NA
HETATM   18  C14 UNL     1      21.959   4.039  46.621  1.00  0.00     0.236 A 
HETATM   19  N4  UNL     1      22.543   4.838  47.497  1.00  0.00    -0.224 NA
HETATM   20  C15 UNL     1      22.819   4.612  48.794  1.00  0.00     0.139 A 
HETATM   21  C16 UNL     1      22.512   3.467  49.435  1.00  0.00     0.053 A 
HETATM   22  N5  UNL     1      23.782   5.542  49.421  1.00  0.00    -0.363 N 
HETATM   23  C17 UNL     1      24.717   6.482  50.064  1.00  0.00     0.139 C 
HETATM   24  C19 UNL     1      22.504   0.937  52.197  1.00  0.00     0.181 C 
HETATM   25  H15 UNL     1      24.472   5.172  48.761  1.00  0.00     0.162 HD
ENDROOT
BRANCH   1  26
HETATM   26  C2  UNL     1      27.845   6.247  48.207  1.00  0.00     0.016 C 
HETATM   27  C1  UNL     1      29.029   5.954  47.849  1.00  0.00     0.010 C 
ENDBRANCH   1  26
BRANCH  23  28
HETATM   28  C18 UNL     1      24.311   7.879  49.579  1.00  0.00     0.194 C 
BRANCH  28  29
HETATM   29  O3  UNL     1      23.065   8.264  49.990  1.00  0.00    -0.399 OA
HETATM   30  H19 UNL     1      23.040   9.268  50.019  1.00  0.00     0.209 HD
ENDBRANCH  28  29
ENDBRANCH  23  28
BRANCH   4  31
HETATM   31  N1  UNL     1      25.632   4.170  50.680  1.00  0.00    -0.303 NA
HETATM   32  H6  UNL     1      24.739   3.641  50.973  1.00  0.00     0.124 HD
HETATM   33  H7  UNL     1      24.814   3.504  50.904  1.00  0.00     0.124 HD
ENDBRANCH   4  31
TORSDOF 4
ENDMDL
MODEL 2
REMARK VINA RESULT:      -7.7      2.969      4.232
REMARK  4 active torsions:
REMARK  status: ('A' for Active; 'I' for Inactive)
REMARK    1  A    between atoms: C2_2  and  C3_3 
REMARK    2  A    between atoms: C6_6  and  N1_7 
REMARK    3  A    between atoms: C17_26  and  C18_27 
REMARK    4  A    between atoms: C18_27  and  O3_28 
ROOT
HETATM    1  C3  UNL     1      29.996   7.859  47.972  1.00  0.00    -0.012 C 
HETATM    2  C4  UNL     1      28.854   7.489  48.517  1.00  0.00    -0.035 C 
HETATM    3  C5  UNL     1      28.715   6.040  48.333  1.00  0.00     0.032 C 
HETATM    4  C6  UNL     1      27.883   5.107  48.630  1.00  0.00     0.004 C 
HETATM    5  C7  UNL     1      26.909   4.125  49.017  1.00  0.00     0.020 C 
HETATM    6  C8  UNL     1      25.900   3.719  49.664  1.00  0.00     0.177 C 
HETATM    7  S1  UNL     1      24.503   3.642  50.765  1.00  0.00     0.238 S 
HETATM    8  O1  UNL     1      23.639   2.502  50.193  1.00  0.00    -0.205 OA
HETATM    9  O2  UNL     1      24.931   3.273  52.153  1.00  0.00    -0.205 OA
HETATM   10  N2  UNL     1      23.576   5.032  50.749  1.00  0.00    -0.305 N 
HETATM   11  C9  UNL     1      24.250   6.245  51.086  1.00  0.00     0.140 C 
HETATM   12  C10 UNL     1      24.443   7.224  50.031  1.00  0.00     0.061 C 
HETATM   13  C11 UNL     1      24.051   6.854  48.654  1.00  0.00    -0.025 A 
HETATM   14  C12 UNL     1      22.842   5.932  48.632  1.00  0.00     0.011 A 
HETATM   15  S2  UNL     1      22.384   6.148  46.850  1.00  0.00    -0.072 SA
HETATM   16  C13 UNL     1      23.779   7.335  46.409  1.00  0.00     0.114 A 
HETATM   17  N3  UNL     1      23.889   7.768  45.186  1.00  0.00    -0.234 NA
HETATM   18  C14 UNL     1      24.935   8.576  44.920  1.00  0.00     0.236 A 
HETATM   19  N4  UNL     1      25.689   8.777  45.986  1.00  0.00    -0.224 NA
HETATM   20  C15 UNL     1      25.531   8.301  47.235  1.00  0.00     0.139 A 
HETATM   21  C16 UNL     1      24.508   7.507  47.608  1.00  0.00     0.053 A 
HETATM   22  N5  UNL     1      26.711   8.405  48.120  1.00  0.00    -0.363 N 
HETATM   23  C17 UNL     1      27.870   8.531  49.019  1.00  0.00     0.139 C 
HETATM   24  C19 UNL     1      22.525   5.217  49.810  1.00  0.00     0.181 C 
HETATM   25  H15 UNL     1      27.176   7.765  47.469  1.00  0.00     0.162 HD
ENDROOT
BRANCH   1  26
HETATM   26  C2  UNL     1      30.587   6.667  47.458  1.00  0.00     0.016 C 
HETATM   27  C1  UNL     1      31.437   5.825  47.030  1.00  0.00     0.010 C 
ENDBRANCH   1  26
BRANCH  23  28
HETATM   28  C18 UNL     1      28.440   9.934  48.780  1.00  0.00     0.194 C 
BRANCH  28  29
HETATM   29  O3  UNL     1      28.019  10.862  49.693  1.00  0.00    -0.399 OA
HETATM   30  H19 UNL     1      28.024  11.764  49.250  1.00  0.00     0.209 HD
ENDBRANCH  28  29
ENDBRANCH  23  28
BRANCH   4  31
HETATM   31  N1  UNL     1      27.159   6.081  49.257  1.00  0.00    -0.303 NA
HETATM   32  H6  UNL     1      26.416   5.972  50.031  1.00  0.00     0.124 HD
HETATM   33  H7  UNL     1      26.449   5.805  50.019  1.00  0.00     0.124 HD
ENDBRANCH   4  31
TORSDOF 4
ENDMDL
MODEL 3
REMARK VINA RESULT:      -7.4      1.736      2.056
REMARK  4 active torsions:
REMARK  status: ('A' for Active; 'I' for Inactive)
REMARK    1  A    between atoms: C2_2  and  C3_3 
REMARK    2  A    between atoms: C6_6  and  N1_7 
REMARK    3  A    between atoms: C17_26  and  C18_27 
REMARK    4  A    between atoms: C18_27  and  O3_28 
ROOT
HETATM    1  C3  UNL     1      28.044   7.497  48.279  1.00  0.00    -0.012 C 
HETATM    2  C4  UNL     1      27.125   6.894  49.007  1.00  0.00    -0.035 C 
HETATM    3  C5  UNL     1      27.383   5.451  48.953  1.00  0.00     0.032 C 
HETATM    4  C6  UNL     1      26.890   4.365  49.433  1.00  0.00     0.004 C 
HETATM    5  C7  UNL     1      26.286   3.205  50.027  1.00  0.00     0.020 C 
HETATM    6  C8  UNL     1      25.516   2.615  50.839  1.00  0.00     0.177 C 
HETATM    7  S1  UNL     1      24.337   2.285  52.132  1.00  0.00     0.238 S 
HETATM    8  O1  UNL     1      23.771   0.897  51.775  1.00  0.00    -0.205 OA
HETATM    9  O2  UNL     1      25.009   2.202  53.468  1.00  0.00    -0.205 OA
HETATM   10  N2  UNL     1      23.058   3.360  52.145  1.00  0.00    -0.305 N 
HETATM   11  C9  UNL     1      23.394   4.740  52.292  1.00  0.00     0.140 C 
HETATM   12  C10 UNL     1      23.178   5.611  51.151  1.00  0.00     0.061 C 
HETATM   13  C11 UNL     1      22.749   4.999  49.874  1.00  0.00    -0.025 A 
HETATM   14  C12 UNL     1      21.857   3.787  50.093  1.00  0.00     0.011 A 
HETATM   15  S2  UNL     1      21.153   3.671  48.384  1.00  0.00    -0.072 SA
HETATM   16  C13 UNL     1      22.093   5.136  47.662  1.00  0.00     0.114 A 
HETATM   17  N3  UNL     1      21.932   5.444  46.407  1.00  0.00    -0.234 NA
HETATM   18  C14 UNL     1      22.668   6.471  45.936  1.00  0.00     0.236 A 
HETATM   19  N4  UNL     1      23.453   6.985  46.865  1.00  0.00    -0.224 NA
HETATM   20  C15 UNL     1      23.583   6.626  48.155  1.00  0.00     0.139 A 
HETATM   21  C16 UNL     1      22.878   5.631  48.729  1.00  0.00     0.053 A 
HETATM   22  N5  UNL     1      24.779   7.144  48.853  1.00  0.00    -0.363 N 
HETATM   23  C17 UNL     1      25.952   7.679  49.566  1.00  0.00     0.139 C 
HETATM   24  C19 UNL     1      21.895   3.148  51.354  1.00  0.00     0.181 C 
HETATM   25  H15 UNL     1      25.328   6.586  48.192  1.00  0.00     0.162 HD
ENDROOT
BRANCH   1  26
HETATM   26  C2  UNL     1      28.885   6.461  47.776  1.00  0.00     0.016 C 
HETATM   27  C1  UNL     1      29.911   5.776  47.469  1.00  0.00     0.010 C 
ENDBRANCH   1  26
BRANCH  23  28
HETATM   28  C18 UNL     1      26.068   9.149  49.145  1.00  0.00     0.194 C 
BRANCH  28  29
HETATM   29  O3  UNL     1      26.449   9.984  50.158  1.00  0.00    -0.399 OA
HETATM   30  H19 UNL     1      27.185   9.535  50.675  1.00  0.00     0.209 HD
ENDBRANCH  28  29
ENDBRANCH  23  28
BRANCH   4  31
HETATM   31  N1  UNL     1      25.997   5.170  50.083  1.00  0.00    -0.303 NA
HETATM   32  H6  UNL     1      25.687   6.171  49.828  1.00  0.00     0.124 HD
HETATM   33  H7  UNL     1      25.793   6.155  49.696  1.00  0.00     0.124 HD
ENDBRANCH   4  31
TORSDOF 4
ENDMDL
MODEL 4
REMARK VINA RESULT:      -6.9      2.110      2.513
REMARK  4 active torsions:
REMARK  status: ('A' for Active; 'I' for Inactive)
REMARK    1  A    between atoms: C2_2  and  C3_3 
REMARK    2  A    between atoms: C6_6  and  N1_7 
REMARK    3  A    between atoms: C17_26  and  C18_27 
REMARK    4  A    between atoms: C18_27  and  O3_28 
ROOT
HETATM    1  C3  UNL     1      23.225   7.804  48.564  1.00  0.00    -0.012 C 
HETATM    2  C4  UNL     1      23.490   6.835  49.417  1.00  0.00    -0.035 C 
HETATM    3  C5  UNL     1      24.465   5.936  48.790  1.00  0.00     0.032 C 
HETATM    4  C6  UNL     1      25.114   4.865  49.079  1.00  0.00     0.004 C 
HETATM    5  C7  UNL     1      25.811   3.679  49.492  1.00  0.00     0.020 C 
HETATM    6  C8  UNL     1      26.200   2.828  50.344  1.00  0.00     0.177 C 
HETATM    7  S1  UNL     1      26.480   1.953  51.869  1.00  0.00     0.238 S 
HETATM    8  O1  UNL     1      26.788   0.511  51.421  1.00  0.00    -0.205 OA
HETATM    9  O2  UNL     1      27.674   2.498  52.592  1.00  0.00    -0.205 OA
HETATM   10  N2  UNL     1      25.130   1.896  52.852  1.00  0.00    -0.305 N 
HETATM   11  C9  UNL     1      24.578   3.154  53.241  1.00  0.00     0.140 C 
HETATM   12  C10 UNL     1      23.281   3.517  52.699  1.00  0.00     0.061 C 
HETATM   13  C11 UNL     1      22.674   2.629  51.684  1.00  0.00    -0.025 A 
HETATM   14  C12 UNL     1      23.025   1.168  51.920  1.00  0.00     0.011 A 
HETATM   15  S2  UNL     1      21.717   0.412  50.847  1.00  0.00    -0.072 SA
HETATM   16  C13 UNL     1      20.953   2.030  50.260  1.00  0.00     0.114 A 
HETATM   17  N3  UNL     1      19.958   2.001  49.421  1.00  0.00    -0.234 NA
HETATM   18  C14 UNL     1      19.485   3.192  49.000  1.00  0.00     0.236 A 
HETATM   19  N4  UNL     1      20.151   4.204  49.527  1.00  0.00    -0.224 NA
HETATM   20  C15 UNL     1      21.180   4.179  50.395  1.00  0.00     0.139 A 
HETATM   21  C16 UNL     1      21.710   3.044  50.893  1.00  0.00     0.053 A 
HETATM   22  N5  UNL     1      21.940   5.439  50.531  1.00  0.00    -0.363 N 
HETATM   23  C17 UNL     1      22.686   6.698  50.698  1.00  0.00     0.139 C 
HETATM   24  C19 UNL     1      24.153   0.872  52.719  1.00  0.00     0.181 C 
HETATM   25  H15 UNL     1      22.200   5.315  49.549  1.00  0.00     0.162 HD
ENDROOT
BRANCH   1  26
HETATM   26  C2  UNL     1      24.025   7.540  47.413  1.00  0.00     0.016 C 
HETATM   27  C1  UNL     1      24.638   7.676  46.308  1.00  0.00     0.010 C 
ENDBRANCH   1  26
BRANCH  23  28
HETATM   28  C18 UNL     1      21.631   7.809  50.764  1.00  0.00     0.194 C 
BRANCH  28  29
HETATM   29  O3  UNL     1      20.439   7.472  50.183  1.00  0.00    -0.399 OA
HETATM   30  H19 UNL     1      20.596   7.337  49.200  1.00  0.00     0.209 HD
ENDBRANCH  28  29
ENDBRANCH  23  28
BRANCH   4  31
HETATM   31  N1  UNL     1      24.508   4.941  50.301  1.00  0.00    -0.303 NA
HETATM   32  H6  UNL     1      24.514   4.216  51.100  1.00  0.00     0.124 HD
HETATM   33  H7  UNL     1      24.613   4.123  50.996  1.00  0.00     0.124 HD
ENDBRANCH   4  31
TORSDOF 4
ENDMDL
MODEL 5
REMARK VINA RESULT:      -6.7      2.113      2.409
REMARK  4 active torsions:
REMARK  status: ('A' for Active; 'I' for Inactive)
REMARK    1  A    between atoms: C2_2  and  C3_3 
REMARK    2  A    between atoms: C6_6  and  N1_7 
REMARK    3  A    between atoms: C17_26  and  C18_27 
REMARK    4  A    between atoms: C18_27  and  O3_28 
ROOT
HETATM    1  C3  UNL     1      26.111   6.825  49.378  1.00  0.00    -0.012 C 
HETATM    2  C4  UNL     1      25.091   6.158  49.882  1.00  0.00    -0.035 C 
HETATM    3  C5  UNL     1      25.355   4.726  49.699  1.00  0.00     0.032 C 
HETATM    4  C6  UNL     1      24.794   3.602  49.968  1.00  0.00     0.004 C 
HETATM    5  C7  UNL     1      24.107   2.391  50.323  1.00  0.00     0.020 C 
HETATM    6  C8  UNL     1      23.222   1.725  50.934  1.00  0.00     0.177 C 
HETATM    7  S1  UNL     1      21.858   1.267  51.984  1.00  0.00     0.238 S 
HETATM    8  O1  UNL     1      21.354  -0.060  51.385  1.00  0.00    -0.205 OA
HETATM    9  O2  UNL     1      22.318   1.019  53.388  1.00  0.00    -0.205 OA
HETATM   10  N2  UNL     1      20.592   2.357  51.929  1.00  0.00    -0.305 N 
HETATM   11  C9  UNL     1      20.902   3.704  52.286  1.00  0.00     0.140 C 
HETATM   12  C10 UNL     1      20.863   4.705  51.235  1.00  0.00     0.061 C 
HETATM   13  C11 UNL     1      20.635   4.253  49.845  1.00  0.00    -0.025 A 
HETATM   14  C12 UNL     1      19.720   3.040  49.783  1.00  0.00     0.011 A 
HETATM   15  S2  UNL     1      19.286   3.136  47.984  1.00  0.00    -0.072 SA
HETATM   16  C13 UNL     1      20.325   4.657  47.590  1.00  0.00     0.114 A 
HETATM   17  N3  UNL     1      20.358   5.111  46.370  1.00  0.00    -0.234 NA
HETATM   18  C14 UNL     1      21.157   6.173  46.140  1.00  0.00     0.236 A 
HETATM   19  N4  UNL     1      21.791   6.562  47.232  1.00  0.00    -0.224 NA
HETATM   20  C15 UNL     1      21.721   6.053  48.476  1.00  0.00     0.139 A 
HETATM   21  C16 UNL     1      20.937   5.011  48.815  1.00  0.00     0.053 A 
HETATM   22  N5  UNL     1      22.797   6.465  49.403  1.00  0.00    -0.363 N 
HETATM   23  C17 UNL     1      23.846   6.893  50.344  1.00  0.00     0.139 C 
HETATM   24  C19 UNL     1      19.565   2.258  50.951  1.00  0.00     0.181 C 
HETATM   25  H15 UNL     1      23.440   5.979  48.773  1.00  0.00     0.162 HD
ENDROOT
BRANCH   1  26
HETATM   26  C2  UNL     1      27.019   5.840  48.890  1.00  0.00     0.016 C 
HETATM   27  C1  UNL     1      28.051   5.279  48.405  1.00  0.00     0.010 C 
ENDBRANCH   1  26
BRANCH  23  28
HETATM   28  C18 UNL     1      24.025   8.400  50.121  1.00  0.00     0.194 C 
BRANCH  28  29
HETATM   29  O3  UNL     1      23.253   8.902  49.110  1.00  0.00    -0.399 OA
HETATM   30  H19 UNL     1      22.601   8.191  48.828  1.00  0.00     0.209 HD
ENDBRANCH  28  29
ENDBRANCH  23  28
BRANCH   4  31
HETATM   31  N1  UNL     1      23.812   4.341  50.564  1.00  0.00    -0.303 NA
HETATM   32  H6  UNL     1      23.457   4.289  51.581  1.00  0.00     0.124 HD
HETATM   33  H7  UNL     1      23.574   4.166  51.601  1.00  0.00     0.124 HD
ENDBRANCH   4  31
TORSDOF 4
ENDMDL
MODEL 6
REMARK VINA RESULT:      -6.6     23.925     26.584
REMARK  4 active torsions:
REMARK  status: ('A' for Active; 'I' for Inactive)
REMARK    1  A    between atoms: C2_2  and  C3_3 
REMARK    2  A    between atoms: C6_6  and  N1_7 
REMARK    3  A    between atoms: C17_26  and  C18_27 
REMARK    4  A    between atoms: C18_27  and  O3_28 
ROOT
HETATM    1  C3  UNL     1      42.905   4.130  70.392  1.00  0.00    -0.012 C 
HETATM    2  C4  UNL     1      42.386   3.106  69.744  1.00  0.00    -0.035 C 
HETATM    3  C5  UNL     1      41.198   2.661  70.481  1.00  0.00     0.032 C 
HETATM    4  C6  UNL     1      40.280   1.767  70.379  1.00  0.00     0.004 C 
HETATM    5  C7  UNL     1      39.284   0.752  70.179  1.00  0.00     0.020 C 
HETATM    6  C8  UNL     1      38.679  -0.128  69.500  1.00  0.00     0.177 C 
HETATM    7  S1  UNL     1      38.175  -1.206  68.176  1.00  0.00     0.238 S 
HETATM    8  O1  UNL     1      37.479  -2.378  68.893  1.00  0.00    -0.205 OA
HETATM    9  O2  UNL     1      37.181  -0.531  67.280  1.00  0.00    -0.205 OA
HETATM   10  N2  UNL     1      39.461  -1.836  67.314  1.00  0.00    -0.305 N 
HETATM   11  C9  UNL     1      40.340  -0.888  66.709  1.00  0.00     0.140 C 
HETATM   12  C10 UNL     1      41.685  -0.778  67.245  1.00  0.00     0.061 C 
HETATM   13  C11 UNL     1      42.019  -1.553  68.460  1.00  0.00    -0.025 A 
HETATM   14  C12 UNL     1      41.280  -2.881  68.511  1.00  0.00     0.011 A 
HETATM   15  S2  UNL     1      42.323  -3.708  69.800  1.00  0.00    -0.072 SA
HETATM   16  C13 UNL     1      43.502  -2.267  70.084  1.00  0.00     0.114 A 
HETATM   17  N3  UNL     1      44.446  -2.378  70.973  1.00  0.00    -0.234 NA
HETATM   18  C14 UNL     1      45.228  -1.296  71.166  1.00  0.00     0.236 A 
HETATM   19  N4  UNL     1      44.869  -0.283  70.398  1.00  0.00    -0.224 NA
HETATM   20  C15 UNL     1      43.877  -0.219  69.491  1.00  0.00     0.139 A 
HETATM   21  C16 UNL     1      43.057  -1.250  69.207  1.00  0.00     0.053 A 
HETATM   22  N5  UNL     1      43.495   1.138  69.046  1.00  0.00    -0.363 N 
HETATM   23  C17 UNL     1      43.126   2.483  68.574  1.00  0.00     0.139 C 
HETATM   24  C19 UNL     1      40.117  -3.030  67.720  1.00  0.00     0.181 C 
HETATM   25  H15 UNL     1      43.207   1.305  70.015  1.00  0.00     0.162 HD
ENDROOT
BRANCH   1  26
HETATM   26  C2  UNL     1      42.058   4.348  71.518  1.00  0.00     0.016 C 
HETATM   27  C1  UNL     1      41.554   4.839  72.577  1.00  0.00     0.010 C 
ENDBRANCH   1  26
BRANCH  23  28
HETATM   28  C18 UNL     1      44.447   3.227  68.345  1.00  0.00     0.194 C 
BRANCH  28  29
HETATM   29  O3  UNL     1      45.281   2.609  67.454  1.00  0.00    -0.399 OA
HETATM   30  H19 UNL     1      45.518   1.704  67.821  1.00  0.00     0.209 HD
ENDBRANCH  28  29
ENDBRANCH  23  28
BRANCH   4  31
HETATM   31  N1  UNL     1      40.889   1.410  69.210  1.00  0.00    -0.303 NA
HETATM   32  H6  UNL     1      41.336   0.464  68.948  1.00  0.00     0.124 HD
HETATM   33  H7  UNL     1      41.287   0.414  69.104  1.00  0.00     0.124 HD
ENDBRANCH   4  31
TORSDOF 4
ENDMDL
MODEL 7
REMARK VINA RESULT:      -6.6      9.681     11.781
REMARK  4 active torsions:
REMARK  status: ('A' for Active; 'I' for Inactive)
REMARK    1  A    between atoms: C2_2  and  C3_3 
REMARK    2  A    between atoms: C6_6  and  N1_7 
REMARK    3  A    between atoms: C17_26  and  C18_27 
REMARK    4  A    between atoms: C18_27  and  O3_28 
ROOT
HETATM    1  C3  UNL     1      35.243   9.031  42.044  1.00  0.00    -0.012 C 
HETATM    2  C4  UNL     1      35.119   8.505  43.246  1.00  0.00    -0.035 C 
HETATM    3  C5  UNL     1      34.106   7.446  43.173  1.00  0.00     0.032 C 
HETATM    4  C6  UNL     1      33.557   6.583  43.951  1.00  0.00     0.004 C 
HETATM    5  C7  UNL     1      33.009   5.639  44.884  1.00  0.00     0.020 C 
HETATM    6  C8  UNL     1      32.981   5.014  45.984  1.00  0.00     0.177 C 
HETATM    7  S1  UNL     1      33.378   4.424  47.616  1.00  0.00     0.238 S 
HETATM    8  O1  UNL     1      32.036   3.898  48.160  1.00  0.00    -0.205 OA
HETATM    9  O2  UNL     1      34.352   3.287  47.556  1.00  0.00    -0.205 OA
HETATM   10  N2  UNL     1      33.897   5.634  48.645  1.00  0.00    -0.305 N 
HETATM   11  C9  UNL     1      35.047   6.370  48.225  1.00  0.00     0.140 C 
HETATM   12  C10 UNL     1      34.857   7.760  47.850  1.00  0.00     0.061 C 
HETATM   13  C11 UNL     1      33.476   8.289  47.801  1.00  0.00    -0.025 A 
HETATM   14  C12 UNL     1      32.582   7.649  48.851  1.00  0.00     0.011 A 
HETATM   15  S2  UNL     1      31.209   8.892  48.814  1.00  0.00    -0.072 SA
HETATM   16  C13 UNL     1      31.955  10.001  47.486  1.00  0.00     0.114 A 
HETATM   17  N3  UNL     1      31.298  11.051  47.086  1.00  0.00    -0.234 NA
HETATM   18  C14 UNL     1      31.860  11.779  46.100  1.00  0.00     0.236 A 
HETATM   19  N4  UNL     1      33.009  11.265  45.698  1.00  0.00    -0.224 NA
HETATM   20  C15 UNL     1      33.647  10.168  46.147  1.00  0.00     0.139 A 
HETATM   21  C16 UNL     1      33.182   9.388  47.143  1.00  0.00     0.053 A 
HETATM   22  N5  UNL     1      34.724   9.647  45.278  1.00  0.00    -0.363 N 
HETATM   23  C17 UNL     1      35.819   9.137  44.436  1.00  0.00     0.139 C 
HETATM   24  C19 UNL     1      32.982   6.411  49.406  1.00  0.00     0.181 C 
HETATM   25  H15 UNL     1      33.992   9.468  44.585  1.00  0.00     0.162 HD
ENDROOT
BRANCH   1  26
HETATM   26  C2  UNL     1      34.335   8.315  41.210  1.00  0.00     0.016 C 
HETATM   27  C1  UNL     1      33.669   7.925  40.199  1.00  0.00     0.010 C 
ENDBRANCH   1  26
BRANCH  23  28
HETATM   28  C18 UNL     1      36.607  10.369  43.976  1.00  0.00     0.194 C 
BRANCH  28  29
HETATM   29  O3  UNL     1      37.910  10.378  44.391  1.00  0.00    -0.399 OA
HETATM   30  H19 UNL     1      37.925  10.211  45.382  1.00  0.00     0.209 HD
ENDBRANCH  28  29
ENDBRANCH  23  28
BRANCH   4  31
HETATM   31  N1  UNL     1      34.389   7.068  44.921  1.00  0.00    -0.303 NA
HETATM   32  H6  UNL     1      35.093   7.881  44.855  1.00  0.00     0.124 HD
HETATM   33  H7  UNL     1      35.039   7.897  44.694  1.00  0.00     0.124 HD
ENDBRANCH   4  31
TORSDOF 4
ENDMDL
MODEL 8
REMARK VINA RESULT:      -6.6      4.733      6.883
REMARK  4 active torsions:
REMARK  status: ('A' for Active; 'I' for Inactive)
REMARK    1  A    between atoms: C2_2  and  C3_3 
REMARK    2  A    between atoms: C6_6  and  N1_7 
REMARK    3  A    between atoms: C17_26  and  C18_27 
REMARK    4  A    between atoms: C18_27  and  O3_28 
ROOT
HETATM    1  C3  UNL     1      22.768   1.799  52.743  1.00  0.00    -0.012 C 
HETATM    2  C4  UNL     1      21.535   2.172  52.459  1.00  0.00    -0.035 C 
HETATM    3  C5  UNL     1      20.726   0.960  52.285  1.00  0.00     0.032 C 
HETATM    4  C6  UNL     1      19.508   0.645  52.026  1.00  0.00     0.004 C 
HETATM    5  C7  UNL     1      18.123   0.382  51.750  1.00  0.00     0.020 C 
HETATM    6  C8  UNL     1      16.907   0.708  51.631  1.00  0.00     0.177 C 
HETATM    7  S1  UNL     1      15.389   1.639  51.607  1.00  0.00     0.238 S 
HETATM    8  O1  UNL     1      14.473   0.836  50.663  1.00  0.00    -0.205 OA
HETATM    9  O2  UNL     1      14.761   1.682  52.966  1.00  0.00    -0.205 OA
HETATM   10  N2  UNL     1      15.566   3.168  50.955  1.00  0.00    -0.305 N 
HETATM   11  C9  UNL     1      16.517   4.020  51.595  1.00  0.00     0.140 C 
HETATM   12  C10 UNL     1      17.725   4.352  50.861  1.00  0.00     0.061 C 
HETATM   13  C11 UNL     1      17.958   3.687  49.560  1.00  0.00    -0.025 A 
HETATM   14  C12 UNL     1      16.660   3.416  48.816  1.00  0.00     0.011 A 
HETATM   15  S2  UNL     1      17.382   3.110  47.138  1.00  0.00    -0.072 SA
HETATM   16  C13 UNL     1      19.185   3.348  47.630  1.00  0.00     0.114 A 
HETATM   17  N3  UNL     1      20.118   3.198  46.734  1.00  0.00    -0.234 NA
HETATM   18  C14 UNL     1      21.391   3.334  47.157  1.00  0.00     0.236 A 
HETATM   19  N4  UNL     1      21.459   3.591  48.451  1.00  0.00    -0.224 NA
HETATM   20  C15 UNL     1      20.457   3.735  49.338  1.00  0.00     0.139 A 
HETATM   21  C16 UNL     1      19.152   3.642  49.013  1.00  0.00     0.053 A 
HETATM   22  N5  UNL     1      20.842   3.667  50.764  1.00  0.00    -0.363 N 
HETATM   23  C17 UNL     1      21.218   3.632  52.187  1.00  0.00     0.139 C 
HETATM   24  C19 UNL     1      15.455   3.401  49.557  1.00  0.00     0.181 C 
HETATM   25  H15 UNL     1      21.119   2.699  50.578  1.00  0.00     0.162 HD
ENDROOT
BRANCH   1  26
HETATM   26  C2  UNL     1      22.749   0.373  52.763  1.00  0.00     0.016 C 
HETATM   27  C1  UNL     1      22.949  -0.835  53.102  1.00  0.00     0.010 C 
ENDBRANCH   1  26
BRANCH  23  28
HETATM   28  C18 UNL     1      22.498   4.468  52.307  1.00  0.00     0.194 C 
BRANCH  28  29
HETATM   29  O3  UNL     1      22.290   5.814  52.188  1.00  0.00    -0.399 OA
HETATM   30  H19 UNL     1      21.775   5.979  51.341  1.00  0.00     0.209 HD
ENDBRANCH  28  29
ENDBRANCH  23  28
BRANCH   4  31
HETATM   31  N1  UNL     1      19.261   1.988  52.018  1.00  0.00    -0.303 NA
HETATM   32  H6  UNL     1      19.591   2.735  52.722  1.00  0.00     0.124 HD
HETATM   33  H7  UNL     1      19.669   2.606  52.801  1.00  0.00     0.124 HD
ENDBRANCH   4  31
TORSDOF 4
ENDMDL
MODEL 9
REMARK VINA RESULT:      -6.5      3.025      5.318
REMARK  4 active torsions:
REMARK  status: ('A' for Active; 'I' for Inactive)
REMARK    1  A    between atoms: C2_2  and  C3_3 
REMARK    2  A    between atoms: C6_6  and  N1_7 
REMARK    3  A    between atoms: C17_26  and  C18_27 
REMARK    4  A    between atoms: C18_27  and  O3_28 
ROOT
HETATM    1  C3  UNL     1      20.274   6.644  47.380  1.00  0.00    -0.012 C 
HETATM    2  C4  UNL     1      20.467   5.487  47.982  1.00  0.00    -0.035 C 
HETATM    3  C5  UNL     1      19.989   5.614  49.364  1.00  0.00     0.032 C 
HETATM    4  C6  UNL     1      19.881   4.885  50.417  1.00  0.00     0.004 C 
HETATM    5  C7  UNL     1      19.781   3.996  51.540  1.00  0.00     0.020 C 
HETATM    6  C8  UNL     1      19.810   2.860  52.096  1.00  0.00     0.177 C 
HETATM    7  S1  UNL     1      19.946   1.107  52.379  1.00  0.00     0.238 S 
HETATM    8  O1  UNL     1      20.308   0.997  53.873  1.00  0.00    -0.205 OA
HETATM    9  O2  UNL     1      18.635   0.420  52.148  1.00  0.00    -0.205 OA
HETATM   10  N2  UNL     1      21.183   0.395  51.509  1.00  0.00    -0.305 N 
HETATM   11  C9  UNL     1      21.121   0.539  50.090  1.00  0.00     0.140 C 
HETATM   12  C10 UNL     1      22.124   1.375  49.453  1.00  0.00     0.061 C 
HETATM   13  C11 UNL     1      23.061   2.125  50.318  1.00  0.00    -0.025 A 
HETATM   14  C12 UNL     1      23.392   1.366  51.593  1.00  0.00     0.011 A 
HETATM   15  S2  UNL     1      24.899   2.327  52.082  1.00  0.00    -0.072 SA
HETATM   16  C13 UNL     1      24.868   3.532  50.634  1.00  0.00     0.114 A 
HETATM   17  N3  UNL     1      25.772   4.465  50.558  1.00  0.00    -0.234 NA
HETATM   18  C14 UNL     1      25.669   5.327  49.526  1.00  0.00     0.236 A 
HETATM   19  N4  UNL     1      24.625   5.062  48.762  1.00  0.00    -0.224 NA
HETATM   20  C15 UNL     1      23.714   4.080  48.886  1.00  0.00     0.139 A 
HETATM   21  C16 UNL     1      23.741   3.155  49.867  1.00  0.00     0.053 A 
HETATM   22  N5  UNL     1      22.474   4.244  48.098  1.00  0.00    -0.363 N 
HETATM   23  C17 UNL     1      21.248   4.383  47.294  1.00  0.00     0.139 C 
HETATM   24  C19 UNL     1      22.512   0.340  52.009  1.00  0.00     0.181 C 
HETATM   25  H15 UNL     1      22.295   5.074  48.670  1.00  0.00     0.162 HD
ENDROOT
BRANCH   1  26
HETATM   26  C2  UNL     1      19.673   7.496  48.353  1.00  0.00     0.016 C 
HETATM   27  C1  UNL     1      19.227   8.525  48.950  1.00  0.00     0.010 C 
ENDBRANCH   1  26
BRANCH  23  28
HETATM   28  C18 UNL     1      21.703   4.861  45.909  1.00  0.00     0.194 C 
BRANCH  28  29
HETATM   29  O3  UNL     1      21.989   3.843  45.042  1.00  0.00    -0.399 OA
HETATM   30  H19 UNL     1      22.943   3.564  45.187  1.00  0.00     0.209 HD
ENDBRANCH  28  29
ENDBRANCH  23  28
BRANCH   4  31
HETATM   31  N1  UNL     1      20.392   3.874  49.654  1.00  0.00    -0.303 NA
HETATM   32  H6  UNL     1      20.295   2.809  49.799  1.00  0.00     0.124 HD
HETATM   33  H7  UNL     1      20.202   2.851  49.936  1.00  0.00     0.124 HD
ENDBRANCH   4  31
TORSDOF 4
ENDMDL
