MODEL 1
REMARK VINA RESULT:      -7.6      0.000      0.000
REMARK  12 active torsions:
REMARK  status: ('A' for Active; 'I' for Inactive)
REMARK    1  A    between atoms: C2_2  and  C3_3 
REMARK       I    between atoms: C3_3  and  N1_5 
REMARK    2  A    between atoms: N1_5  and  C4_6 
REMARK    3  A    between atoms: C6_8  and  N2_9 
REMARK    4  A    between atoms: N2_9  and  C7_10 
REMARK    5  A    between atoms: C7_10  and  N3_11 
REMARK    6  A    between atoms: N3_11  and  C8_12 
REMARK    7  A    between atoms: C12_16  and  C13_17 
REMARK    8  A    between atoms: C15_19  and  O2_20 
REMARK    9  A    between atoms: C18_23  and  O3_24 
REMARK   10  A    between atoms: O3_24  and  C19_25 
REMARK   11  A    between atoms: C19_25  and  C20_26 
REMARK   12  A    between atoms: C20_26  and  N4_27 
ROOT
HETATM    1  C4  UNL     1      23.451   0.944  52.197  1.00  0.00     0.070 C 
HETATM    2  C5  UNL     1      24.091   0.147  53.048  1.00  0.00     0.064 C 
HETATM    3  C6  UNL     1      23.583  -0.698  54.109  1.00  0.00     0.061 C 
HETATM    4  C15 UNL     1      22.340  -1.082  54.244  1.00  0.00     0.073 C 
HETATM    5  C16 UNL     1      21.065  -0.888  53.525  1.00  0.00     0.096 C 
HETATM    6  C17 UNL     1      21.042   0.359  52.704  1.00  0.00     0.019 C 
HETATM    7  C18 UNL     1      22.006   1.089  52.173  1.00  0.00     0.092 C 
ENDROOT
BRANCH   3   8
HETATM    8  N2  UNL     1      24.464  -1.159  55.113  1.00  0.00    -0.370 N 
HETATM    9  H6  UNL     1      24.275  -2.125  55.496  1.00  0.00     0.161 HD
BRANCH   8  10
HETATM   10  C7  UNL     1      25.643  -0.517  55.732  1.00  0.00     0.265 C 
BRANCH  10  11
HETATM   11  N3  UNL     1      26.755  -0.526  54.949  1.00  0.00    -0.300 NA
BRANCH  11  12
HETATM   12  C8  UNL     1      27.967   0.137  54.640  1.00  0.00     0.053 A 
HETATM   13  C9  UNL     1      29.052   1.469  54.054  1.00  0.00     0.023 A 
HETATM   14  C10 UNL     1      28.771   2.532  53.491  1.00  0.00    -0.016 A 
HETATM   15  C13 UNL     1      28.731   0.303  54.593  1.00  0.00     0.038 A 
HETATM   16  C12 UNL     1      27.354   1.076  54.116  1.00  0.00     0.023 A 
HETATM   17  C11 UNL     1      27.355   2.327  53.481  1.00  0.00    -0.016 A 
HETATM   18  C14 UNL     1      28.974  -0.935  53.740  1.00  0.00     0.051 A 
ENDBRANCH  11  12
ENDBRANCH  10  11
ENDBRANCH   8  10
ENDBRANCH   3   8
BRANCH   4  19
HETATM   19  O2  UNL     1      21.989  -1.918  55.334  1.00  0.00    -0.362 OA
HETATM   20  H15 UNL     1      22.535  -2.792  55.371  1.00  0.00     0.217 HD
ENDBRANCH   4  19
BRANCH   1  21
HETATM   21  N1  UNL     1      24.135   1.695  51.231  1.00  0.00    -0.321 N 
HETATM   22  C3  UNL     1      24.457   3.074  51.252  1.00  0.00     0.245 C 
HETATM   23  O1  UNL     1      24.254   3.994  52.084  1.00  0.00    -0.268 OA
HETATM   24  H4  UNL     1      24.309   0.952  50.549  1.00  0.00     0.169 HD
BRANCH  22  25
HETATM   25  C2  UNL     1      25.188   3.531  50.042  1.00  0.00     0.064 C 
HETATM   26  C1  UNL     1      26.443   3.270  49.603  1.00  0.00     0.017 C 
ENDBRANCH  22  25
ENDBRANCH   1  21
BRANCH   7  27
HETATM   27  O3  UNL     1      21.429   2.181  51.462  1.00  0.00    -0.347 OA
BRANCH  27  28
HETATM   28  C19 UNL     1      20.444   2.849  52.282  1.00  0.00     0.206 C 
BRANCH  28  29
HETATM   29  C20 UNL     1      19.779   3.946  51.541  1.00  0.00     0.297 C 
BRANCH  29  30
HETATM   30  N4  UNL     1      18.530   3.574  50.928  1.00  0.00     0.082 N 
HETATM   31  C21 UNL     1      18.720   3.538  49.493  1.00  0.00     0.309 C 
HETATM   32  C22 UNL     1      17.929   2.389  51.457  1.00  0.00     0.309 C 
ENDBRANCH  29  30
ENDBRANCH  28  29
ENDBRANCH  27  28
ENDBRANCH   7  27
TORSDOF 12
ENDMDL
MODEL 2
REMARK VINA RESULT:      -7.5      1.801      2.106
REMARK  12 active torsions:
REMARK  status: ('A' for Active; 'I' for Inactive)
REMARK    1  A    between atoms: C2_2  and  C3_3 
REMARK       I    between atoms: C3_3  and  N1_5 
REMARK    2  A    between atoms: N1_5  and  C4_6 
REMARK    3  A    between atoms: C6_8  and  N2_9 
REMARK    4  A    between atoms: N2_9  and  C7_10 
REMARK    5  A    between atoms: C7_10  and  N3_11 
REMARK    6  A    between atoms: N3_11  and  C8_12 
REMARK    7  A    between atoms: C12_16  and  C13_17 
REMARK    8  A    between atoms: C15_19  and  O2_20 
REMARK    9  A    between atoms: C18_23  and  O3_24 
REMARK   10  A    between atoms: O3_24  and  C19_25 
REMARK   11  A    between atoms: C19_25  and  C20_26 
REMARK   12  A    between atoms: C20_26  and  N4_27 
ROOT
HETATM    1  C4  UNL     1      23.788   2.484  52.042  1.00  0.00     0.070 C 
HETATM    2  C5  UNL     1      24.400   1.345  52.353  1.00  0.00     0.064 C 
HETATM    3  C6  UNL     1      23.881   0.131  52.949  1.00  0.00     0.061 C 
HETATM    4  C15 UNL     1      22.617  -0.200  53.020  1.00  0.00     0.073 C 
HETATM    5  C16 UNL     1      21.324   0.383  52.609  1.00  0.00     0.096 C 
HETATM    6  C17 UNL     1      21.371   1.868  52.468  1.00  0.00     0.019 C 
HETATM    7  C18 UNL     1      22.366   2.706  52.238  1.00  0.00     0.092 C 
ENDROOT
BRANCH   3   8
HETATM    8  N2  UNL     1      24.775  -0.798  53.526  1.00  0.00    -0.370 N 
HETATM    9  H6  UNL     1      24.448  -1.280  54.408  1.00  0.00     0.161 HD
BRANCH   8  10
HETATM   10  C7  UNL     1      26.120  -1.236  53.098  1.00  0.00     0.265 C 
BRANCH  10  11
HETATM   11  N3  UNL     1      27.108  -0.945  53.987  1.00  0.00    -0.300 NA
BRANCH  11  12
HETATM   12  C8  UNL     1      28.216  -0.109  54.263  1.00  0.00     0.053 A 
HETATM   13  C9  UNL     1      29.211   1.409  54.289  1.00  0.00     0.023 A 
HETATM   14  C10 UNL     1      29.010   2.500  53.747  1.00  0.00    -0.016 A 
HETATM   15  C13 UNL     1      28.897   0.149  54.552  1.00  0.00     0.038 A 
HETATM   16  C12 UNL     1      27.720   0.816  53.607  1.00  0.00     0.023 A 
HETATM   17  C11 UNL     1      27.771   2.135  53.131  1.00  0.00    -0.016 A 
HETATM   18  C14 UNL     1      29.660  -0.921  53.784  1.00  0.00     0.051 A 
ENDBRANCH  11  12
ENDBRANCH  10  11
ENDBRANCH   8  10
ENDBRANCH   3   8
BRANCH   4  19
HETATM   19  O2  UNL     1      22.257  -1.429  53.628  1.00  0.00    -0.362 OA
HETATM   20  H15 UNL     1      22.212  -2.215  52.964  1.00  0.00     0.217 HD
ENDBRANCH   4  19
BRANCH   1  21
HETATM   21  N1  UNL     1      24.479   3.561  51.467  1.00  0.00    -0.321 N 
HETATM   22  C3  UNL     1      24.688   3.842  50.096  1.00  0.00     0.245 C 
HETATM   23  O1  UNL     1      24.339   3.265  49.034  1.00  0.00    -0.268 OA
HETATM   24  H4  UNL     1      24.764   4.039  52.326  1.00  0.00     0.169 HD
BRANCH  22  25
HETATM   25  C2  UNL     1      25.481   5.075  49.856  1.00  0.00     0.064 C 
HETATM   26  C1  UNL     1      26.476   5.341  48.976  1.00  0.00     0.017 C 
ENDBRANCH  22  25
ENDBRANCH   1  21
BRANCH   7  27
HETATM   27  O3  UNL     1      21.855   4.035  52.179  1.00  0.00    -0.347 OA
BRANCH  27  28
HETATM   28  C19 UNL     1      20.507   4.032  51.661  1.00  0.00     0.206 C 
BRANCH  28  29
HETATM   29  C20 UNL     1      20.355   4.995  50.544  1.00  0.00     0.297 C 
BRANCH  29  30
HETATM   30  N4  UNL     1      21.551   5.732  50.233  1.00  0.00     0.082 N 
HETATM   31  C21 UNL     1      21.751   5.689  48.799  1.00  0.00     0.309 C 
HETATM   32  C22 UNL     1      21.606   7.051  50.780  1.00  0.00     0.309 C 
ENDBRANCH  29  30
ENDBRANCH  28  29
ENDBRANCH  27  28
ENDBRANCH   7  27
TORSDOF 12
ENDMDL
MODEL 3
REMARK VINA RESULT:      -7.4      2.147      6.892
REMARK  12 active torsions:
REMARK  status: ('A' for Active; 'I' for Inactive)
REMARK    1  A    between atoms: C2_2  and  C3_3 
REMARK       I    between atoms: C3_3  and  N1_5 
REMARK    2  A    between atoms: N1_5  and  C4_6 
REMARK    3  A    between atoms: C6_8  and  N2_9 
REMARK    4  A    between atoms: N2_9  and  C7_10 
REMARK    5  A    between atoms: C7_10  and  N3_11 
REMARK    6  A    between atoms: N3_11  and  C8_12 
REMARK    7  A    between atoms: C12_16  and  C13_17 
REMARK    8  A    between atoms: C15_19  and  O2_20 
REMARK    9  A    between atoms: C18_23  and  O3_24 
REMARK   10  A    between atoms: O3_24  and  C19_25 
REMARK   11  A    between atoms: C19_25  and  C20_26 
REMARK   12  A    between atoms: C20_26  and  N4_27 
ROOT
HETATM    1  C4  UNL     1      24.463   0.249  52.906  1.00  0.00     0.070 C 
HETATM    2  C5  UNL     1      23.158   0.281  52.647  1.00  0.00     0.064 C 
HETATM    3  C6  UNL     1      22.056  -0.406  53.288  1.00  0.00     0.061 C 
HETATM    4  C15 UNL     1      22.095  -0.968  54.469  1.00  0.00     0.073 C 
HETATM    5  C16 UNL     1      23.091  -1.157  55.543  1.00  0.00     0.096 C 
HETATM    6  C17 UNL     1      24.499  -1.093  55.050  1.00  0.00     0.019 C 
HETATM    7  C18 UNL     1      25.043  -0.524  53.990  1.00  0.00     0.092 C 
ENDROOT
BRANCH   3   8
HETATM    8  N2  UNL     1      20.818  -0.513  52.617  1.00  0.00    -0.370 N 
HETATM    9  H6  UNL     1      20.546  -1.478  52.283  1.00  0.00     0.161 HD
BRANCH   8  10
HETATM   10  C7  UNL     1      19.801   0.512  52.297  1.00  0.00     0.265 C 
BRANCH  10  11
HETATM   11  N3  UNL     1      20.145   1.333  51.269  1.00  0.00    -0.300 NA
BRANCH  11  12
HETATM   12  C8  UNL     1      20.354   1.424  49.872  1.00  0.00     0.053 A 
HETATM   13  C9  UNL     1      21.255   1.713  48.323  1.00  0.00     0.023 A 
HETATM   14  C10 UNL     1      22.393   2.157  48.136  1.00  0.00    -0.016 A 
HETATM   15  C13 UNL     1      20.239   1.369  49.099  1.00  0.00     0.038 A 
HETATM   16  C12 UNL     1      21.492   1.881  50.042  1.00  0.00     0.023 A 
HETATM   17  C11 UNL     1      22.710   2.341  49.519  1.00  0.00    -0.016 A 
HETATM   18  C14 UNL     1      19.075   2.347  49.176  1.00  0.00     0.051 A 
ENDBRANCH  11  12
ENDBRANCH  10  11
ENDBRANCH   8  10
ENDBRANCH   3   8
BRANCH   4  19
HETATM   19  O2  UNL     1      20.931  -1.601  54.973  1.00  0.00    -0.362 OA
HETATM   20  H15 UNL     1      21.134  -2.354  55.647  1.00  0.00     0.217 HD
ENDBRANCH   4  19
BRANCH   1  21
HETATM   21  N1  UNL     1      25.382   0.994  52.154  1.00  0.00    -0.321 N 
HETATM   22  C3  UNL     1      25.404   2.391  51.922  1.00  0.00     0.245 C 
HETATM   23  O1  UNL     1      24.666   3.339  52.295  1.00  0.00    -0.268 OA
HETATM   24  H4  UNL     1      25.991   0.230  51.849  1.00  0.00     0.169 HD
BRANCH  22  25
HETATM   25  C2  UNL     1      26.532   2.833  51.062  1.00  0.00     0.064 C 
HETATM   26  C1  UNL     1      26.548   3.440  49.851  1.00  0.00     0.017 C 
ENDBRANCH  22  25
ENDBRANCH   1  21
BRANCH   7  27
HETATM   27  O3  UNL     1      26.449  -0.754  54.003  1.00  0.00    -0.347 OA
BRANCH  27  28
HETATM   28  C19 UNL     1      27.111   0.232  54.827  1.00  0.00     0.206 C 
BRANCH  28  29
HETATM   29  C20 UNL     1      28.545  -0.093  55.012  1.00  0.00     0.297 C 
BRANCH  29  30
HETATM   30  N4  UNL     1      29.443   0.752  54.270  1.00  0.00     0.082 N 
HETATM   31  C21 UNL     1      30.098  -0.055  53.261  1.00  0.00     0.309 C 
HETATM   32  C22 UNL     1      28.856   1.949  53.754  1.00  0.00     0.309 C 
ENDBRANCH  29  30
ENDBRANCH  28  29
ENDBRANCH  27  28
ENDBRANCH   7  27
TORSDOF 12
ENDMDL
MODEL 4
REMARK VINA RESULT:      -7.3      3.176      6.976
REMARK  12 active torsions:
REMARK  status: ('A' for Active; 'I' for Inactive)
REMARK    1  A    between atoms: C2_2  and  C3_3 
REMARK       I    between atoms: C3_3  and  N1_5 
REMARK    2  A    between atoms: N1_5  and  C4_6 
REMARK    3  A    between atoms: C6_8  and  N2_9 
REMARK    4  A    between atoms: N2_9  and  C7_10 
REMARK    5  A    between atoms: C7_10  and  N3_11 
REMARK    6  A    between atoms: N3_11  and  C8_12 
REMARK    7  A    between atoms: C12_16  and  C13_17 
REMARK    8  A    between atoms: C15_19  and  O2_20 
REMARK    9  A    between atoms: C18_23  and  O3_24 
REMARK   10  A    between atoms: O3_24  and  C19_25 
REMARK   11  A    between atoms: C19_25  and  C20_26 
REMARK   12  A    between atoms: C20_26  and  N4_27 
ROOT
HETATM    1  C4  UNL     1      26.593   1.863  52.269  1.00  0.00     0.070 C 
HETATM    2  C5  UNL     1      26.728   2.683  51.231  1.00  0.00     0.064 C 
HETATM    3  C6  UNL     1      25.765   3.555  50.590  1.00  0.00     0.061 C 
HETATM    4  C15 UNL     1      24.628   3.942  51.110  1.00  0.00     0.073 C 
HETATM    5  C16 UNL     1      23.888   3.729  52.370  1.00  0.00     0.096 C 
HETATM    6  C17 UNL     1      24.265   2.460  53.061  1.00  0.00     0.019 C 
HETATM    7  C18 UNL     1      25.356   1.717  53.016  1.00  0.00     0.092 C 
ENDROOT
BRANCH   3   8
HETATM    8  N2  UNL     1      26.025   4.043  49.291  1.00  0.00    -0.370 N 
HETATM    9  H6  UNL     1      25.346   3.754  48.535  1.00  0.00     0.161 HD
BRANCH   8  10
HETATM   10  C7  UNL     1      27.103   4.921  48.788  1.00  0.00     0.265 C 
BRANCH  10  11
HETATM   11  N3  UNL     1      26.807   6.247  48.837  1.00  0.00    -0.300 NA
BRANCH  11  12
HETATM   12  C8  UNL     1      26.082   7.255  49.518  1.00  0.00     0.053 A 
HETATM   13  C9  UNL     1      24.729   8.418  49.851  1.00  0.00     0.023 A 
HETATM   14  C10 UNL     1      23.748   8.714  49.161  1.00  0.00    -0.016 A 
HETATM   15  C13 UNL     1      25.862   7.767  50.068  1.00  0.00     0.038 A 
HETATM   16  C12 UNL     1      25.247   7.312  48.606  1.00  0.00     0.023 A 
HETATM   17  C11 UNL     1      24.064   7.843  48.071  1.00  0.00    -0.016 A 
HETATM   18  C14 UNL     1      27.150   8.558  49.885  1.00  0.00     0.051 A 
ENDBRANCH  11  12
ENDBRANCH  10  11
ENDBRANCH   8  10
ENDBRANCH   3   8
BRANCH   4  19
HETATM   19  O2  UNL     1      23.786   4.807  50.365  1.00  0.00    -0.362 OA
HETATM   20  H15 UNL     1      23.973   4.786  49.352  1.00  0.00     0.217 HD
ENDBRANCH   4  19
BRANCH   1  21
HETATM   21  N1  UNL     1      27.662   1.087  52.741  1.00  0.00    -0.321 N 
HETATM   22  C3  UNL     1      28.673   1.449  53.663  1.00  0.00     0.245 C 
HETATM   23  O1  UNL     1      28.912   2.499  54.312  1.00  0.00    -0.268 OA
HETATM   24  H4  UNL     1      27.472   0.227  52.220  1.00  0.00     0.169 HD
BRANCH  22  25
HETATM   25  C2  UNL     1      29.655   0.366  53.923  1.00  0.00     0.064 C 
HETATM   26  C1  UNL     1      29.675  -0.935  53.542  1.00  0.00     0.017 C 
ENDBRANCH  22  25
ENDBRANCH   1  21
BRANCH   7  27
HETATM   27  O3  UNL     1      25.202   0.606  53.895  1.00  0.00    -0.347 OA
BRANCH  27  28
HETATM   28  C19 UNL     1      24.411  -0.427  53.266  1.00  0.00     0.206 C 
BRANCH  28  29
HETATM   29  C20 UNL     1      23.264  -0.822  54.116  1.00  0.00     0.297 C 
BRANCH  29  30
HETATM   30  N4  UNL     1      22.063  -1.130  53.383  1.00  0.00     0.082 N 
HETATM   31  C21 UNL     1      21.040  -1.522  54.330  1.00  0.00     0.309 C 
HETATM   32  C22 UNL     1      21.640  -0.117  52.468  1.00  0.00     0.309 C 
ENDBRANCH  29  30
ENDBRANCH  28  29
ENDBRANCH  27  28
ENDBRANCH   7  27
TORSDOF 12
ENDMDL
MODEL 5
REMARK VINA RESULT:      -7.2      2.690      7.978
REMARK  12 active torsions:
REMARK  status: ('A' for Active; 'I' for Inactive)
REMARK    1  A    between atoms: C2_2  and  C3_3 
REMARK       I    between atoms: C3_3  and  N1_5 
REMARK    2  A    between atoms: N1_5  and  C4_6 
REMARK    3  A    between atoms: C6_8  and  N2_9 
REMARK    4  A    between atoms: N2_9  and  C7_10 
REMARK    5  A    between atoms: C7_10  and  N3_11 
REMARK    6  A    between atoms: N3_11  and  C8_12 
REMARK    7  A    between atoms: C12_16  and  C13_17 
REMARK    8  A    between atoms: C15_19  and  O2_20 
REMARK    9  A    between atoms: C18_23  and  O3_24 
REMARK   10  A    between atoms: O3_24  and  C19_25 
REMARK   11  A    between atoms: C19_25  and  C20_26 
REMARK   12  A    between atoms: C20_26  and  N4_27 
ROOT
HETATM    1  C4  UNL     1      24.129   1.333  52.650  1.00  0.00     0.070 C 
HETATM    2  C5  UNL     1      23.749   2.576  52.366  1.00  0.00     0.064 C 
HETATM    3  C6  UNL     1      24.472   3.658  51.729  1.00  0.00     0.061 C 
HETATM    4  C15 UNL     1      25.562   3.528  51.019  1.00  0.00     0.073 C 
HETATM    5  C16 UNL     1      26.446   2.425  50.588  1.00  0.00     0.096 C 
HETATM    6  C17 UNL     1      26.373   1.234  51.485  1.00  0.00     0.019 C 
HETATM    7  C18 UNL     1      25.437   0.801  52.311  1.00  0.00     0.092 C 
ENDROOT
BRANCH   3   8
HETATM    8  N2  UNL     1      24.004   4.984  51.868  1.00  0.00    -0.370 N 
HETATM    9  H6  UNL     1      24.452   5.562  52.631  1.00  0.00     0.161 HD
BRANCH   8  10
HETATM   10  C7  UNL     1      22.979   5.730  51.109  1.00  0.00     0.265 C 
BRANCH  10  11
HETATM   11  N3  UNL     1      23.123   5.655  49.759  1.00  0.00    -0.300 NA
BRANCH  11  12
HETATM   12  C8  UNL     1      22.502   5.295  48.539  1.00  0.00     0.053 A 
HETATM   13  C9  UNL     1      21.888   4.205  47.224  1.00  0.00     0.023 A 
HETATM   14  C10 UNL     1      22.032   2.988  47.068  1.00  0.00    -0.016 A 
HETATM   15  C13 UNL     1      22.097   5.342  47.870  1.00  0.00     0.038 A 
HETATM   16  C12 UNL     1      22.830   4.110  48.689  1.00  0.00     0.023 A 
HETATM   17  C11 UNL     1      22.815   2.779  48.247  1.00  0.00    -0.016 A 
HETATM   18  C14 UNL     1      23.136   6.284  47.277  1.00  0.00     0.051 A 
ENDBRANCH  11  12
ENDBRANCH  10  11
ENDBRANCH   8  10
ENDBRANCH   3   8
BRANCH   4  19
HETATM   19  O2  UNL     1      26.158   4.681  50.447  1.00  0.00    -0.362 OA
HETATM   20  H15 UNL     1      26.500   4.530  49.487  1.00  0.00     0.217 HD
ENDBRANCH   4  19
BRANCH   1  21
HETATM   21  N1  UNL     1      23.269   0.425  53.284  1.00  0.00    -0.321 N 
HETATM   22  C3  UNL     1      22.079  -0.156  52.785  1.00  0.00     0.245 C 
HETATM   23  O1  UNL     1      21.463  -0.057  51.693  1.00  0.00    -0.268 OA
HETATM   24  H4  UNL     1      23.765   0.336  54.175  1.00  0.00     0.169 HD
BRANCH  22  25
HETATM   25  C2  UNL     1      21.417  -1.074  53.747  1.00  0.00     0.064 C 
HETATM   26  C1  UNL     1      21.885  -1.694  54.858  1.00  0.00     0.017 C 
ENDBRANCH  22  25
ENDBRANCH   1  21
BRANCH   7  27
HETATM   27  O3  UNL     1      25.874  -0.410  52.920  1.00  0.00    -0.347 OA
BRANCH  27  28
HETATM   28  C19 UNL     1      27.316  -0.437  53.006  1.00  0.00     0.206 C 
BRANCH  28  29
HETATM   29  C20 UNL     1      27.784  -0.048  54.358  1.00  0.00     0.297 C 
BRANCH  29  30
HETATM   30  N4  UNL     1      29.057   0.623  54.372  1.00  0.00     0.082 N 
HETATM   31  C21 UNL     1      29.990  -0.155  53.584  1.00  0.00     0.309 C 
HETATM   32  C22 UNL     1      29.014   2.005  54.008  1.00  0.00     0.309 C 
ENDBRANCH  29  30
ENDBRANCH  28  29
ENDBRANCH  27  28
ENDBRANCH   7  27
TORSDOF 12
ENDMDL
MODEL 6
REMARK VINA RESULT:      -7.1      3.534      6.828
REMARK  12 active torsions:
REMARK  status: ('A' for Active; 'I' for Inactive)
REMARK    1  A    between atoms: C2_2  and  C3_3 
REMARK       I    between atoms: C3_3  and  N1_5 
REMARK    2  A    between atoms: N1_5  and  C4_6 
REMARK    3  A    between atoms: C6_8  and  N2_9 
REMARK    4  A    between atoms: N2_9  and  C7_10 
REMARK    5  A    between atoms: C7_10  and  N3_11 
REMARK    6  A    between atoms: N3_11  and  C8_12 
REMARK    7  A    between atoms: C12_16  and  C13_17 
REMARK    8  A    between atoms: C15_19  and  O2_20 
REMARK    9  A    between atoms: C18_23  and  O3_24 
REMARK   10  A    between atoms: O3_24  and  C19_25 
REMARK   11  A    between atoms: C19_25  and  C20_26 
REMARK   12  A    between atoms: C20_26  and  N4_27 
ROOT
HETATM    1  C4  UNL     1      26.358   1.868  51.837  1.00  0.00     0.070 C 
HETATM    2  C5  UNL     1      26.613   2.914  51.055  1.00  0.00     0.064 C 
HETATM    3  C6  UNL     1      25.712   3.793  50.338  1.00  0.00     0.061 C 
HETATM    4  C15 UNL     1      24.431   3.918  50.568  1.00  0.00     0.073 C 
HETATM    5  C16 UNL     1      23.437   3.339  51.494  1.00  0.00     0.096 C 
HETATM    6  C17 UNL     1      23.838   1.998  52.015  1.00  0.00     0.019 C 
HETATM    7  C18 UNL     1      25.015   1.414  52.150  1.00  0.00     0.092 C 
ENDROOT
BRANCH   3   8
HETATM    8  N2  UNL     1      26.212   4.593  49.286  1.00  0.00    -0.370 N 
HETATM    9  H6  UNL     1      25.529   5.265  48.841  1.00  0.00     0.161 HD
BRANCH   8  10
HETATM   10  C7  UNL     1      27.561   4.666  48.687  1.00  0.00     0.265 C 
BRANCH  10  11
HETATM   11  N3  UNL     1      27.932   5.918  48.307  1.00  0.00    -0.300 NA
BRANCH  11  12
HETATM   12  C8  UNL     1      28.961   6.705  47.736  1.00  0.00     0.053 A 
HETATM   13  C9  UNL     1      30.607   7.100  47.079  1.00  0.00     0.023 A 
HETATM   14  C10 UNL     1      31.640   6.424  47.066  1.00  0.00    -0.016 A 
HETATM   15  C13 UNL     1      29.336   7.302  47.394  1.00  0.00     0.038 A 
HETATM   16  C12 UNL     1      29.783   5.791  47.885  1.00  0.00     0.023 A 
HETATM   17  C11 UNL     1      31.081   5.282  47.722  1.00  0.00    -0.016 A 
HETATM   18  C14 UNL     1      29.062   8.197  48.594  1.00  0.00     0.051 A 
ENDBRANCH  11  12
ENDBRANCH  10  11
ENDBRANCH   8  10
ENDBRANCH   3   8
BRANCH   4  19
HETATM   19  O2  UNL     1      23.673   4.828  49.787  1.00  0.00    -0.362 OA
HETATM   20  H15 UNL     1      23.274   4.402  48.937  1.00  0.00     0.217 HD
ENDBRANCH   4  19
BRANCH   1  21
HETATM   21  N1  UNL     1      27.386   1.133  52.444  1.00  0.00    -0.321 N 
HETATM   22  C3  UNL     1      28.292   1.551  53.449  1.00  0.00     0.245 C 
HETATM   23  O1  UNL     1      28.446   2.630  54.077  1.00  0.00    -0.268 OA
HETATM   24  H4  UNL     1      27.265   0.250  51.941  1.00  0.00     0.169 HD
BRANCH  22  25
HETATM   25  C2  UNL     1      29.261   0.498  53.850  1.00  0.00     0.064 C 
HETATM   26  C1  UNL     1      29.267  -0.840  53.638  1.00  0.00     0.017 C 
ENDBRANCH  22  25
ENDBRANCH   1  21
BRANCH   7  27
HETATM   27  O3  UNL     1      24.834   0.121  52.722  1.00  0.00    -0.347 OA
BRANCH  27  28
HETATM   28  C19 UNL     1      23.670   0.110  53.579  1.00  0.00     0.206 C 
BRANCH  28  29
HETATM   29  C20 UNL     1      22.761  -1.010  53.240  1.00  0.00     0.297 C 
BRANCH  29  30
HETATM   30  N4  UNL     1      21.363  -0.706  53.402  1.00  0.00     0.082 N 
HETATM   31  C21 UNL     1      21.178  -0.095  54.702  1.00  0.00     0.309 C 
HETATM   32  C22 UNL     1      20.781   0.039  52.331  1.00  0.00     0.309 C 
ENDBRANCH  29  30
ENDBRANCH  28  29
ENDBRANCH  27  28
ENDBRANCH   7  27
TORSDOF 12
ENDMDL
MODEL 7
REMARK VINA RESULT:      -7.1      2.257      3.068
REMARK  12 active torsions:
REMARK  status: ('A' for Active; 'I' for Inactive)
REMARK    1  A    between atoms: C2_2  and  C3_3 
REMARK       I    between atoms: C3_3  and  N1_5 
REMARK    2  A    between atoms: N1_5  and  C4_6 
REMARK    3  A    between atoms: C6_8  and  N2_9 
REMARK    4  A    between atoms: N2_9  and  C7_10 
REMARK    5  A    between atoms: C7_10  and  N3_11 
REMARK    6  A    between atoms: N3_11  and  C8_12 
REMARK    7  A    between atoms: C12_16  and  C13_17 
REMARK    8  A    between atoms: C15_19  and  O2_20 
REMARK    9  A    between atoms: C18_23  and  O3_24 
REMARK   10  A    between atoms: O3_24  and  C19_25 
REMARK   11  A    between atoms: C19_25  and  C20_26 
REMARK   12  A    between atoms: C20_26  and  N4_27 
ROOT
HETATM    1  C4  UNL     1      23.859   2.707  49.928  1.00  0.00     0.070 C 
HETATM    2  C5  UNL     1      23.982   2.083  51.096  1.00  0.00     0.064 C 
HETATM    3  C6  UNL     1      23.045   1.248  51.819  1.00  0.00     0.061 C 
HETATM    4  C15 UNL     1      21.981   0.684  51.309  1.00  0.00     0.073 C 
HETATM    5  C16 UNL     1      21.318   0.622  49.990  1.00  0.00     0.096 C 
HETATM    6  C17 UNL     1      21.646   1.788  49.117  1.00  0.00     0.019 C 
HETATM    7  C18 UNL     1      22.671   2.620  49.097  1.00  0.00     0.092 C 
ENDROOT
BRANCH   3   8
HETATM    8  N2  UNL     1      23.248   1.004  53.196  1.00  0.00    -0.370 N 
HETATM    9  H6  UNL     1      22.786   1.678  53.866  1.00  0.00     0.161 HD
BRANCH   8  10
HETATM   10  C7  UNL     1      24.005  -0.063  53.885  1.00  0.00     0.265 C 
BRANCH  10  11
HETATM   11  N3  UNL     1      25.355   0.083  53.817  1.00  0.00    -0.300 NA
BRANCH  11  12
HETATM   12  C8  UNL     1      26.560  -0.453  53.300  1.00  0.00     0.053 A 
HETATM   13  C9  UNL     1      28.324  -0.878  53.247  1.00  0.00     0.023 A 
HETATM   14  C10 UNL     1      29.240  -0.563  54.012  1.00  0.00    -0.016 A 
HETATM   15  C13 UNL     1      27.062  -0.844  52.843  1.00  0.00     0.038 A 
HETATM   16  C12 UNL     1      27.211   0.032  54.234  1.00  0.00     0.023 A 
HETATM   17  C11 UNL     1      28.432   0.214  54.901  1.00  0.00    -0.016 A 
HETATM   18  C14 UNL     1      26.745   0.068  51.666  1.00  0.00     0.051 A 
ENDBRANCH  11  12
ENDBRANCH  10  11
ENDBRANCH   8  10
ENDBRANCH   3   8
BRANCH   4  19
HETATM   19  O2  UNL     1      21.156  -0.117  52.139  1.00  0.00    -0.362 OA
HETATM   20  H15 UNL     1      20.865  -1.000  51.695  1.00  0.00     0.217 HD
ENDBRANCH   4  19
BRANCH   1  21
HETATM   21  N1  UNL     1      24.897   3.484  49.394  1.00  0.00    -0.321 N 
HETATM   22  C3  UNL     1      25.278   4.803  49.742  1.00  0.00     0.245 C 
HETATM   23  O1  UNL     1      24.846   5.632  50.582  1.00  0.00    -0.268 OA
HETATM   24  H4  UNL     1      25.259   2.814  48.710  1.00  0.00     0.169 HD
BRANCH  22  25
HETATM   25  C2  UNL     1      26.428   5.316  48.954  1.00  0.00     0.064 C 
HETATM   26  C1  UNL     1      27.647   4.781  48.698  1.00  0.00     0.017 C 
ENDBRANCH  22  25
ENDBRANCH   1  21
BRANCH   7  27
HETATM   27  O3  UNL     1      22.496   3.554  48.035  1.00  0.00    -0.347 OA
BRANCH  27  28
HETATM   28  C19 UNL     1      21.311   4.351  48.258  1.00  0.00     0.206 C 
BRANCH  28  29
HETATM   29  C20 UNL     1      21.637   5.623  48.944  1.00  0.00     0.297 C 
BRANCH  29  30
HETATM   30  N4  UNL     1      20.738   5.964  50.016  1.00  0.00     0.082 N 
HETATM   31  C21 UNL     1      19.925   7.084  49.589  1.00  0.00     0.309 C 
HETATM   32  C22 UNL     1      19.979   4.870  50.536  1.00  0.00     0.309 C 
ENDBRANCH  29  30
ENDBRANCH  28  29
ENDBRANCH  27  28
ENDBRANCH   7  27
TORSDOF 12
ENDMDL
MODEL 8
REMARK VINA RESULT:      -6.8      1.830      7.692
REMARK  12 active torsions:
REMARK  status: ('A' for Active; 'I' for Inactive)
REMARK    1  A    between atoms: C2_2  and  C3_3 
REMARK       I    between atoms: C3_3  and  N1_5 
REMARK    2  A    between atoms: N1_5  and  C4_6 
REMARK    3  A    between atoms: C6_8  and  N2_9 
REMARK    4  A    between atoms: N2_9  and  C7_10 
REMARK    5  A    between atoms: C7_10  and  N3_11 
REMARK    6  A    between atoms: N3_11  and  C8_12 
REMARK    7  A    between atoms: C12_16  and  C13_17 
REMARK    8  A    between atoms: C15_19  and  O2_20 
REMARK    9  A    between atoms: C18_23  and  O3_24 
REMARK   10  A    between atoms: O3_24  and  C19_25 
REMARK   11  A    between atoms: C19_25  and  C20_26 
REMARK   12  A    between atoms: C20_26  and  N4_27 
ROOT
HETATM    1  C4  UNL     1      23.065   1.112  52.405  1.00  0.00     0.070 C 
HETATM    2  C5  UNL     1      21.749   1.019  52.577  1.00  0.00     0.064 C 
HETATM    3  C6  UNL     1      20.964   0.051  53.314  1.00  0.00     0.061 C 
HETATM    4  C15 UNL     1      21.426  -0.765  54.226  1.00  0.00     0.073 C 
HETATM    5  C16 UNL     1      22.732  -1.061  54.850  1.00  0.00     0.096 C 
HETATM    6  C17 UNL     1      23.889  -0.682  53.986  1.00  0.00     0.019 C 
HETATM    7  C18 UNL     1      24.016   0.194  53.006  1.00  0.00     0.092 C 
ENDROOT
BRANCH   3   8
HETATM    8  N2  UNL     1      19.581  -0.068  53.052  1.00  0.00    -0.370 N 
HETATM    9  H6  UNL     1      18.937  -0.010  53.888  1.00  0.00     0.161 HD
BRANCH   8  10
HETATM   10  C7  UNL     1      18.853  -0.255  51.779  1.00  0.00     0.265 C 
BRANCH  10  11
HETATM   11  N3  UNL     1      18.389   0.900  51.230  1.00  0.00    -0.300 NA
BRANCH  11  12
HETATM   12  C8  UNL     1      18.287   2.303  51.384  1.00  0.00     0.053 A 
HETATM   13  C9  UNL     1      17.483   3.918  51.586  1.00  0.00     0.023 A 
HETATM   14  C10 UNL     1      16.287   4.220  51.547  1.00  0.00    -0.016 A 
HETATM   15  C13 UNL     1      18.483   3.054  51.496  1.00  0.00     0.038 A 
HETATM   16  C12 UNL     1      17.054   2.254  51.288  1.00  0.00     0.023 A 
HETATM   17  C11 UNL     1      15.806   2.895  51.300  1.00  0.00    -0.016 A 
HETATM   18  C14 UNL     1      19.284   3.066  50.201  1.00  0.00     0.051 A 
ENDBRANCH  11  12
ENDBRANCH  10  11
ENDBRANCH   8  10
ENDBRANCH   3   8
BRANCH   4  19
HETATM   19  O2  UNL     1      20.533  -1.658  54.873  1.00  0.00    -0.362 OA
HETATM   20  H15 UNL     1      21.008  -2.333  55.490  1.00  0.00     0.217 HD
ENDBRANCH   4  19
BRANCH   1  21
HETATM   21  N1  UNL     1      23.637   2.138  51.638  1.00  0.00    -0.321 N 
HETATM   22  C3  UNL     1      23.382   2.475  50.287  1.00  0.00     0.245 C 
HETATM   23  O1  UNL     1      22.612   2.004  49.412  1.00  0.00    -0.268 OA
HETATM   24  H4  UNL     1      24.264   2.530  52.346  1.00  0.00     0.169 HD
BRANCH  22  25
HETATM   25  C2  UNL     1      24.187   3.624  49.800  1.00  0.00     0.064 C 
HETATM   26  C1  UNL     1      25.522   3.853  49.818  1.00  0.00     0.017 C 
ENDBRANCH  22  25
ENDBRANCH   1  21
BRANCH   7  27
HETATM   27  O3  UNL     1      25.357   0.169  52.524  1.00  0.00    -0.347 OA
BRANCH  27  28
HETATM   28  C19 UNL     1      26.234  -0.411  53.515  1.00  0.00     0.206 C 
BRANCH  28  29
HETATM   29  C20 UNL     1      27.530  -0.812  52.919  1.00  0.00     0.297 C 
BRANCH  29  30
HETATM   30  N4  UNL     1      28.679  -0.199  53.535  1.00  0.00     0.082 N 
HETATM   31  C21 UNL     1      28.306   0.230  54.867  1.00  0.00     0.309 C 
HETATM   32  C22 UNL     1      29.873  -0.983  53.498  1.00  0.00     0.309 C 
ENDBRANCH  29  30
ENDBRANCH  28  29
ENDBRANCH  27  28
ENDBRANCH   7  27
TORSDOF 12
ENDMDL
MODEL 9
REMARK VINA RESULT:      -6.6      1.907      7.095
REMARK  12 active torsions:
REMARK  status: ('A' for Active; 'I' for Inactive)
REMARK    1  A    between atoms: C2_2  and  C3_3 
REMARK       I    between atoms: C3_3  and  N1_5 
REMARK    2  A    between atoms: N1_5  and  C4_6 
REMARK    3  A    between atoms: C6_8  and  N2_9 
REMARK    4  A    between atoms: N2_9  and  C7_10 
REMARK    5  A    between atoms: C7_10  and  N3_11 
REMARK    6  A    between atoms: N3_11  and  C8_12 
REMARK    7  A    between atoms: C12_16  and  C13_17 
REMARK    8  A    between atoms: C15_19  and  O2_20 
REMARK    9  A    between atoms: C18_23  and  O3_24 
REMARK   10  A    between atoms: O3_24  and  C19_25 
REMARK   11  A    between atoms: C19_25  and  C20_26 
REMARK   12  A    between atoms: C20_26  and  N4_27 
ROOT
HETATM    1  C4  UNL     1      23.638   1.747  52.281  1.00  0.00     0.070 C 
HETATM    2  C5  UNL     1      22.340   2.023  52.368  1.00  0.00     0.064 C 
HETATM    3  C6  UNL     1      21.247   1.246  52.916  1.00  0.00     0.061 C 
HETATM    4  C15 UNL     1      21.373   0.225  53.724  1.00  0.00     0.073 C 
HETATM    5  C16 UNL     1      22.478  -0.515  54.367  1.00  0.00     0.096 C 
HETATM    6  C17 UNL     1      23.770  -0.390  53.629  1.00  0.00     0.019 C 
HETATM    7  C18 UNL     1      24.230   0.523  52.793  1.00  0.00     0.092 C 
ENDROOT
BRANCH   3   8
HETATM    8  N2  UNL     1      19.918   1.571  52.566  1.00  0.00    -0.370 N 
HETATM    9  H6  UNL     1      19.195   0.813  52.708  1.00  0.00     0.161 HD
BRANCH   8  10
HETATM   10  C7  UNL     1      19.339   2.822  52.032  1.00  0.00     0.265 C 
BRANCH  10  11
HETATM   11  N3  UNL     1      19.812   3.173  50.806  1.00  0.00    -0.300 NA
BRANCH  11  12
HETATM   12  C8  UNL     1      20.227   4.246  49.982  1.00  0.00     0.053 A 
HETATM   13  C9  UNL     1      21.155   5.727  49.491  1.00  0.00     0.023 A 
HETATM   14  C10 UNL     1      21.925   6.435  50.146  1.00  0.00    -0.016 A 
HETATM   15  C13 UNL     1      20.315   4.711  49.357  1.00  0.00     0.038 A 
HETATM   16  C12 UNL     1      20.918   4.718  50.893  1.00  0.00     0.023 A 
HETATM   17  C11 UNL     1      21.817   5.689  51.362  1.00  0.00    -0.016 A 
HETATM   18  C14 UNL     1      18.830   5.046  49.363  1.00  0.00     0.051 A 
ENDBRANCH  11  12
ENDBRANCH  10  11
ENDBRANCH   8  10
ENDBRANCH   3   8
BRANCH   4  19
HETATM   19  O2  UNL     1      20.208  -0.438  54.187  1.00  0.00    -0.362 OA
HETATM   20  H15 UNL     1      19.471  -0.515  53.471  1.00  0.00     0.217 HD
ENDBRANCH   4  19
BRANCH   1  21
HETATM   21  N1  UNL     1      24.546   2.644  51.701  1.00  0.00    -0.321 N 
HETATM   22  C3  UNL     1      24.522   3.205  50.401  1.00  0.00     0.245 C 
HETATM   23  O1  UNL     1      23.734   3.092  49.428  1.00  0.00    -0.268 OA
HETATM   24  H4  UNL     1      25.191   2.745  52.490  1.00  0.00     0.169 HD
BRANCH  22  25
HETATM   25  C2  UNL     1      25.662   4.118  50.127  1.00  0.00     0.064 C 
HETATM   26  C1  UNL     1      26.801   3.938  49.416  1.00  0.00     0.017 C 
ENDBRANCH  22  25
ENDBRANCH   1  21
BRANCH   7  27
HETATM   27  O3  UNL     1      25.547   0.165  52.385  1.00  0.00    -0.347 OA
BRANCH  27  28
HETATM   28  C19 UNL     1      26.167  -0.681  53.379  1.00  0.00     0.206 C 
BRANCH  28  29
HETATM   29  C20 UNL     1      27.525  -1.102  52.959  1.00  0.00     0.297 C 
BRANCH  29  30
HETATM   30  N4  UNL     1      28.589  -0.311  53.521  1.00  0.00     0.082 N 
HETATM   31  C21 UNL     1      28.140   0.218  54.792  1.00  0.00     0.309 C 
HETATM   32  C22 UNL     1      29.856  -0.969  53.589  1.00  0.00     0.309 C 
ENDBRANCH  29  30
ENDBRANCH  28  29
ENDBRANCH  27  28
ENDBRANCH   7  27
TORSDOF 12
ENDMDL
