MODEL 1
REMARK VINA RESULT:      -8.5      0.000      0.000
REMARK  7 active torsions:
REMARK  status: ('A' for Active; 'I' for Inactive)
REMARK    1  A    between atoms: N1_1  and  O1_2 
REMARK    2  A    between atoms: O1_2  and  C1_3 
REMARK    3  A    between atoms: N2_6  and  C3_7 
REMARK    4  A    between atoms: C3_7  and  C4_8 
REMARK    5  A    between atoms: C3_7  and  C12_17 
REMARK    6  A    between atoms: C4_8  and  C5_9 
REMARK    7  A    between atoms: C5_9  and  C6_10 
ROOT
HETATM    1  C3  UNL     1      26.324   0.970  52.805  1.00  0.00     0.126 C 
ENDROOT
BRANCH   1   2
HETATM    2  N2  UNL     1      27.045   0.954  54.013  1.00  0.00    -0.155 NA
HETATM    3  S1  UNL     1      28.677   1.566  53.748  1.00  0.00    -0.028 SA
HETATM    4  C2  UNL     1      29.417  -0.050  53.403  1.00  0.00     0.123 C 
HETATM    5  C1  UNL     1      28.495  -0.857  53.906  1.00  0.00     0.188 C 
HETATM    6  N3  UNL     1      27.320  -0.326  54.506  1.00  0.00    -0.286 N 
HETATM    7  H17 UNL     1      26.974  -1.075  55.179  1.00  0.00     0.184 HD
BRANCH   5   8
HETATM    8  O1  UNL     1      29.227  -1.983  53.551  1.00  0.00    -0.225 OA
BRANCH   8   9
HETATM    9  N1  UNL     1      28.639  -3.192  53.228  1.00  0.00    -0.304 N 
HETATM   10  H1  UNL     1      28.636  -3.873  54.003  1.00  0.00     0.184 HD
HETATM   11  H2  UNL     1      27.769  -3.108  52.686  1.00  0.00     0.184 HD
ENDBRANCH   8   9
ENDBRANCH   5   8
ENDBRANCH   1   2
BRANCH   1  12
HETATM   12  C4  UNL     1      26.430   2.251  52.064  1.00  0.00     0.032 C 
BRANCH  12  13
HETATM   13  C5  UNL     1      26.575   2.078  50.601  1.00  0.00     0.040 C 
BRANCH  13  14
HETATM   14  C6  UNL     1      26.113   3.370  49.935  1.00  0.00    -0.058 A 
HETATM   15  C7  UNL     1      27.034   4.233  49.394  1.00  0.00     0.009 A 
HETATM   16  C8  UNL     1      26.695   5.420  48.775  1.00  0.00     0.024 A 
HETATM   17  C9  UNL     1      25.336   5.745  48.705  1.00  0.00     0.034 A 
HETATM   18 CL1  UNL     1      24.719   7.207  47.958  1.00  0.00    -0.084 Cl
HETATM   19  C10 UNL     1      24.416   4.887  49.244  1.00  0.00     0.024 A 
HETATM   20  C11 UNL     1      24.754   3.689  49.870  1.00  0.00     0.009 A 
ENDBRANCH  13  14
ENDBRANCH  12  13
ENDBRANCH   1  12
BRANCH   1  21
HETATM   21  C12 UNL     1      24.859   0.706  52.984  1.00  0.00    -0.037 A 
HETATM   22  C13 UNL     1      24.032   1.805  52.891  1.00  0.00     0.010 A 
HETATM   23  C14 UNL     1      22.668   1.628  53.047  1.00  0.00     0.024 A 
HETATM   24  C15 UNL     1      22.173   0.365  53.292  1.00  0.00     0.034 A 
HETATM   25 CL2  UNL     1      20.446   0.166  53.487  1.00  0.00    -0.084 Cl
HETATM   26  C16 UNL     1      22.982  -0.763  53.392  1.00  0.00     0.024 A 
HETATM   27  C17 UNL     1      24.335  -0.547  53.231  1.00  0.00     0.010 A 
ENDBRANCH   1  21
TORSDOF 7
ENDMDL
MODEL 2
REMARK VINA RESULT:      -8.3      1.293      1.734
REMARK  7 active torsions:
REMARK  status: ('A' for Active; 'I' for Inactive)
REMARK    1  A    between atoms: N1_1  and  O1_2 
REMARK    2  A    between atoms: O1_2  and  C1_3 
REMARK    3  A    between atoms: N2_6  and  C3_7 
REMARK    4  A    between atoms: C3_7  and  C4_8 
REMARK    5  A    between atoms: C3_7  and  C12_17 
REMARK    6  A    between atoms: C4_8  and  C5_9 
REMARK    7  A    between atoms: C5_9  and  C6_10 
ROOT
HETATM    1  C3  UNL     1      26.121   1.586  52.336  1.00  0.00     0.126 C 
ENDROOT
BRANCH   1   2
HETATM    2  N2  UNL     1      26.641   1.508  53.640  1.00  0.00    -0.155 NA
HETATM    3  S1  UNL     1      28.354   1.926  53.631  1.00  0.00    -0.028 SA
HETATM    4  C2  UNL     1      28.949   0.231  53.401  1.00  0.00     0.123 C 
HETATM    5  C1  UNL     1      27.873  -0.458  53.755  1.00  0.00     0.188 C 
HETATM    6  N3  UNL     1      26.689   0.213  54.168  1.00  0.00    -0.286 N 
HETATM    7  H17 UNL     1      26.161  -0.481  54.778  1.00  0.00     0.184 HD
BRANCH   5   8
HETATM    8  O1  UNL     1      28.517  -1.666  53.515  1.00  0.00    -0.225 OA
BRANCH   8   9
HETATM    9  N1  UNL     1      27.865  -2.782  53.026  1.00  0.00    -0.304 N 
HETATM   10  H1  UNL     1      28.040  -3.639  53.574  1.00  0.00     0.184 HD
HETATM   11  H2  UNL     1      26.892  -2.612  52.738  1.00  0.00     0.184 HD
ENDBRANCH   8   9
ENDBRANCH   5   8
ENDBRANCH   1   2
BRANCH   1  12
HETATM   12  C4  UNL     1      26.817   2.574  51.474  1.00  0.00     0.032 C 
BRANCH  12  13
HETATM   13  C5  UNL     1      26.492   2.438  50.037  1.00  0.00     0.040 C 
BRANCH  13  14
HETATM   14  C6  UNL     1      26.308   3.842  49.470  1.00  0.00    -0.058 A 
HETATM   15  C7  UNL     1      25.056   4.404  49.413  1.00  0.00     0.009 A 
HETATM   16  C8  UNL     1      24.810   5.667  48.915  1.00  0.00     0.024 A 
HETATM   17  C9  UNL     1      25.905   6.401  48.448  1.00  0.00     0.034 A 
HETATM   18 CL1  UNL     1      25.785   8.019  47.782  1.00  0.00    -0.084 Cl
HETATM   19  C10 UNL     1      27.154   5.845  48.504  1.00  0.00     0.024 A 
HETATM   20  C11 UNL     1      27.408   4.569  49.005  1.00  0.00     0.009 A 
ENDBRANCH  13  14
ENDBRANCH  12  13
ENDBRANCH   1  12
BRANCH   1  21
HETATM   21  C12 UNL     1      24.666   1.943  52.297  1.00  0.00    -0.037 A 
HETATM   22  C13 UNL     1      24.347   3.218  52.712  1.00  0.00     0.010 A 
HETATM   23  C14 UNL     1      23.018   3.610  52.700  1.00  0.00     0.024 A 
HETATM   24  C15 UNL     1      22.054   2.720  52.278  1.00  0.00     0.034 A 
HETATM   25 CL2  UNL     1      20.383   3.237  52.273  1.00  0.00    -0.084 Cl
HETATM   26  C16 UNL     1      22.345   1.427  51.855  1.00  0.00     0.024 A 
HETATM   27  C17 UNL     1      23.679   1.074  51.880  1.00  0.00     0.010 A 
ENDBRANCH   1  21
TORSDOF 7
ENDMDL
MODEL 3
REMARK VINA RESULT:      -8.1      2.573      5.625
REMARK  7 active torsions:
REMARK  status: ('A' for Active; 'I' for Inactive)
REMARK    1  A    between atoms: N1_1  and  O1_2 
REMARK    2  A    between atoms: O1_2  and  C1_3 
REMARK    3  A    between atoms: N2_6  and  C3_7 
REMARK    4  A    between atoms: C3_7  and  C4_8 
REMARK    5  A    between atoms: C3_7  and  C12_17 
REMARK    6  A    between atoms: C4_8  and  C5_9 
REMARK    7  A    between atoms: C5_9  and  C6_10 
ROOT
HETATM    1  C3  UNL     1      25.003   0.997  52.769  1.00  0.00     0.126 C 
ENDROOT
BRANCH   1   2
HETATM    2  N2  UNL     1      26.214   0.684  52.127  1.00  0.00    -0.155 NA
HETATM    3  S1  UNL     1      26.828  -0.860  52.718  1.00  0.00    -0.028 SA
HETATM    4  C2  UNL     1      27.833  -0.153  54.048  1.00  0.00     0.123 C 
HETATM    5  C1  UNL     1      27.913   1.110  53.654  1.00  0.00     0.188 C 
HETATM    6  N3  UNL     1      27.278   1.533  52.453  1.00  0.00    -0.286 N 
HETATM    7  H17 UNL     1      27.808   2.399  52.135  1.00  0.00     0.184 HD
BRANCH   5   8
HETATM    8  O1  UNL     1      28.683   1.450  54.758  1.00  0.00    -0.225 OA
BRANCH   8   9
HETATM    9  N1  UNL     1      29.804   2.255  54.675  1.00  0.00    -0.304 N 
HETATM   10  H1  UNL     1      29.598   3.227  54.394  1.00  0.00     0.184 HD
HETATM   11  H2  UNL     1      30.472   2.132  55.447  1.00  0.00     0.184 HD
ENDBRANCH   8   9
ENDBRANCH   5   8
ENDBRANCH   1   2
BRANCH   1  12
HETATM   12  C4  UNL     1      23.963  -0.052  52.626  1.00  0.00     0.032 C 
BRANCH  12  13
HETATM   13  C5  UNL     1      23.019  -0.110  53.764  1.00  0.00     0.040 C 
BRANCH  13  14
HETATM   14  C6  UNL     1      21.607  -0.162  53.191  1.00  0.00    -0.058 A 
HETATM   15  C7  UNL     1      21.345   0.377  51.955  1.00  0.00     0.009 A 
HETATM   16  C8  UNL     1      20.095   0.368  51.370  1.00  0.00     0.024 A 
HETATM   17  C9  UNL     1      19.051  -0.225  52.088  1.00  0.00     0.034 A 
HETATM   18 CL1  UNL     1      17.400  -0.328  51.505  1.00  0.00    -0.084 Cl
HETATM   19  C10 UNL     1      19.309  -0.763  53.319  1.00  0.00     0.024 A 
HETATM   20  C11 UNL     1      20.569  -0.756  53.915  1.00  0.00     0.009 A 
ENDBRANCH  13  14
ENDBRANCH  12  13
ENDBRANCH   1  12
BRANCH   1  21
HETATM   21  C12 UNL     1      24.385   2.273  52.283  1.00  0.00    -0.037 A 
HETATM   22  C13 UNL     1      24.116   2.336  50.931  1.00  0.00     0.010 A 
HETATM   23  C14 UNL     1      23.544   3.488  50.418  1.00  0.00     0.024 A 
HETATM   24  C15 UNL     1      23.262   4.538  51.265  1.00  0.00     0.034 A 
HETATM   25 CL2  UNL     1      22.541   5.984  50.594  1.00  0.00    -0.084 Cl
HETATM   26  C16 UNL     1      23.523   4.505  52.632  1.00  0.00     0.024 A 
HETATM   27  C17 UNL     1      24.091   3.340  53.106  1.00  0.00     0.010 A 
ENDBRANCH   1  21
TORSDOF 7
ENDMDL
MODEL 4
REMARK VINA RESULT:      -7.7      4.467      5.851
REMARK  7 active torsions:
REMARK  status: ('A' for Active; 'I' for Inactive)
REMARK    1  A    between atoms: N1_1  and  O1_2 
REMARK    2  A    between atoms: O1_2  and  C1_3 
REMARK    3  A    between atoms: N2_6  and  C3_7 
REMARK    4  A    between atoms: C3_7  and  C4_8 
REMARK    5  A    between atoms: C3_7  and  C12_17 
REMARK    6  A    between atoms: C4_8  and  C5_9 
REMARK    7  A    between atoms: C5_9  and  C6_10 
ROOT
HETATM    1  C3  UNL     1      22.997   2.007  52.004  1.00  0.00     0.126 C 
ENDROOT
BRANCH   1   2
HETATM    2  N2  UNL     1      21.954   1.068  52.096  1.00  0.00    -0.155 NA
HETATM    3  S1  UNL     1      21.113   0.948  50.551  1.00  0.00    -0.028 SA
HETATM    4  C2  UNL     1      19.872   2.213  50.927  1.00  0.00     0.123 C 
HETATM    5  C1  UNL     1      19.976   2.276  52.247  1.00  0.00     0.188 C 
HETATM    6  N3  UNL     1      20.904   1.450  52.939  1.00  0.00    -0.286 N 
HETATM    7  H17 UNL     1      20.526   1.355  53.929  1.00  0.00     0.184 HD
BRANCH   5   8
HETATM    8  O1  UNL     1      18.991   3.253  52.319  1.00  0.00    -0.225 OA
BRANCH   8   9
HETATM    9  N1  UNL     1      17.985   3.378  51.379  1.00  0.00    -0.304 N 
HETATM   10  H1  UNL     1      17.244   4.045  51.649  1.00  0.00     0.184 HD
HETATM   11  H2  UNL     1      18.317   3.430  50.407  1.00  0.00     0.184 HD
ENDBRANCH   8   9
ENDBRANCH   5   8
ENDBRANCH   1   2
BRANCH   1  12
HETATM   12  C4  UNL     1      23.417   2.296  50.610  1.00  0.00     0.032 C 
BRANCH  12  13
HETATM   13  C5  UNL     1      23.260   3.717  50.227  1.00  0.00     0.040 C 
BRANCH  13  14
HETATM   14  C6  UNL     1      24.611   4.212  49.723  1.00  0.00    -0.058 A 
HETATM   15  C7  UNL     1      25.702   3.377  49.742  1.00  0.00     0.009 A 
HETATM   16  C8  UNL     1      26.956   3.751  49.303  1.00  0.00     0.024 A 
HETATM   17  C9  UNL     1      27.106   5.054  48.816  1.00  0.00     0.034 A 
HETATM   18 CL1  UNL     1      28.621   5.703  48.217  1.00  0.00    -0.084 Cl
HETATM   19  C10 UNL     1      26.022   5.888  48.795  1.00  0.00     0.024 A 
HETATM   20  C11 UNL     1      24.754   5.515  49.237  1.00  0.00     0.009 A 
ENDBRANCH  13  14
ENDBRANCH  12  13
ENDBRANCH   1  12
BRANCH   1  21
HETATM   21  C12 UNL     1      24.235   1.594  52.740  1.00  0.00    -0.037 A 
HETATM   22  C13 UNL     1      24.441   0.235  52.860  1.00  0.00     0.010 A 
HETATM   23  C14 UNL     1      25.568  -0.212  53.530  1.00  0.00     0.024 A 
HETATM   24  C15 UNL     1      26.449   0.707  54.059  1.00  0.00     0.034 A 
HETATM   25 CL2  UNL     1      27.864   0.118  54.902  1.00  0.00    -0.084 Cl
HETATM   26  C16 UNL     1      26.268   2.083  53.956  1.00  0.00     0.024 A 
HETATM   27  C17 UNL     1      25.135   2.489  53.281  1.00  0.00     0.010 A 
ENDBRANCH   1  21
TORSDOF 7
ENDMDL
MODEL 5
REMARK VINA RESULT:      -7.6      4.579      6.330
REMARK  7 active torsions:
REMARK  status: ('A' for Active; 'I' for Inactive)
REMARK    1  A    between atoms: N1_1  and  O1_2 
REMARK    2  A    between atoms: O1_2  and  C1_3 
REMARK    3  A    between atoms: N2_6  and  C3_7 
REMARK    4  A    between atoms: C3_7  and  C4_8 
REMARK    5  A    between atoms: C3_7  and  C12_17 
REMARK    6  A    between atoms: C4_8  and  C5_9 
REMARK    7  A    between atoms: C5_9  and  C6_10 
ROOT
HETATM    1  C3  UNL     1      22.561   2.409  52.109  1.00  0.00     0.126 C 
ENDROOT
BRANCH   1   2
HETATM    2  N2  UNL     1      22.227   3.047  50.901  1.00  0.00    -0.155 NA
HETATM    3  S1  UNL     1      23.556   2.899  49.753  1.00  0.00    -0.028 SA
HETATM    4  C2  UNL     1      24.373   4.444  50.227  1.00  0.00     0.123 C 
HETATM    5  C1  UNL     1      23.387   5.060  50.863  1.00  0.00     0.188 C 
HETATM    6  N3  UNL     1      22.114   4.439  50.995  1.00  0.00    -0.286 N 
HETATM    7  H17 UNL     1      21.417   5.232  51.131  1.00  0.00     0.184 HD
BRANCH   5   8
HETATM    8  O1  UNL     1      24.189   6.162  51.127  1.00  0.00    -0.225 OA
BRANCH   8   9
HETATM    9  N1  UNL     1      24.366   6.677  52.398  1.00  0.00    -0.304 N 
HETATM   10  H1  UNL     1      24.031   7.648  52.503  1.00  0.00     0.184 HD
HETATM   11  H2  UNL     1      24.128   6.024  53.157  1.00  0.00     0.184 HD
ENDBRANCH   8   9
ENDBRANCH   5   8
ENDBRANCH   1   2
BRANCH   1  12
HETATM   12  C4  UNL     1      23.880   1.729  52.078  1.00  0.00     0.032 C 
BRANCH  12  13
HETATM   13  C5  UNL     1      24.813   2.198  53.127  1.00  0.00     0.040 C 
BRANCH  13  14
HETATM   14  C6  UNL     1      25.982   1.220  53.177  1.00  0.00    -0.058 A 
HETATM   15  C7  UNL     1      25.840  -0.050  52.673  1.00  0.00     0.009 A 
HETATM   16  C8  UNL     1      26.850  -0.990  52.682  1.00  0.00     0.024 A 
HETATM   17  C9  UNL     1      28.078  -0.613  53.237  1.00  0.00     0.034 A 
HETATM   18 CL1  UNL     1      29.472  -1.672  53.335  1.00  0.00    -0.084 Cl
HETATM   19  C10 UNL     1      28.222   0.651  53.740  1.00  0.00     0.024 A 
HETATM   20  C11 UNL     1      27.205   1.604  53.734  1.00  0.00     0.009 A 
ENDBRANCH  13  14
ENDBRANCH  12  13
ENDBRANCH   1  12
BRANCH   1  21
HETATM   21  C12 UNL     1      21.563   1.374  52.530  1.00  0.00    -0.037 A 
HETATM   22  C13 UNL     1      20.423   1.286  51.758  1.00  0.00     0.010 A 
HETATM   23  C14 UNL     1      19.461   0.348  52.095  1.00  0.00     0.024 A 
HETATM   24  C15 UNL     1      19.664  -0.467  53.188  1.00  0.00     0.034 A 
HETATM   25 CL2  UNL     1      18.434  -1.642  53.595  1.00  0.00    -0.084 Cl
HETATM   26  C16 UNL     1      20.802  -0.401  53.986  1.00  0.00     0.024 A 
HETATM   27  C17 UNL     1      21.738   0.544  53.618  1.00  0.00     0.010 A 
ENDBRANCH   1  21
TORSDOF 7
ENDMDL
MODEL 6
REMARK VINA RESULT:      -7.5      4.055      6.777
REMARK  7 active torsions:
REMARK  status: ('A' for Active; 'I' for Inactive)
REMARK    1  A    between atoms: N1_1  and  O1_2 
REMARK    2  A    between atoms: O1_2  and  C1_3 
REMARK    3  A    between atoms: N2_6  and  C3_7 
REMARK    4  A    between atoms: C3_7  and  C4_8 
REMARK    5  A    between atoms: C3_7  and  C12_17 
REMARK    6  A    between atoms: C4_8  and  C5_9 
REMARK    7  A    between atoms: C5_9  and  C6_10 
ROOT
HETATM    1  C3  UNL     1      24.885   1.420  52.021  1.00  0.00     0.126 C 
ENDROOT
BRANCH   1   2
HETATM    2  N2  UNL     1      25.046   2.778  51.693  1.00  0.00    -0.155 NA
HETATM    3  S1  UNL     1      23.571   3.668  52.066  1.00  0.00    -0.028 SA
HETATM    4  C2  UNL     1      22.823   3.465  50.429  1.00  0.00     0.123 C 
HETATM    5  C1  UNL     1      23.886   3.131  49.711  1.00  0.00     0.188 C 
HETATM    6  N3  UNL     1      25.167   3.032  50.321  1.00  0.00    -0.286 N 
HETATM    7  H17 UNL     1      25.873   3.182  49.539  1.00  0.00     0.184 HD
BRANCH   5   8
HETATM    8  O1  UNL     1      23.125   3.028  48.554  1.00  0.00    -0.225 OA
BRANCH   8   9
HETATM    9  N1  UNL     1      22.369   1.911  48.248  1.00  0.00    -0.304 N 
HETATM   10  H1  UNL     1      22.932   1.077  48.021  1.00  0.00     0.184 HD
HETATM   11  H2  UNL     1      21.560   1.765  48.866  1.00  0.00     0.184 HD
ENDBRANCH   8   9
ENDBRANCH   5   8
ENDBRANCH   1   2
BRANCH   1  12
HETATM   12  C4  UNL     1      23.888   1.181  53.095  1.00  0.00     0.032 C 
BRANCH  12  13
HETATM   13  C5  UNL     1      23.356  -0.200  53.112  1.00  0.00     0.040 C 
BRANCH  13  14
HETATM   14  C6  UNL     1      21.882  -0.132  52.728  1.00  0.00    -0.058 A 
HETATM   15  C7  UNL     1      20.917  -0.505  53.631  1.00  0.00     0.009 A 
HETATM   16  C8  UNL     1      19.564  -0.471  53.358  1.00  0.00     0.024 A 
HETATM   17  C9  UNL     1      19.173  -0.031  52.090  1.00  0.00     0.034 A 
HETATM   18 CL1  UNL     1      17.503   0.079  51.566  1.00  0.00    -0.084 Cl
HETATM   19  C10 UNL     1      20.132   0.342  51.187  1.00  0.00     0.024 A 
HETATM   20  C11 UNL     1      21.499   0.309  51.458  1.00  0.00     0.009 A 
ENDBRANCH  13  14
ENDBRANCH  12  13
ENDBRANCH   1  12
BRANCH   1  21
HETATM   21  C12 UNL     1      26.155   0.763  52.470  1.00  0.00    -0.037 A 
HETATM   22  C13 UNL     1      27.093   1.594  53.045  1.00  0.00     0.010 A 
HETATM   23  C14 UNL     1      28.289   1.047  53.481  1.00  0.00     0.024 A 
HETATM   24  C15 UNL     1      28.510  -0.305  53.329  1.00  0.00     0.034 A 
HETATM   25 CL2  UNL     1      30.028  -0.972  53.886  1.00  0.00    -0.084 Cl
HETATM   26  C16 UNL     1      27.583  -1.168  52.752  1.00  0.00     0.024 A 
HETATM   27  C17 UNL     1      26.405  -0.587  52.331  1.00  0.00     0.010 A 
ENDBRANCH   1  21
TORSDOF 7
ENDMDL
MODEL 7
REMARK VINA RESULT:      -7.5      7.342     10.025
REMARK  7 active torsions:
REMARK  status: ('A' for Active; 'I' for Inactive)
REMARK    1  A    between atoms: N1_1  and  O1_2 
REMARK    2  A    between atoms: O1_2  and  C1_3 
REMARK    3  A    between atoms: N2_6  and  C3_7 
REMARK    4  A    between atoms: C3_7  and  C4_8 
REMARK    5  A    between atoms: C3_7  and  C12_17 
REMARK    6  A    between atoms: C4_8  and  C5_9 
REMARK    7  A    between atoms: C5_9  and  C6_10 
ROOT
HETATM    1  C3  UNL     1      32.259   7.117  47.814  1.00  0.00     0.126 C 
ENDROOT
BRANCH   1   2
HETATM    2  N2  UNL     1      33.494   7.089  47.142  1.00  0.00    -0.155 NA
HETATM    3  S1  UNL     1      33.845   5.451  46.593  1.00  0.00    -0.028 SA
HETATM    4  C2  UNL     1      34.758   4.959  48.079  1.00  0.00     0.123 C 
HETATM    5  C1  UNL     1      35.033   6.145  48.603  1.00  0.00     0.188 C 
HETATM    6  N3  UNL     1      34.603   7.338  47.958  1.00  0.00    -0.286 N 
HETATM    7  H17 UNL     1      35.266   8.101  48.290  1.00  0.00     0.184 HD
BRANCH   5   8
HETATM    8  O1  UNL     1      35.697   5.562  49.675  1.00  0.00    -0.225 OA
BRANCH   8   9
HETATM    9  N1  UNL     1      36.954   5.963  50.088  1.00  0.00    -0.304 N 
HETATM   10  H1  UNL     1      36.956   6.849  50.618  1.00  0.00     0.184 HD
HETATM   11  H2  UNL     1      37.540   5.204  50.462  1.00  0.00     0.184 HD
ENDBRANCH   8   9
ENDBRANCH   5   8
ENDBRANCH   1   2
BRANCH   1  12
HETATM   12  C4  UNL     1      31.166   6.430  47.081  1.00  0.00     0.032 C 
BRANCH  12  13
HETATM   13  C5  UNL     1      30.449   5.422  47.895  1.00  0.00     0.040 C 
BRANCH  13  14
HETATM   14  C6  UNL     1      28.998   5.873  48.015  1.00  0.00    -0.058 A 
HETATM   15  C7  UNL     1      28.612   7.094  47.517  1.00  0.00     0.009 A 
HETATM   16  C8  UNL     1      27.319   7.571  47.587  1.00  0.00     0.024 A 
HETATM   17  C9  UNL     1      26.363   6.755  48.201  1.00  0.00     0.034 A 
HETATM   18 CL1  UNL     1      24.674   7.194  48.381  1.00  0.00    -0.084 Cl
HETATM   19  C10 UNL     1      26.744   5.538  48.698  1.00  0.00     0.024 A 
HETATM   20  C11 UNL     1      28.048   5.053  48.631  1.00  0.00     0.009 A 
ENDBRANCH  13  14
ENDBRANCH  12  13
ENDBRANCH   1  12
BRANCH   1  21
HETATM   21  C12 UNL     1      31.769   8.504  48.100  1.00  0.00    -0.037 A 
HETATM   22  C13 UNL     1      31.274   8.719  49.369  1.00  0.00     0.010 A 
HETATM   23  C14 UNL     1      30.805   9.981  49.696  1.00  0.00     0.024 A 
HETATM   24  C15 UNL     1      30.842  10.983  48.750  1.00  0.00     0.034 A 
HETATM   25 CL2  UNL     1      30.244  12.567  49.186  1.00  0.00    -0.084 Cl
HETATM   26  C16 UNL     1      31.335  10.796  47.462  1.00  0.00     0.024 A 
HETATM   27  C17 UNL     1      31.794   9.527  47.174  1.00  0.00     0.010 A 
ENDBRANCH   1  21
TORSDOF 7
ENDMDL
MODEL 8
REMARK VINA RESULT:      -7.5      4.628      7.289
REMARK  7 active torsions:
REMARK  status: ('A' for Active; 'I' for Inactive)
REMARK    1  A    between atoms: N1_1  and  O1_2 
REMARK    2  A    between atoms: O1_2  and  C1_3 
REMARK    3  A    between atoms: N2_6  and  C3_7 
REMARK    4  A    between atoms: C3_7  and  C4_8 
REMARK    5  A    between atoms: C3_7  and  C12_17 
REMARK    6  A    between atoms: C4_8  and  C5_9 
REMARK    7  A    between atoms: C5_9  and  C6_10 
ROOT
HETATM    1  C3  UNL     1      23.411   3.212  50.906  1.00  0.00     0.126 C 
ENDROOT
BRANCH   1   2
HETATM    2  N2  UNL     1      22.241   3.946  50.641  1.00  0.00    -0.155 NA
HETATM    3  S1  UNL     1      21.032   3.623  51.883  1.00  0.00    -0.028 SA
HETATM    4  C2  UNL     1      20.246   2.244  51.010  1.00  0.00     0.123 C 
HETATM    5  C1  UNL     1      20.691   2.446  49.778  1.00  0.00     0.188 C 
HETATM    6  N3  UNL     1      21.552   3.541  49.491  1.00  0.00    -0.286 N 
HETATM    7  H17 UNL     1      21.425   3.746  48.455  1.00  0.00     0.184 HD
BRANCH   5   8
HETATM    8  O1  UNL     1      20.003   1.336  49.303  1.00  0.00    -0.225 OA
BRANCH   8   9
HETATM    9  N1  UNL     1      18.679   1.084  49.610  1.00  0.00    -0.304 N 
HETATM   10  H1  UNL     1      18.335   0.178  49.253  1.00  0.00     0.184 HD
HETATM   11  H2  UNL     1      18.412   1.330  50.572  1.00  0.00     0.184 HD
ENDBRANCH   8   9
ENDBRANCH   5   8
ENDBRANCH   1   2
BRANCH   1  12
HETATM   12  C4  UNL     1      23.727   3.098  52.351  1.00  0.00     0.032 C 
BRANCH  12  13
HETATM   13  C5  UNL     1      23.796   1.700  52.833  1.00  0.00     0.040 C 
BRANCH  13  14
HETATM   14  C6  UNL     1      25.269   1.335  52.986  1.00  0.00    -0.058 A 
HETATM   15  C7  UNL     1      26.139   2.218  53.577  1.00  0.00     0.009 A 
HETATM   16  C8  UNL     1      27.484   1.960  53.751  1.00  0.00     0.024 A 
HETATM   17  C9  UNL     1      27.970   0.730  53.295  1.00  0.00     0.034 A 
HETATM   18 CL1  UNL     1      29.645   0.231  53.430  1.00  0.00    -0.084 Cl
HETATM   19  C10 UNL     1      27.105  -0.151  52.705  1.00  0.00     0.024 A 
HETATM   20  C11 UNL     1      25.747   0.104  52.527  1.00  0.00     0.009 A 
ENDBRANCH  13  14
ENDBRANCH  12  13
ENDBRANCH   1  12
BRANCH   1  21
HETATM   21  C12 UNL     1      24.632   3.784  50.251  1.00  0.00    -0.037 A 
HETATM   22  C13 UNL     1      24.585   5.131  49.958  1.00  0.00     0.010 A 
HETATM   23  C14 UNL     1      25.682   5.720  49.352  1.00  0.00     0.024 A 
HETATM   24  C15 UNL     1      26.786   4.950  49.057  1.00  0.00     0.034 A 
HETATM   25 CL2  UNL     1      28.159   5.716  48.290  1.00  0.00    -0.084 Cl
HETATM   26  C16 UNL     1      26.863   3.590  49.339  1.00  0.00     0.024 A 
HETATM   27  C17 UNL     1      25.752   3.039  49.943  1.00  0.00     0.010 A 
ENDBRANCH   1  21
TORSDOF 7
ENDMDL
MODEL 9
REMARK VINA RESULT:      -7.4      4.822      7.146
REMARK  7 active torsions:
REMARK  status: ('A' for Active; 'I' for Inactive)
REMARK    1  A    between atoms: N1_1  and  O1_2 
REMARK    2  A    between atoms: O1_2  and  C1_3 
REMARK    3  A    between atoms: N2_6  and  C3_7 
REMARK    4  A    between atoms: C3_7  and  C4_8 
REMARK    5  A    between atoms: C3_7  and  C12_17 
REMARK    6  A    between atoms: C4_8  and  C5_9 
REMARK    7  A    between atoms: C5_9  and  C6_10 
ROOT
HETATM    1  C3  UNL     1      21.944   0.801  52.582  1.00  0.00     0.126 C 
ENDROOT
BRANCH   1   2
HETATM    2  N2  UNL     1      20.695   1.257  53.042  1.00  0.00    -0.155 NA
HETATM    3  S1  UNL     1      19.619  -0.111  53.318  1.00  0.00    -0.028 SA
HETATM    4  C2  UNL     1      18.896  -0.105  51.657  1.00  0.00     0.123 C 
HETATM    5  C1  UNL     1      19.226   1.112  51.249  1.00  0.00     0.188 C 
HETATM    6  N3  UNL     1      19.961   1.984  52.099  1.00  0.00    -0.286 N 
HETATM    7  H17 UNL     1      19.738   2.970  51.765  1.00  0.00     0.184 HD
BRANCH   5   8
HETATM    8  O1  UNL     1      18.607   0.913  50.021  1.00  0.00    -0.225 OA
BRANCH   8   9
HETATM    9  N1  UNL     1      18.817   1.737  48.931  1.00  0.00    -0.304 N 
HETATM   10  H1  UNL     1      19.505   1.368  48.256  1.00  0.00     0.184 HD
HETATM   11  H2  UNL     1      17.958   2.144  48.536  1.00  0.00     0.184 HD
ENDBRANCH   8   9
ENDBRANCH   5   8
ENDBRANCH   1   2
BRANCH   1  12
HETATM   12  C4  UNL     1      22.773   0.169  53.638  1.00  0.00     0.032 C 
BRANCH  12  13
HETATM   13  C5  UNL     1      23.723  -0.841  53.119  1.00  0.00     0.040 C 
BRANCH  13  14
HETATM   14  C6  UNL     1      25.134  -0.326  53.379  1.00  0.00    -0.058 A 
HETATM   15  C7  UNL     1      25.909   0.117  52.335  1.00  0.00     0.009 A 
HETATM   16  C8  UNL     1      27.193   0.598  52.490  1.00  0.00     0.024 A 
HETATM   17  C9  UNL     1      27.719   0.628  53.786  1.00  0.00     0.034 A 
HETATM   18 CL1  UNL     1      29.329   1.205  54.174  1.00  0.00    -0.084 Cl
HETATM   19  C10 UNL     1      26.949   0.188  54.828  1.00  0.00     0.024 A 
HETATM   20  C11 UNL     1      25.652  -0.299  54.677  1.00  0.00     0.009 A 
ENDBRANCH  13  14
ENDBRANCH  12  13
ENDBRANCH   1  12
BRANCH   1  21
HETATM   21  C12 UNL     1      22.785   1.884  51.977  1.00  0.00    -0.037 A 
HETATM   22  C13 UNL     1      22.971   1.812  50.612  1.00  0.00     0.010 A 
HETATM   23  C14 UNL     1      23.739   2.783  49.992  1.00  0.00     0.024 A 
HETATM   24  C15 UNL     1      24.296   3.790  50.749  1.00  0.00     0.034 A 
HETATM   25 CL2  UNL     1      25.263   5.005  49.943  1.00  0.00    -0.084 Cl
HETATM   26  C16 UNL     1      24.127   3.890  52.127  1.00  0.00     0.024 A 
HETATM   27  C17 UNL     1      23.356   2.905  52.709  1.00  0.00     0.010 A 
ENDBRANCH   1  21
TORSDOF 7
ENDMDL
