MODEL 1
REMARK VINA RESULT:     -10.0      0.000      0.000
REMARK  2 active torsions:
REMARK  status: ('A' for Active; 'I' for Inactive)
REMARK    1  A    between atoms: O1_2  and  C2_3 
REMARK    2  A    between atoms: C5_9  and  C6_10 
ROOT
HETATM    1  C2  UNL     1      20.618   1.985  52.013  1.00  0.00     0.125 C 
HETATM    2  C3  UNL     1      21.492   1.443  52.821  1.00  0.00     0.094 C 
HETATM    3  C4  UNL     1      22.441   0.568  53.466  1.00  0.00     0.084 A 
HETATM    4  N1  UNL     1      21.877  -0.221  54.310  1.00  0.00    -0.111 NA
HETATM    5  O2  UNL     1      22.568  -1.157  55.052  1.00  0.00    -0.131 OA
HETATM    6  N2  UNL     1      23.913  -1.254  54.884  1.00  0.00    -0.238 N 
HETATM    7  C5  UNL     1      24.551  -0.388  53.955  1.00  0.00     0.079 A 
HETATM    8  C12 UNL     1      23.863   0.492  53.269  1.00  0.00     0.021 A 
HETATM    9  C13 UNL     1      24.674   1.272  52.421  1.00  0.00     0.012 C 
HETATM   10  C14 UNL     1      25.434   2.190  51.934  1.00  0.00    -0.024 C 
HETATM   11  C15 UNL     1      26.139   2.566  50.680  1.00  0.00     0.043 C 
HETATM   12  C16 UNL     1      25.667   3.966  50.293  1.00  0.00     0.112 C 
HETATM   13  N3  UNL     1      24.237   3.925  50.163  1.00  0.00    -0.228 NA
HETATM   14 CL1  UNL     1      23.714   2.940  48.843  1.00  0.00    -0.022 Cl
HETATM   15  C17 UNL     1      23.679   5.262  50.016  1.00  0.00     0.110 C 
HETATM   16  C18 UNL     1      22.168   5.146  49.936  1.00  0.00     0.042 C 
HETATM   17  C19 UNL     1      21.769   4.336  51.157  1.00  0.00     0.169 C 
HETATM   18  O3  UNL     1      20.400   4.215  51.296  1.00  0.00    -0.388 OA
HETATM   19  C20 UNL     1      20.082   3.354  52.352  1.00  0.00     0.209 C 
HETATM   20  H5  UNL     1      24.313  -1.989  55.491  1.00  0.00     0.197 HD
ENDROOT
BRANCH   7  21
HETATM   21  C6  UNL     1      25.985  -0.538  53.827  1.00  0.00    -0.006 A 
HETATM   22  C7  UNL     1      26.676   0.160  54.808  1.00  0.00     0.017 A 
HETATM   23  C8  UNL     1      28.057   0.211  54.897  1.00  0.00     0.043 A 
HETATM   24  C9  UNL     1      28.831  -0.454  53.979  1.00  0.00     0.116 A 
HETATM   25  F1  UNL     1      30.172  -0.520  53.904  1.00  0.00    -0.206 F 
HETATM   26  C10 UNL     1      28.178  -1.155  52.994  1.00  0.00     0.043 A 
HETATM   27  C11 UNL     1      26.806  -1.184  52.934  1.00  0.00     0.017 A 
ENDBRANCH   7  21
BRANCH   1  28
HETATM   28  O1  UNL     1      19.885   1.788  50.810  1.00  0.00    -0.379 OA
HETATM   29  C1  UNL     1      20.475   1.131  49.710  1.00  0.00     0.202 C 
ENDBRANCH   1  28
TORSDOF 2
ENDMDL
MODEL 2
REMARK VINA RESULT:      -9.2      2.397      4.526
REMARK  2 active torsions:
REMARK  status: ('A' for Active; 'I' for Inactive)
REMARK    1  A    between atoms: O1_2  and  C2_3 
REMARK    2  A    between atoms: C5_9  and  C6_10 
ROOT
HETATM    1  C2  UNL     1      20.709   2.584  50.816  1.00  0.00     0.125 C 
HETATM    2  C3  UNL     1      21.978   2.331  50.625  1.00  0.00     0.094 C 
HETATM    3  C4  UNL     1      23.421   2.327  50.662  1.00  0.00     0.084 A 
HETATM    4  N1  UNL     1      23.931   3.114  49.783  1.00  0.00    -0.111 NA
HETATM    5  O2  UNL     1      25.289   3.290  49.621  1.00  0.00    -0.131 OA
HETATM    6  N2  UNL     1      26.135   2.601  50.431  1.00  0.00    -0.238 N 
HETATM    7  C5  UNL     1      25.586   1.727  51.408  1.00  0.00     0.079 A 
HETATM    8  C12 UNL     1      24.288   1.581  51.531  1.00  0.00     0.021 A 
HETATM    9  C13 UNL     1      23.941   0.655  52.535  1.00  0.00     0.012 C 
HETATM   10  C14 UNL     1      23.646  -0.419  53.181  1.00  0.00    -0.024 C 
HETATM   11  C15 UNL     1      23.285  -0.887  54.546  1.00  0.00     0.043 C 
HETATM   12  C16 UNL     1      21.952  -1.625  54.437  1.00  0.00     0.112 C 
HETATM   13  N3  UNL     1      20.996  -0.719  53.864  1.00  0.00    -0.228 NA
HETATM   14 CL1  UNL     1      20.637   0.616  54.900  1.00  0.00    -0.022 Cl
HETATM   15  C17 UNL     1      19.758  -1.404  53.516  1.00  0.00     0.110 C 
HETATM   16  C18 UNL     1      18.819  -0.401  52.872  1.00  0.00     0.042 C 
HETATM   17  C19 UNL     1      19.625   0.231  51.750  1.00  0.00     0.169 C 
HETATM   18  O3  UNL     1      18.882   1.111  50.988  1.00  0.00    -0.388 OA
HETATM   19  C20 UNL     1      19.694   1.767  50.055  1.00  0.00     0.209 C 
HETATM   20  H5  UNL     1      27.121   2.819  50.214  1.00  0.00     0.197 HD
ENDROOT
BRANCH   7  21
HETATM   21  C6  UNL     1      26.539   1.017  52.234  1.00  0.00    -0.006 A 
HETATM   22  C7  UNL     1      27.149   1.847  53.164  1.00  0.00     0.017 A 
HETATM   23  C8  UNL     1      28.122   1.429  54.057  1.00  0.00     0.043 A 
HETATM   24  C9  UNL     1      28.541   0.122  54.057  1.00  0.00     0.116 A 
HETATM   25  F1  UNL     1      29.464  -0.462  54.841  1.00  0.00    -0.206 F 
HETATM   26  C10 UNL     1      27.957  -0.726  53.147  1.00  0.00     0.043 A 
HETATM   27  C11 UNL     1      26.995  -0.279  52.276  1.00  0.00     0.017 A 
ENDBRANCH   7  21
BRANCH   1  28
HETATM   28  O1  UNL     1      19.793   3.407  51.528  1.00  0.00    -0.379 OA
HETATM   29  C1  UNL     1      19.114   4.458  50.876  1.00  0.00     0.202 C 
ENDBRANCH   1  28
TORSDOF 2
ENDMDL
MODEL 3
REMARK VINA RESULT:      -8.8      3.705      7.345
REMARK  2 active torsions:
REMARK  status: ('A' for Active; 'I' for Inactive)
REMARK    1  A    between atoms: O1_2  and  C2_3 
REMARK    2  A    between atoms: C5_9  and  C6_10 
ROOT
HETATM    1  C2  UNL     1      26.512  -0.072  53.534  1.00  0.00     0.125 C 
HETATM    2  C3  UNL     1      26.251   0.983  52.806  1.00  0.00     0.094 C 
HETATM    3  C4  UNL     1      26.017   1.908  51.723  1.00  0.00     0.084 A 
HETATM    4  N1  UNL     1      27.095   2.503  51.353  1.00  0.00    -0.111 NA
HETATM    5  O2  UNL     1      27.136   3.431  50.332  1.00  0.00    -0.131 OA
HETATM    6  N2  UNL     1      25.981   3.732  49.682  1.00  0.00    -0.238 N 
HETATM    7  C5  UNL     1      24.782   3.082  50.080  1.00  0.00     0.079 A 
HETATM    8  C12 UNL     1      24.779   2.208  51.057  1.00  0.00     0.021 A 
HETATM    9  C13 UNL     1      23.494   1.694  51.320  1.00  0.00     0.012 C 
HETATM   10  C14 UNL     1      22.307   1.502  51.779  1.00  0.00    -0.024 C 
HETATM   11  C15 UNL     1      21.156   0.566  51.661  1.00  0.00     0.043 C 
HETATM   12  C16 UNL     1      20.843   0.049  53.064  1.00  0.00     0.112 C 
HETATM   13  N3  UNL     1      22.035  -0.562  53.582  1.00  0.00    -0.228 NA
HETATM   14 CL1  UNL     1      22.485  -1.987  52.715  1.00  0.00    -0.022 Cl
HETATM   15  C17 UNL     1      21.896  -0.883  54.996  1.00  0.00     0.110 C 
HETATM   16  C18 UNL     1      23.205  -1.475  55.485  1.00  0.00     0.042 C 
HETATM   17  C19 UNL     1      24.269  -0.468  55.081  1.00  0.00     0.169 C 
HETATM   18  O3  UNL     1      25.527  -0.807  55.540  1.00  0.00    -0.388 OA
HETATM   19  C20 UNL     1      26.492   0.071  55.035  1.00  0.00     0.209 C 
HETATM   20  H5  UNL     1      26.142   4.435  48.941  1.00  0.00     0.197 HD
ENDROOT
BRANCH   7  21
HETATM   21  C6  UNL     1      23.586   3.452  49.352  1.00  0.00    -0.006 A 
HETATM   22  C7  UNL     1      23.056   4.658  49.789  1.00  0.00     0.017 A 
HETATM   23  C8  UNL     1      21.899   5.225  49.283  1.00  0.00     0.043 A 
HETATM   24  C9  UNL     1      21.198   4.590  48.287  1.00  0.00     0.116 A 
HETATM   25  F1  UNL     1      20.066   4.983  47.678  1.00  0.00    -0.206 F 
HETATM   26  C10 UNL     1      21.696   3.393  47.834  1.00  0.00     0.043 A 
HETATM   27  C11 UNL     1      22.847   2.858  48.357  1.00  0.00     0.017 A 
ENDBRANCH   7  21
BRANCH   1  28
HETATM   28  O1  UNL     1      26.843  -1.454  53.481  1.00  0.00    -0.379 OA
HETATM   29  C1  UNL     1      26.823  -2.151  52.254  1.00  0.00     0.202 C 
ENDBRANCH   1  28
TORSDOF 2
ENDMDL
MODEL 4
REMARK VINA RESULT:      -8.6      2.830      4.762
REMARK  2 active torsions:
REMARK  status: ('A' for Active; 'I' for Inactive)
REMARK    1  A    between atoms: O1_2  and  C2_3 
REMARK    2  A    between atoms: C5_9  and  C6_10 
ROOT
HETATM    1  C2  UNL     1      21.634   4.260  48.650  1.00  0.00     0.125 C 
HETATM    2  C3  UNL     1      22.838   3.871  48.981  1.00  0.00     0.094 C 
HETATM    3  C4  UNL     1      24.137   3.718  49.594  1.00  0.00     0.084 A 
HETATM    4  N1  UNL     1      25.037   4.418  49.000  1.00  0.00    -0.111 NA
HETATM    5  O2  UNL     1      26.358   4.448  49.397  1.00  0.00    -0.131 OA
HETATM    6  N2  UNL     1      26.729   3.703  50.472  1.00  0.00    -0.238 N 
HETATM    7  C5  UNL     1      25.745   2.925  51.138  1.00  0.00     0.079 A 
HETATM    8  C12 UNL     1      24.499   2.918  50.730  1.00  0.00     0.021 A 
HETATM    9  C13 UNL     1      23.681   2.068  51.502  1.00  0.00     0.012 C 
HETATM   10  C14 UNL     1      23.038   1.054  51.966  1.00  0.00    -0.024 C 
HETATM   11  C15 UNL     1      22.113   0.673  53.067  1.00  0.00     0.043 C 
HETATM   12  C16 UNL     1      20.863   0.074  52.426  1.00  0.00     0.112 C 
HETATM   13  N3  UNL     1      20.320   1.053  51.527  1.00  0.00    -0.228 NA
HETATM   14 CL1  UNL     1      19.725   2.453  52.344  1.00  0.00    -0.022 Cl
HETATM   15  C17 UNL     1      19.258   0.487  50.706  1.00  0.00     0.110 C 
HETATM   16  C18 UNL     1      18.769   1.559  49.748  1.00  0.00     0.042 C 
HETATM   17  C19 UNL     1      20.020   2.064  49.050  1.00  0.00     0.169 C 
HETATM   18  O3  UNL     1      19.743   2.989  48.061  1.00  0.00    -0.388 OA
HETATM   19  C20 UNL     1      20.925   3.525  47.539  1.00  0.00     0.209 C 
HETATM   20  H5  UNL     1      27.738   3.811  50.670  1.00  0.00     0.197 HD
ENDROOT
BRANCH   7  21
HETATM   21  C6  UNL     1      26.206   2.150  52.271  1.00  0.00    -0.006 A 
HETATM   22  C7  UNL     1      26.870   0.996  51.883  1.00  0.00     0.017 A 
HETATM   23  C8  UNL     1      27.385   0.063  52.767  1.00  0.00     0.043 A 
HETATM   24  C9  UNL     1      27.252   0.249  54.121  1.00  0.00     0.116 A 
HETATM   25  F1  UNL     1      27.682  -0.539  55.122  1.00  0.00    -0.206 F 
HETATM   26  C10 UNL     1      26.598   1.382  54.538  1.00  0.00     0.043 A 
HETATM   27  C11 UNL     1      26.099   2.288  53.635  1.00  0.00     0.017 A 
ENDBRANCH   7  21
BRANCH   1  28
HETATM   28  O1  UNL     1      20.605   5.196  48.943  1.00  0.00    -0.379 OA
HETATM   29  C1  UNL     1      20.541   5.820  50.207  1.00  0.00     0.202 C 
ENDBRANCH   1  28
TORSDOF 2
ENDMDL
MODEL 5
REMARK VINA RESULT:      -7.8      1.815      2.382
REMARK  2 active torsions:
REMARK  status: ('A' for Active; 'I' for Inactive)
REMARK    1  A    between atoms: O1_2  and  C2_3 
REMARK    2  A    between atoms: C5_9  and  C6_10 
ROOT
HETATM    1  C2  UNL     1      19.346   2.874  50.683  1.00  0.00     0.125 C 
HETATM    2  C3  UNL     1      20.203   2.481  51.591  1.00  0.00     0.094 C 
HETATM    3  C4  UNL     1      21.208   1.774  52.348  1.00  0.00     0.084 A 
HETATM    4  N1  UNL     1      20.694   0.893  53.131  1.00  0.00    -0.111 NA
HETATM    5  O2  UNL     1      21.445   0.082  53.956  1.00  0.00    -0.131 OA
HETATM    6  N2  UNL     1      22.798   0.216  53.942  1.00  0.00    -0.238 N 
HETATM    7  C5  UNL     1      23.380   1.186  53.082  1.00  0.00     0.079 A 
HETATM    8  C12 UNL     1      22.635   1.943  52.313  1.00  0.00     0.021 A 
HETATM    9  C13 UNL     1      23.392   2.856  51.554  1.00  0.00     0.012 C 
HETATM   10  C14 UNL     1      24.035   3.895  51.147  1.00  0.00    -0.024 C 
HETATM   11  C15 UNL     1      24.804   4.396  49.976  1.00  0.00     0.043 C 
HETATM   12  C16 UNL     1      24.148   5.698  49.523  1.00  0.00     0.112 C 
HETATM   13  N3  UNL     1      22.769   5.416  49.233  1.00  0.00    -0.228 NA
HETATM   14 CL1  UNL     1      22.574   4.369  47.873  1.00  0.00    -0.022 Cl
HETATM   15  C17 UNL     1      22.013   6.641  49.009  1.00  0.00     0.110 C 
HETATM   16  C18 UNL     1      20.562   6.270  48.761  1.00  0.00     0.042 C 
HETATM   17  C19 UNL     1      20.172   5.393  49.938  1.00  0.00     0.169 C 
HETATM   18  O3  UNL     1      18.836   5.040  49.922  1.00  0.00    -0.388 OA
HETATM   19  C20 UNL     1      18.552   4.129  50.945  1.00  0.00     0.209 C 
HETATM   20  H5  UNL     1      23.246  -0.445  54.598  1.00  0.00     0.197 HD
ENDROOT
BRANCH   7  21
HETATM   21  C6  UNL     1      24.824   1.283  53.118  1.00  0.00    -0.006 A 
HETATM   22  C7  UNL     1      25.438   0.269  52.397  1.00  0.00     0.017 A 
HETATM   23  C8  UNL     1      26.810   0.112  52.294  1.00  0.00     0.043 A 
HETATM   24  C9  UNL     1      27.654   0.988  52.929  1.00  0.00     0.116 A 
HETATM   25  F1  UNL     1      28.999   0.995  52.945  1.00  0.00    -0.206 F 
HETATM   26  C10 UNL     1      27.078   2.003  53.654  1.00  0.00     0.043 A 
HETATM   27  C11 UNL     1      25.713   2.131  53.735  1.00  0.00     0.017 A 
ENDBRANCH   7  21
BRANCH   1  28
HETATM   28  O1  UNL     1      18.798   2.566  49.408  1.00  0.00    -0.379 OA
HETATM   29  C1  UNL     1      17.586   1.853  49.301  1.00  0.00     0.202 C 
ENDBRANCH   1  28
TORSDOF 2
ENDMDL
MODEL 6
REMARK VINA RESULT:      -7.5      3.638      6.810
REMARK  2 active torsions:
REMARK  status: ('A' for Active; 'I' for Inactive)
REMARK    1  A    between atoms: O1_2  and  C2_3 
REMARK    2  A    between atoms: C5_9  and  C6_10 
ROOT
HETATM    1  C2  UNL     1      25.095   0.253  53.443  1.00  0.00     0.125 C 
HETATM    2  C3  UNL     1      23.872  -0.148  53.208  1.00  0.00     0.094 C 
HETATM    3  C4  UNL     1      22.444  -0.364  53.235  1.00  0.00     0.084 A 
HETATM    4  N1  UNL     1      22.118  -1.350  53.993  1.00  0.00    -0.111 NA
HETATM    5  O2  UNL     1      20.814  -1.755  54.190  1.00  0.00    -0.131 OA
HETATM    6  N2  UNL     1      19.821  -1.079  53.554  1.00  0.00    -0.238 N 
HETATM    7  C5  UNL     1      20.167   0.013  52.713  1.00  0.00     0.079 A 
HETATM    8  C12 UNL     1      21.418   0.368  52.546  1.00  0.00     0.021 A 
HETATM    9  C13 UNL     1      21.559   1.453  51.658  1.00  0.00     0.012 C 
HETATM   10  C14 UNL     1      21.707   2.184  50.608  1.00  0.00    -0.024 C 
HETATM   11  C15 UNL     1      21.811   3.608  50.192  1.00  0.00     0.043 C 
HETATM   12  C16 UNL     1      23.122   3.764  49.423  1.00  0.00     0.112 C 
HETATM   13  N3  UNL     1      24.188   3.332  50.283  1.00  0.00    -0.228 NA
HETATM   14 CL1  UNL     1      24.398   4.361  51.655  1.00  0.00    -0.022 Cl
HETATM   15  C17 UNL     1      25.448   3.234  49.558  1.00  0.00     0.110 C 
HETATM   16  C18 UNL     1      26.513   2.725  50.513  1.00  0.00     0.042 C 
HETATM   17  C19 UNL     1      25.932   1.456  51.111  1.00  0.00     0.169 C 
HETATM   18  O3  UNL     1      26.821   0.801  51.942  1.00  0.00    -0.388 OA
HETATM   19  C20 UNL     1      26.203  -0.285  52.572  1.00  0.00     0.209 C 
HETATM   20  H5  UNL     1      18.894  -1.474  53.783  1.00  0.00     0.197 HD
ENDROOT
BRANCH   7  21
HETATM   21  C6  UNL     1      19.064   0.687  52.060  1.00  0.00    -0.006 A 
HETATM   22  C7  UNL     1      18.371  -0.151  51.198  1.00  0.00     0.017 A 
HETATM   23  C8  UNL     1      17.294   0.249  50.427  1.00  0.00     0.043 A 
HETATM   24  C9  UNL     1      16.849   1.546  50.484  1.00  0.00     0.116 A 
HETATM   25  F1  UNL     1      15.828   2.113  49.816  1.00  0.00    -0.206 F 
HETATM   26  C10 UNL     1      17.514   2.403  51.327  1.00  0.00     0.043 A 
HETATM   27  C11 UNL     1      18.580   1.974  52.079  1.00  0.00     0.017 A 
ENDBRANCH   7  21
BRANCH   1  28
HETATM   28  O1  UNL     1      25.895   1.082  54.277  1.00  0.00    -0.379 OA
HETATM   29  C1  UNL     1      26.861   0.516  55.136  1.00  0.00     0.202 C 
ENDBRANCH   1  28
TORSDOF 2
ENDMDL
MODEL 7
REMARK VINA RESULT:      -7.5      3.725      4.855
REMARK  2 active torsions:
REMARK  status: ('A' for Active; 'I' for Inactive)
REMARK    1  A    between atoms: O1_2  and  C2_3 
REMARK    2  A    between atoms: C5_9  and  C6_10 
ROOT
HETATM    1  C2  UNL     1      19.746   4.237  48.162  1.00  0.00     0.125 C 
HETATM    2  C3  UNL     1      19.453   3.385  49.110  1.00  0.00     0.094 C 
HETATM    3  C4  UNL     1      19.347   2.218  49.954  1.00  0.00     0.084 A 
HETATM    4  N1  UNL     1      18.352   1.472  49.626  1.00  0.00    -0.111 NA
HETATM    5  O2  UNL     1      18.040   0.297  50.276  1.00  0.00    -0.131 OA
HETATM    6  N2  UNL     1      18.821  -0.098  51.316  1.00  0.00    -0.238 N 
HETATM    7  C5  UNL     1      19.924   0.716  51.690  1.00  0.00     0.079 A 
HETATM    8  C12 UNL     1      20.190   1.830  51.051  1.00  0.00     0.021 A 
HETATM    9  C13 UNL     1      21.304   2.508  51.584  1.00  0.00     0.012 C 
HETATM   10  C14 UNL     1      22.073   3.277  52.274  1.00  0.00    -0.024 C 
HETATM   11  C15 UNL     1      23.504   3.654  52.422  1.00  0.00     0.043 C 
HETATM   12  C16 UNL     1      23.597   5.168  52.247  1.00  0.00     0.112 C 
HETATM   13  N3  UNL     1      23.041   5.496  50.963  1.00  0.00    -0.228 NA
HETATM   14 CL1  UNL     1      23.980   4.877  49.652  1.00  0.00    -0.022 Cl
HETATM   15  C17 UNL     1      22.883   6.935  50.805  1.00  0.00     0.110 C 
HETATM   16  C18 UNL     1      22.246   7.202  49.454  1.00  0.00     0.042 C 
HETATM   17  C19 UNL     1      20.997   6.339  49.428  1.00  0.00     0.169 C 
HETATM   18  O3  UNL     1      20.234   6.535  48.293  1.00  0.00    -0.388 OA
HETATM   19  C20 UNL     1      19.169   5.629  48.248  1.00  0.00     0.209 C 
HETATM   20  H5  UNL     1      18.488  -0.990  51.716  1.00  0.00     0.197 HD
ENDROOT
BRANCH   7  21
HETATM   21  C6  UNL     1      20.714   0.244  52.808  1.00  0.00    -0.006 A 
HETATM   22  C7  UNL     1      21.858  -0.425  52.399  1.00  0.00     0.017 A 
HETATM   23  C8  UNL     1      22.770  -1.003  53.265  1.00  0.00     0.043 A 
HETATM   24  C9  UNL     1      22.571  -0.936  54.622  1.00  0.00     0.116 A 
HETATM   25  F1  UNL     1      23.338  -1.432  55.608  1.00  0.00    -0.206 F 
HETATM   26  C10 UNL     1      21.445  -0.281  55.060  1.00  0.00     0.043 A 
HETATM   27  C11 UNL     1      20.560   0.282  54.174  1.00  0.00     0.017 A 
ENDBRANCH   7  21
BRANCH   1  28
HETATM   28  O1  UNL     1      20.468   4.407  46.949  1.00  0.00    -0.379 OA
HETATM   29  C1  UNL     1      21.647   3.671  46.706  1.00  0.00     0.202 C 
ENDBRANCH   1  28
TORSDOF 2
ENDMDL
MODEL 8
REMARK VINA RESULT:      -7.5      7.759     10.959
REMARK  2 active torsions:
REMARK  status: ('A' for Active; 'I' for Inactive)
REMARK    1  A    between atoms: O1_2  and  C2_3 
REMARK    2  A    between atoms: C5_9  and  C6_10 
ROOT
HETATM    1  C2  UNL     1      31.560   7.480  47.578  1.00  0.00     0.125 C 
HETATM    2  C3  UNL     1      30.364   6.957  47.665  1.00  0.00     0.094 C 
HETATM    3  C4  UNL     1      29.119   6.390  48.126  1.00  0.00     0.084 A 
HETATM    4  N1  UNL     1      29.171   5.108  48.208  1.00  0.00    -0.111 NA
HETATM    5  O2  UNL     1      28.110   4.332  48.628  1.00  0.00    -0.131 OA
HETATM    6  N2  UNL     1      26.951   4.951  48.976  1.00  0.00    -0.238 N 
HETATM    7  C5  UNL     1      26.879   6.367  48.891  1.00  0.00     0.079 A 
HETATM    8  C12 UNL     1      27.906   7.073  48.483  1.00  0.00     0.021 A 
HETATM    9  C13 UNL     1      27.632   8.455  48.442  1.00  0.00     0.012 C 
HETATM   10  C14 UNL     1      27.277   9.637  48.076  1.00  0.00    -0.024 C 
HETATM   11  C15 UNL     1      27.205  11.034  48.582  1.00  0.00     0.043 C 
HETATM   12  C16 UNL     1      27.991  11.912  47.610  1.00  0.00     0.112 C 
HETATM   13  N3  UNL     1      29.328  11.392  47.534  1.00  0.00    -0.228 NA
HETATM   14 CL1  UNL     1      30.194  11.555  49.020  1.00  0.00    -0.022 Cl
HETATM   15  C17 UNL     1      30.085  12.028  46.464  1.00  0.00     0.110 C 
HETATM   16  C18 UNL     1      31.464  11.396  46.410  1.00  0.00     0.042 C 
HETATM   17  C19 UNL     1      31.209   9.902  46.314  1.00  0.00     0.169 C 
HETATM   18  O3  UNL     1      32.371   9.170  46.156  1.00  0.00    -0.388 OA
HETATM   19  C20 UNL     1      32.103   7.798  46.207  1.00  0.00     0.209 C 
HETATM   20  H5  UNL     1      26.237   4.266  49.274  1.00  0.00     0.197 HD
ENDROOT
BRANCH   7  21
HETATM   21  C6  UNL     1      25.615   6.964  49.269  1.00  0.00    -0.006 A 
HETATM   22  C7  UNL     1      24.695   6.951  48.230  1.00  0.00     0.017 A 
HETATM   23  C8  UNL     1      23.422   7.486  48.316  1.00  0.00     0.043 A 
HETATM   24  C9  UNL     1      22.999   8.077  49.481  1.00  0.00     0.116 A 
HETATM   25  F1  UNL     1      21.810   8.645  49.749  1.00  0.00    -0.206 F 
HETATM   26  C10 UNL     1      23.886   8.108  50.529  1.00  0.00     0.043 A 
HETATM   27  C11 UNL     1      25.143   7.567  50.411  1.00  0.00     0.017 A 
ENDBRANCH   7  21
BRANCH   1  28
HETATM   28  O1  UNL     1      32.681   7.921  48.332  1.00  0.00    -0.379 OA
HETATM   29  C1  UNL     1      33.765   7.053  48.583  1.00  0.00     0.202 C 
ENDBRANCH   1  28
TORSDOF 2
ENDMDL
MODEL 9
REMARK VINA RESULT:      -7.4      3.414      5.345
REMARK  2 active torsions:
REMARK  status: ('A' for Active; 'I' for Inactive)
REMARK    1  A    between atoms: O1_2  and  C2_3 
REMARK    2  A    between atoms: C5_9  and  C6_10 
ROOT
HETATM    1  C2  UNL     1      22.580   5.982  47.968  1.00  0.00     0.125 C 
HETATM    2  C3  UNL     1      23.571   5.248  48.404  1.00  0.00     0.094 C 
HETATM    3  C4  UNL     1      24.635   4.660  49.183  1.00  0.00     0.084 A 
HETATM    4  N1  UNL     1      25.772   5.210  48.942  1.00  0.00    -0.111 NA
HETATM    5  O2  UNL     1      26.944   4.831  49.562  1.00  0.00    -0.131 OA
HETATM    6  N2  UNL     1      26.899   3.826  50.476  1.00  0.00    -0.238 N 
HETATM    7  C5  UNL     1      25.650   3.208  50.753  1.00  0.00     0.079 A 
HETATM    8  C12 UNL     1      24.555   3.592  50.141  1.00  0.00     0.021 A 
HETATM    9  C13 UNL     1      23.427   2.844  50.530  1.00  0.00     0.012 C 
HETATM   10  C14 UNL     1      22.500   1.955  50.617  1.00  0.00    -0.024 C 
HETATM   11  C15 UNL     1      21.290   1.615  51.413  1.00  0.00     0.043 C 
HETATM   12  C16 UNL     1      20.123   1.483  50.437  1.00  0.00     0.112 C 
HETATM   13  N3  UNL     1      20.013   2.720  49.716  1.00  0.00    -0.228 NA
HETATM   14 CL1  UNL     1      19.549   4.043  50.726  1.00  0.00    -0.022 Cl
HETATM   15  C17 UNL     1      19.073   2.607  48.609  1.00  0.00     0.110 C 
HETATM   16  C18 UNL     1      19.047   3.930  47.864  1.00  0.00     0.042 C 
HETATM   17  C19 UNL     1      20.500   4.229  47.540  1.00  0.00     0.169 C 
HETATM   18  O3  UNL     1      20.653   5.365  46.768  1.00  0.00    -0.388 OA
HETATM   19  C20 UNL     1      22.008   5.676  46.607  1.00  0.00     0.209 C 
HETATM   20  H5  UNL     1      27.836   3.637  50.870  1.00  0.00     0.197 HD
ENDROOT
BRANCH   7  21
HETATM   21  C6  UNL     1      25.671   2.140  51.731  1.00  0.00    -0.006 A 
HETATM   22  C7  UNL     1      26.429   1.057  51.310  1.00  0.00     0.017 A 
HETATM   23  C8  UNL     1      26.589  -0.108  52.041  1.00  0.00     0.043 A 
HETATM   24  C9  UNL     1      25.977  -0.245  53.263  1.00  0.00     0.116 A 
HETATM   25  F1  UNL     1      26.017  -1.290  54.108  1.00  0.00    -0.206 F 
HETATM   26  C10 UNL     1      25.218   0.810  53.708  1.00  0.00     0.043 A 
HETATM   27  C11 UNL     1      25.080   1.952  52.957  1.00  0.00     0.017 A 
ENDBRANCH   7  21
BRANCH   1  28
HETATM   28  O1  UNL     1      21.727   7.074  48.290  1.00  0.00    -0.379 OA
HETATM   29  C1  UNL     1      22.258   8.367  48.482  1.00  0.00     0.202 C 
ENDBRANCH   1  28
TORSDOF 2
ENDMDL
