MODEL 1
REMARK VINA RESULT:      -8.6      0.000      0.000
REMARK  6 active torsions:
REMARK  status: ('A' for Active; 'I' for Inactive)
REMARK    1  A    between atoms: N1_2  and  C3_4 
REMARK    2  A    between atoms: C3_4  and  C4_5 
REMARK    3  A    between atoms: C5_6  and  C6_7 
REMARK       I    between atoms: C6_7  and  N2_9 
REMARK    4  A    between atoms: N2_9  and  C7_10 
REMARK    5  A    between atoms: C14_19  and  N5_20 
REMARK    6  A    between atoms: N5_20  and  C15_21 
ROOT
HETATM    1  C7  UNL     1      22.467   1.470  51.673  1.00  0.00     0.035 A 
HETATM    2  C8  UNL     1      22.795   0.713  52.768  1.00  0.00     0.030 A 
HETATM    3  C9  UNL     1      24.065   0.577  53.278  1.00  0.00     0.016 A 
HETATM    4  C10 UNL     1      25.084   1.270  52.615  1.00  0.00     0.000 A 
HETATM    5  C11 UNL     1      26.340   1.106  53.158  1.00  0.00     0.073 A 
HETATM    6  C12 UNL     1      26.617   0.309  54.295  1.00  0.00     0.102 C 
HETATM    7  N3  UNL     1      26.858  -0.339  55.239  1.00  0.00    -0.191 NA
HETATM    8  C13 UNL     1      27.361   1.777  52.528  1.00  0.00     0.142 A 
HETATM    9  N4  UNL     1      27.077   2.517  51.466  1.00  0.00    -0.241 NA
HETATM   10  C14 UNL     1      25.878   2.692  50.922  1.00  0.00     0.139 A 
HETATM   11  C21 UNL     1      24.817   2.053  51.501  1.00  0.00     0.024 A 
HETATM   12  C22 UNL     1      23.527   2.118  51.081  1.00  0.00     0.045 A 
ENDROOT
BRANCH  10  13
HETATM   13  N5  UNL     1      25.664   3.504  49.790  1.00  0.00    -0.340 N 
HETATM   14  H15 UNL     1      24.947   3.267  49.076  1.00  0.00     0.167 HD
BRANCH  13  15
HETATM   15  C15 UNL     1      26.297   4.707  49.388  1.00  0.00     0.035 A 
HETATM   16  C16 UNL     1      27.483   4.802  48.673  1.00  0.00     0.029 A 
HETATM   17  C17 UNL     1      28.078   5.967  48.293  1.00  0.00     0.004 A 
HETATM   18  C18 UNL     1      27.514   7.160  48.609  1.00  0.00     0.019 A 
HETATM   19  C19 UNL     1      26.334   7.155  49.318  1.00  0.00     0.013 A 
HETATM   20 BR1  UNL     1      25.586   8.853  49.735  1.00  0.00    -0.051 Br
HETATM   21  C20 UNL     1      25.776   5.949  49.677  1.00  0.00     0.048 A 
ENDBRANCH  13  15
ENDBRANCH  10  13
BRANCH   1  22
HETATM   22  N2  UNL     1      21.173   1.632  51.121  1.00  0.00    -0.324 N 
HETATM   23  C6  UNL     1      20.079   2.351  51.601  1.00  0.00     0.245 C 
HETATM   24  O1  UNL     1      20.198   2.963  52.666  1.00  0.00    -0.268 OA
HETATM   25  H11 UNL     1      20.939   1.160  50.209  1.00  0.00     0.169 HD
BRANCH  23  26
HETATM   26  C5  UNL     1      18.788   2.449  50.954  1.00  0.00     0.072 C 
HETATM   27  C4  UNL     1      17.800   3.149  51.486  1.00  0.00     0.008 C 
BRANCH  27  28
HETATM   28  C3  UNL     1      16.494   3.209  50.767  1.00  0.00     0.299 C 
BRANCH  28  29
HETATM   29  N1  UNL     1      15.652   4.246  51.287  1.00  0.00     0.083 N 
HETATM   30  C1  UNL     1      14.375   4.229  50.643  1.00  0.00     0.309 C 
HETATM   31  C2  UNL     1      15.572   4.129  52.715  1.00  0.00     0.309 C 
ENDBRANCH  28  29
ENDBRANCH  27  28
ENDBRANCH  23  26
ENDBRANCH   1  22
TORSDOF 6
ENDMDL
MODEL 2
REMARK VINA RESULT:      -8.6      3.943      8.769
REMARK  6 active torsions:
REMARK  status: ('A' for Active; 'I' for Inactive)
REMARK    1  A    between atoms: N1_2  and  C3_4 
REMARK    2  A    between atoms: C3_4  and  C4_5 
REMARK    3  A    between atoms: C5_6  and  C6_7 
REMARK       I    between atoms: C6_7  and  N2_9 
REMARK    4  A    between atoms: N2_9  and  C7_10 
REMARK    5  A    between atoms: C14_19  and  N5_20 
REMARK    6  A    between atoms: N5_20  and  C15_21 
ROOT
HETATM    1  C7  UNL     1      24.825   4.186  49.626  1.00  0.00     0.035 A 
HETATM    2  C8  UNL     1      23.653   3.753  49.061  1.00  0.00     0.030 A 
HETATM    3  C9  UNL     1      22.825   2.797  49.602  1.00  0.00     0.016 A 
HETATM    4  C10 UNL     1      23.227   2.237  50.820  1.00  0.00     0.000 A 
HETATM    5  C11 UNL     1      22.370   1.284  51.326  1.00  0.00     0.073 A 
HETATM    6  C12 UNL     1      21.169   0.878  50.695  1.00  0.00     0.102 C 
HETATM    7  N3  UNL     1      20.170   0.541  50.187  1.00  0.00    -0.191 NA
HETATM    8  C13 UNL     1      22.739   0.717  52.523  1.00  0.00     0.142 A 
HETATM    9  N4  UNL     1      23.866   1.114  53.095  1.00  0.00    -0.241 NA
HETATM   10  C14 UNL     1      24.709   2.028  52.630  1.00  0.00     0.139 A 
HETATM   11  C21 UNL     1      24.402   2.633  51.442  1.00  0.00     0.024 A 
HETATM   12  C22 UNL     1      25.146   3.585  50.821  1.00  0.00     0.045 A 
ENDROOT
BRANCH  10  13
HETATM   13  N5  UNL     1      25.890   2.395  53.308  1.00  0.00    -0.340 N 
HETATM   14  H15 UNL     1      25.967   3.293  53.824  1.00  0.00     0.167 HD
BRANCH  13  15
HETATM   15  C15 UNL     1      27.125   1.710  53.440  1.00  0.00     0.035 A 
HETATM   16  C16 UNL     1      28.336   2.283  53.802  1.00  0.00     0.029 A 
HETATM   17  C17 UNL     1      29.515   1.611  53.926  1.00  0.00     0.004 A 
HETATM   18  C18 UNL     1      29.571   0.276  53.689  1.00  0.00     0.019 A 
HETATM   19  C19 UNL     1      28.412  -0.371  53.324  1.00  0.00     0.013 A 
HETATM   20 BR1  UNL     1      28.546  -2.241  53.004  1.00  0.00    -0.051 Br
HETATM   21  C20 UNL     1      27.249   0.357  53.214  1.00  0.00     0.048 A 
ENDBRANCH  13  15
ENDBRANCH  10  13
BRANCH   1  22
HETATM   22  N2  UNL     1      25.700   5.165  49.097  1.00  0.00    -0.324 N 
HETATM   23  C6  UNL     1      27.053   5.075  48.773  1.00  0.00     0.245 C 
HETATM   24  O1  UNL     1      27.630   3.998  48.950  1.00  0.00    -0.268 OA
HETATM   25  H11 UNL     1      25.332   6.132  48.898  1.00  0.00     0.169 HD
BRANCH  23  26
HETATM   26  C5  UNL     1      27.863   6.148  48.236  1.00  0.00     0.072 C 
HETATM   27  C4  UNL     1      29.164   6.004  48.051  1.00  0.00     0.008 C 
BRANCH  27  28
HETATM   28  C3  UNL     1      29.941   7.151  47.494  1.00  0.00     0.299 C 
BRANCH  28  29
HETATM   29  N1  UNL     1      31.220   7.278  48.127  1.00  0.00     0.083 N 
HETATM   30  C1  UNL     1      31.501   6.130  48.933  1.00  0.00     0.309 C 
HETATM   31  C2  UNL     1      32.225   7.536  47.135  1.00  0.00     0.309 C 
ENDBRANCH  28  29
ENDBRANCH  27  28
ENDBRANCH  23  26
ENDBRANCH   1  22
TORSDOF 6
ENDMDL
MODEL 3
REMARK VINA RESULT:      -8.5      1.854      2.121
REMARK  6 active torsions:
REMARK  status: ('A' for Active; 'I' for Inactive)
REMARK    1  A    between atoms: N1_2  and  C3_4 
REMARK    2  A    between atoms: C3_4  and  C4_5 
REMARK    3  A    between atoms: C5_6  and  C6_7 
REMARK       I    between atoms: C6_7  and  N2_9 
REMARK    4  A    between atoms: N2_9  and  C7_10 
REMARK    5  A    between atoms: C14_19  and  N5_20 
REMARK    6  A    between atoms: N5_20  and  C15_21 
ROOT
HETATM    1  C7  UNL     1      22.946   0.585  52.261  1.00  0.00     0.035 A 
HETATM    2  C8  UNL     1      23.505  -0.097  53.310  1.00  0.00     0.030 A 
HETATM    3  C9  UNL     1      24.823  -0.004  53.695  1.00  0.00     0.016 A 
HETATM    4  C10 UNL     1      25.635   0.855  52.947  1.00  0.00     0.000 A 
HETATM    5  C11 UNL     1      26.946   0.918  53.366  1.00  0.00     0.073 A 
HETATM    6  C12 UNL     1      27.468   0.188  54.462  1.00  0.00     0.102 C 
HETATM    7  N3  UNL     1      27.908  -0.403  55.371  1.00  0.00    -0.191 NA
HETATM    8  C13 UNL     1      27.768   1.755  52.650  1.00  0.00     0.142 A 
HETATM    9  N4  UNL     1      27.258   2.429  51.629  1.00  0.00    -0.241 NA
HETATM   10  C14 UNL     1      26.001   2.387  51.204  1.00  0.00     0.139 A 
HETATM   11  C21 UNL     1      25.129   1.573  51.874  1.00  0.00     0.024 A 
HETATM   12  C22 UNL     1      23.814   1.407  51.578  1.00  0.00     0.045 A 
ENDROOT
BRANCH  10  13
HETATM   13  N5  UNL     1      25.539   3.143  50.108  1.00  0.00    -0.340 N 
HETATM   14  H15 UNL     1      24.790   2.792  49.479  1.00  0.00     0.167 HD
BRANCH  13  15
HETATM   15  C15 UNL     1      25.934   4.422  49.640  1.00  0.00     0.035 A 
HETATM   16  C16 UNL     1      27.039   4.690  48.845  1.00  0.00     0.029 A 
HETATM   17  C17 UNL     1      27.406   5.926  48.402  1.00  0.00     0.004 A 
HETATM   18  C18 UNL     1      26.672   7.018  48.734  1.00  0.00     0.019 A 
HETATM   19  C19 UNL     1      25.557   6.839  49.523  1.00  0.00     0.013 A 
HETATM   20 BR1  UNL     1      24.564   8.402  49.959  1.00  0.00    -0.051 Br
HETATM   21  C20 UNL     1      25.233   5.569  49.941  1.00  0.00     0.048 A 
ENDBRANCH  13  15
ENDBRANCH  10  13
BRANCH   1  22
HETATM   22  N2  UNL     1      21.597   0.513  51.836  1.00  0.00    -0.324 N 
HETATM   23  C6  UNL     1      20.534   1.381  52.082  1.00  0.00     0.245 C 
HETATM   24  O1  UNL     1      20.741   2.386  52.767  1.00  0.00    -0.268 OA
HETATM   25  H11 UNL     1      21.287  -0.299  51.241  1.00  0.00     0.169 HD
BRANCH  23  26
HETATM   26  C5  UNL     1      19.180   1.211  51.598  1.00  0.00     0.072 C 
HETATM   27  C4  UNL     1      18.623   0.015  51.514  1.00  0.00     0.008 C 
BRANCH  27  28
HETATM   28  C3  UNL     1      17.223  -0.090  51.006  1.00  0.00     0.299 C 
BRANCH  28  29
HETATM   29  N1  UNL     1      16.387  -0.821  51.912  1.00  0.00     0.083 N 
HETATM   30  C1  UNL     1      17.180  -1.571  52.837  1.00  0.00     0.309 C 
HETATM   31  C2  UNL     1      15.467   0.078  52.550  1.00  0.00     0.309 C 
ENDBRANCH  28  29
ENDBRANCH  27  28
ENDBRANCH  23  26
ENDBRANCH   1  22
TORSDOF 6
ENDMDL
MODEL 4
REMARK VINA RESULT:      -8.3      3.787      8.136
REMARK  6 active torsions:
REMARK  status: ('A' for Active; 'I' for Inactive)
REMARK    1  A    between atoms: N1_2  and  C3_4 
REMARK    2  A    between atoms: C3_4  and  C4_5 
REMARK    3  A    between atoms: C5_6  and  C6_7 
REMARK       I    between atoms: C6_7  and  N2_9 
REMARK    4  A    between atoms: N2_9  and  C7_10 
REMARK    5  A    between atoms: C14_19  and  N5_20 
REMARK    6  A    between atoms: N5_20  and  C15_21 
ROOT
HETATM    1  C7  UNL     1      25.651   3.231  50.997  1.00  0.00     0.035 A 
HETATM    2  C8  UNL     1      26.796   2.508  51.208  1.00  0.00     0.030 A 
HETATM    3  C9  UNL     1      26.859   1.318  51.896  1.00  0.00     0.016 A 
HETATM    4  C10 UNL     1      25.654   0.827  52.410  1.00  0.00     0.000 A 
HETATM    5  C11 UNL     1      25.761  -0.366  53.091  1.00  0.00     0.073 A 
HETATM    6  C12 UNL     1      26.976  -1.070  53.277  1.00  0.00     0.102 C 
HETATM    7  N3  UNL     1      27.972  -1.665  53.429  1.00  0.00    -0.191 NA
HETATM    8  C13 UNL     1      24.592  -0.873  53.606  1.00  0.00     0.142 A 
HETATM    9  N4  UNL     1      23.468  -0.198  53.419  1.00  0.00    -0.241 NA
HETATM   10  C14 UNL     1      23.336   0.952  52.769  1.00  0.00     0.139 A 
HETATM   11  C21 UNL     1      24.461   1.512  52.229  1.00  0.00     0.024 A 
HETATM   12  C22 UNL     1      24.511   2.678  51.535  1.00  0.00     0.045 A 
ENDROOT
BRANCH  10  13
HETATM   13  N5  UNL     1      22.095   1.604  52.612  1.00  0.00    -0.340 N 
HETATM   14  H15 UNL     1      21.939   2.571  52.958  1.00  0.00     0.167 HD
BRANCH  13  15
HETATM   15  C15 UNL     1      20.891   1.156  52.013  1.00  0.00     0.035 A 
HETATM   16  C16 UNL     1      20.452   1.472  50.735  1.00  0.00     0.029 A 
HETATM   17  C17 UNL     1      19.291   1.033  50.172  1.00  0.00     0.004 A 
HETATM   18  C18 UNL     1      18.457   0.221  50.869  1.00  0.00     0.019 A 
HETATM   19  C19 UNL     1      18.817  -0.141  52.148  1.00  0.00     0.013 A 
HETATM   20 BR1  UNL     1      17.613  -1.280  53.080  1.00  0.00    -0.051 Br
HETATM   21  C20 UNL     1      20.001   0.331  52.666  1.00  0.00     0.048 A 
ENDBRANCH  13  15
ENDBRANCH  10  13
BRANCH   1  22
HETATM   22  N2  UNL     1      25.550   4.458  50.297  1.00  0.00    -0.324 N 
HETATM   23  C6  UNL     1      26.391   5.008  49.329  1.00  0.00     0.245 C 
HETATM   24  O1  UNL     1      27.392   4.372  48.990  1.00  0.00    -0.268 OA
HETATM   25  H11 UNL     1      24.737   5.097  50.493  1.00  0.00     0.169 HD
BRANCH  23  26
HETATM   26  C5  UNL     1      26.195   6.283  48.672  1.00  0.00     0.072 C 
HETATM   27  C4  UNL     1      27.212   6.968  48.179  1.00  0.00     0.008 C 
BRANCH  27  28
HETATM   28  C3  UNL     1      26.941   8.277  47.514  1.00  0.00     0.299 C 
BRANCH  28  29
HETATM   29  N1  UNL     1      27.617   9.354  48.173  1.00  0.00     0.083 N 
HETATM   30  C1  UNL     1      26.695  10.136  48.939  1.00  0.00     0.309 C 
HETATM   31  C2  UNL     1      28.706   8.835  48.952  1.00  0.00     0.309 C 
ENDBRANCH  28  29
ENDBRANCH  27  28
ENDBRANCH  23  26
ENDBRANCH   1  22
TORSDOF 6
ENDMDL
MODEL 5
REMARK VINA RESULT:      -8.1      2.658      8.045
REMARK  6 active torsions:
REMARK  status: ('A' for Active; 'I' for Inactive)
REMARK    1  A    between atoms: N1_2  and  C3_4 
REMARK    2  A    between atoms: C3_4  and  C4_5 
REMARK    3  A    between atoms: C5_6  and  C6_7 
REMARK       I    between atoms: C6_7  and  N2_9 
REMARK    4  A    between atoms: N2_9  and  C7_10 
REMARK    5  A    between atoms: C14_19  and  N5_20 
REMARK    6  A    between atoms: N5_20  and  C15_21 
ROOT
HETATM    1  C7  UNL     1      25.187   2.839  51.555  1.00  0.00     0.035 A 
HETATM    2  C8  UNL     1      25.886   2.249  52.577  1.00  0.00     0.030 A 
HETATM    3  C9  UNL     1      25.437   1.186  53.325  1.00  0.00     0.016 A 
HETATM    4  C10 UNL     1      24.171   0.684  53.004  1.00  0.00     0.000 A 
HETATM    5  C11 UNL     1      23.760  -0.379  53.778  1.00  0.00     0.073 A 
HETATM    6  C12 UNL     1      24.529  -0.948  54.823  1.00  0.00     0.102 C 
HETATM    7  N3  UNL     1      25.158  -1.432  55.682  1.00  0.00    -0.191 NA
HETATM    8  C13 UNL     1      22.519  -0.894  53.485  1.00  0.00     0.142 A 
HETATM    9  N4  UNL     1      21.819  -0.347  52.502  1.00  0.00    -0.241 NA
HETATM   10  C14 UNL     1      22.189   0.677  51.743  1.00  0.00     0.139 A 
HETATM   11  C21 UNL     1      23.414   1.237  51.981  1.00  0.00     0.024 A 
HETATM   12  C22 UNL     1      23.953   2.284  51.305  1.00  0.00     0.045 A 
ENDROOT
BRANCH  10  13
HETATM   13  N5  UNL     1      21.380   1.197  50.712  1.00  0.00    -0.340 N 
HETATM   14  H15 UNL     1      21.515   0.921  49.719  1.00  0.00     0.167 HD
BRANCH  13  15
HETATM   15  C15 UNL     1      20.305   2.119  50.763  1.00  0.00     0.035 A 
HETATM   16  C16 UNL     1      19.074   1.899  51.365  1.00  0.00     0.029 A 
HETATM   17  C17 UNL     1      18.049   2.796  51.408  1.00  0.00     0.004 A 
HETATM   18  C18 UNL     1      18.184   4.018  50.833  1.00  0.00     0.019 A 
HETATM   19  C19 UNL     1      19.377   4.319  50.213  1.00  0.00     0.013 A 
HETATM   20 BR1  UNL     1      19.514   6.043  49.423  1.00  0.00    -0.051 Br
HETATM   21  C20 UNL     1      20.378   3.374  50.200  1.00  0.00     0.048 A 
ENDBRANCH  13  15
ENDBRANCH  10  13
BRANCH   1  22
HETATM   22  N2  UNL     1      25.617   3.933  50.766  1.00  0.00    -0.324 N 
HETATM   23  C6  UNL     1      26.459   3.958  49.654  1.00  0.00     0.245 C 
HETATM   24  O1  UNL     1      26.931   2.893  49.249  1.00  0.00    -0.268 OA
HETATM   25  H11 UNL     1      25.285   4.903  51.006  1.00  0.00     0.169 HD
BRANCH  23  26
HETATM   26  C5  UNL     1      26.841   5.143  48.915  1.00  0.00     0.072 C 
HETATM   27  C4  UNL     1      28.092   5.352  48.544  1.00  0.00     0.008 C 
BRANCH  27  28
HETATM   28  C3  UNL     1      28.418   6.595  47.784  1.00  0.00     0.299 C 
BRANCH  28  29
HETATM   29  N1  UNL     1      29.833   6.782  47.662  1.00  0.00     0.083 N 
HETATM   30  C1  UNL     1      30.277   7.841  48.516  1.00  0.00     0.309 C 
HETATM   31  C2  UNL     1      30.507   5.538  47.900  1.00  0.00     0.309 C 
ENDBRANCH  28  29
ENDBRANCH  27  28
ENDBRANCH  23  26
ENDBRANCH   1  22
TORSDOF 6
ENDMDL
MODEL 6
REMARK VINA RESULT:      -8.1      3.561      8.251
REMARK  6 active torsions:
REMARK  status: ('A' for Active; 'I' for Inactive)
REMARK    1  A    between atoms: N1_2  and  C3_4 
REMARK    2  A    between atoms: C3_4  and  C4_5 
REMARK    3  A    between atoms: C5_6  and  C6_7 
REMARK       I    between atoms: C6_7  and  N2_9 
REMARK    4  A    between atoms: N2_9  and  C7_10 
REMARK    5  A    between atoms: C14_19  and  N5_20 
REMARK    6  A    between atoms: N5_20  and  C15_21 
ROOT
HETATM    1  C7  UNL     1      25.135   2.841  51.591  1.00  0.00     0.035 A 
HETATM    2  C8  UNL     1      25.840   2.303  52.636  1.00  0.00     0.030 A 
HETATM    3  C9  UNL     1      25.424   1.235  53.397  1.00  0.00     0.016 A 
HETATM    4  C10 UNL     1      24.189   0.670  53.063  1.00  0.00     0.000 A 
HETATM    5  C11 UNL     1      23.812  -0.396  53.851  1.00  0.00     0.073 A 
HETATM    6  C12 UNL     1      24.585  -0.909  54.921  1.00  0.00     0.102 C 
HETATM    7  N3  UNL     1      25.219  -1.347  55.801  1.00  0.00    -0.191 NA
HETATM    8  C13 UNL     1      22.601  -0.972  53.545  1.00  0.00     0.142 A 
HETATM    9  N4  UNL     1      21.896  -0.476  52.539  1.00  0.00    -0.241 NA
HETATM   10  C14 UNL     1      22.235   0.549  51.766  1.00  0.00     0.139 A 
HETATM   11  C21 UNL     1      23.428   1.168  52.015  1.00  0.00     0.024 A 
HETATM   12  C22 UNL     1      23.931   2.226  51.329  1.00  0.00     0.045 A 
ENDROOT
BRANCH  10  13
HETATM   13  N5  UNL     1      21.423   1.011  50.710  1.00  0.00    -0.340 N 
HETATM   14  H15 UNL     1      21.829   1.440  49.856  1.00  0.00     0.167 HD
BRANCH  13  15
HETATM   15  C15 UNL     1      20.012   1.007  50.565  1.00  0.00     0.035 A 
HETATM   16  C16 UNL     1      19.286   1.773  49.664  1.00  0.00     0.029 A 
HETATM   17  C17 UNL     1      17.929   1.757  49.536  1.00  0.00     0.004 A 
HETATM   18  C18 UNL     1      17.176   0.950  50.324  1.00  0.00     0.019 A 
HETATM   19  C19 UNL     1      17.819   0.156  51.247  1.00  0.00     0.013 A 
HETATM   20 BR1  UNL     1      16.717  -0.957  52.327  1.00  0.00    -0.051 Br
HETATM   21  C20 UNL     1      19.191   0.211  51.334  1.00  0.00     0.048 A 
ENDBRANCH  13  15
ENDBRANCH  10  13
BRANCH   1  22
HETATM   22  N2  UNL     1      25.530   3.938  50.787  1.00  0.00    -0.324 N 
HETATM   23  C6  UNL     1      26.401   3.983  49.700  1.00  0.00     0.245 C 
HETATM   24  O1  UNL     1      26.940   2.935  49.333  1.00  0.00    -0.268 OA
HETATM   25  H11 UNL     1      25.141   4.894  50.994  1.00  0.00     0.169 HD
BRANCH  23  26
HETATM   26  C5  UNL     1      26.742   5.169  48.943  1.00  0.00     0.072 C 
HETATM   27  C4  UNL     1      27.976   5.390  48.525  1.00  0.00     0.008 C 
BRANCH  27  28
HETATM   28  C3  UNL     1      28.260   6.634  47.750  1.00  0.00     0.299 C 
BRANCH  28  29
HETATM   29  N1  UNL     1      27.416   7.717  48.163  1.00  0.00     0.083 N 
HETATM   30  C1  UNL     1      28.143   8.639  48.981  1.00  0.00     0.309 C 
HETATM   31  C2  UNL     1      26.817   8.328  47.011  1.00  0.00     0.309 C 
ENDBRANCH  28  29
ENDBRANCH  27  28
ENDBRANCH  23  26
ENDBRANCH   1  22
TORSDOF 6
ENDMDL
MODEL 7
REMARK VINA RESULT:      -8.0      3.804      7.335
REMARK  6 active torsions:
REMARK  status: ('A' for Active; 'I' for Inactive)
REMARK    1  A    between atoms: N1_2  and  C3_4 
REMARK    2  A    between atoms: C3_4  and  C4_5 
REMARK    3  A    between atoms: C5_6  and  C6_7 
REMARK       I    between atoms: C6_7  and  N2_9 
REMARK    4  A    between atoms: N2_9  and  C7_10 
REMARK    5  A    between atoms: C14_19  and  N5_20 
REMARK    6  A    between atoms: N5_20  and  C15_21 
ROOT
HETATM    1  C7  UNL     1      25.504   3.215  50.840  1.00  0.00     0.035 A 
HETATM    2  C8  UNL     1      26.648   2.492  51.056  1.00  0.00     0.030 A 
HETATM    3  C9  UNL     1      26.710   1.308  51.754  1.00  0.00     0.016 A 
HETATM    4  C10 UNL     1      25.504   0.823  52.273  1.00  0.00     0.000 A 
HETATM    5  C11 UNL     1      25.611  -0.364  52.964  1.00  0.00     0.073 A 
HETATM    6  C12 UNL     1      26.825  -1.067  53.155  1.00  0.00     0.102 C 
HETATM    7  N3  UNL     1      27.821  -1.662  53.312  1.00  0.00    -0.191 NA
HETATM    8  C13 UNL     1      24.441  -0.866  53.485  1.00  0.00     0.142 A 
HETATM    9  N4  UNL     1      23.318  -0.191  53.292  1.00  0.00    -0.241 NA
HETATM   10  C14 UNL     1      23.186   0.954  52.632  1.00  0.00     0.139 A 
HETATM   11  C21 UNL     1      24.312   1.508  52.087  1.00  0.00     0.024 A 
HETATM   12  C22 UNL     1      24.363   2.668  51.383  1.00  0.00     0.045 A 
ENDROOT
BRANCH  10  13
HETATM   13  N5  UNL     1      21.947   1.605  52.471  1.00  0.00    -0.340 N 
HETATM   14  H15 UNL     1      21.804   2.590  52.769  1.00  0.00     0.167 HD
BRANCH  13  15
HETATM   15  C15 UNL     1      20.726   1.136  51.924  1.00  0.00     0.035 A 
HETATM   16  C16 UNL     1      20.218   1.459  50.674  1.00  0.00     0.029 A 
HETATM   17  C17 UNL     1      19.042   0.999  50.161  1.00  0.00     0.004 A 
HETATM   18  C18 UNL     1      18.263   0.156  50.885  1.00  0.00     0.019 A 
HETATM   19  C19 UNL     1      18.694  -0.215  52.139  1.00  0.00     0.013 A 
HETATM   20 BR1  UNL     1      17.565  -1.397  53.111  1.00  0.00    -0.051 Br
HETATM   21  C20 UNL     1      19.890   0.280  52.607  1.00  0.00     0.048 A 
ENDBRANCH  13  15
ENDBRANCH  10  13
BRANCH   1  22
HETATM   22  N2  UNL     1      25.403   4.435  50.129  1.00  0.00    -0.324 N 
HETATM   23  C6  UNL     1      26.259   4.990  49.177  1.00  0.00     0.245 C 
HETATM   24  O1  UNL     1      27.275   4.364  48.864  1.00  0.00    -0.268 OA
HETATM   25  H11 UNL     1      24.578   5.066  50.302  1.00  0.00     0.169 HD
BRANCH  23  26
HETATM   26  C5  UNL     1      26.062   6.258  48.506  1.00  0.00     0.072 C 
HETATM   27  C4  UNL     1      24.852   6.737  48.279  1.00  0.00     0.008 C 
BRANCH  27  28
HETATM   28  C3  UNL     1      24.720   8.051  47.583  1.00  0.00     0.299 C 
BRANCH  28  29
HETATM   29  N1  UNL     1      23.422   8.208  46.995  1.00  0.00     0.083 N 
HETATM   30  C1  UNL     1      22.879   6.938  46.624  1.00  0.00     0.309 C 
HETATM   31  C2  UNL     1      22.576   8.951  47.885  1.00  0.00     0.309 C 
ENDBRANCH  28  29
ENDBRANCH  27  28
ENDBRANCH  23  26
ENDBRANCH   1  22
TORSDOF 6
ENDMDL
MODEL 8
REMARK VINA RESULT:      -7.9      1.556      1.875
REMARK  6 active torsions:
REMARK  status: ('A' for Active; 'I' for Inactive)
REMARK    1  A    between atoms: N1_2  and  C3_4 
REMARK    2  A    between atoms: C3_4  and  C4_5 
REMARK    3  A    between atoms: C5_6  and  C6_7 
REMARK       I    between atoms: C6_7  and  N2_9 
REMARK    4  A    between atoms: N2_9  and  C7_10 
REMARK    5  A    between atoms: C14_19  and  N5_20 
REMARK    6  A    between atoms: N5_20  and  C15_21 
ROOT
HETATM    1  C7  UNL     1      20.946   1.403  52.472  1.00  0.00     0.035 A 
HETATM    2  C8  UNL     1      21.214   0.573  53.529  1.00  0.00     0.030 A 
HETATM    3  C9  UNL     1      22.470   0.149  53.898  1.00  0.00     0.016 A 
HETATM    4  C10 UNL     1      23.539   0.612  53.124  1.00  0.00     0.000 A 
HETATM    5  C11 UNL     1      24.778   0.164  53.526  1.00  0.00     0.073 A 
HETATM    6  C12 UNL     1      24.993  -0.696  54.631  1.00  0.00     0.102 C 
HETATM    7  N3  UNL     1      25.184  -1.398  55.547  1.00  0.00    -0.191 NA
HETATM    8  C13 UNL     1      25.849   0.603  52.784  1.00  0.00     0.142 A 
HETATM    9  N4  UNL     1      25.623   1.408  51.756  1.00  0.00    -0.241 NA
HETATM   10  C14 UNL     1      24.442   1.854  51.346  1.00  0.00     0.139 A 
HETATM   11  C21 UNL     1      23.334   1.455  52.041  1.00  0.00     0.024 A 
HETATM   12  C22 UNL     1      22.053   1.812  51.764  1.00  0.00     0.045 A 
ENDROOT
BRANCH  10  13
HETATM   13  N5  UNL     1      24.292   2.714  50.239  1.00  0.00    -0.340 N 
HETATM   14  H15 UNL     1      23.433   2.707  49.654  1.00  0.00     0.167 HD
BRANCH  13  15
HETATM   15  C15 UNL     1      25.172   3.690  49.707  1.00  0.00     0.035 A 
HETATM   16  C16 UNL     1      26.528   3.518  49.468  1.00  0.00     0.029 A 
HETATM   17  C17 UNL     1      27.361   4.466  48.954  1.00  0.00     0.004 A 
HETATM   18  C18 UNL     1      26.884   5.695  48.633  1.00  0.00     0.019 A 
HETATM   19  C19 UNL     1      25.547   5.950  48.839  1.00  0.00     0.013 A 
HETATM   20 BR1  UNL     1      24.931   7.688  48.372  1.00  0.00    -0.051 Br
HETATM   21  C20 UNL     1      24.751   4.955  49.360  1.00  0.00     0.048 A 
ENDBRANCH  13  15
ENDBRANCH  10  13
BRANCH   1  22
HETATM   22  N2  UNL     1      19.668   1.858  52.064  1.00  0.00    -0.324 N 
HETATM   23  C6  UNL     1      18.912   1.515  50.944  1.00  0.00     0.245 C 
HETATM   24  O1  UNL     1      19.376   0.692  50.150  1.00  0.00    -0.268 OA
HETATM   25  H11 UNL     1      19.160   2.565  52.656  1.00  0.00     0.169 HD
BRANCH  23  26
HETATM   26  C5  UNL     1      17.606   2.046  50.616  1.00  0.00     0.072 C 
HETATM   27  C4  UNL     1      16.599   1.977  51.470  1.00  0.00     0.008 C 
BRANCH  27  28
HETATM   28  C3  UNL     1      15.278   2.545  51.069  1.00  0.00     0.299 C 
BRANCH  28  29
HETATM   29  N1  UNL     1      14.478   2.876  52.211  1.00  0.00     0.083 N 
HETATM   30  C1  UNL     1      14.177   1.704  52.974  1.00  0.00     0.309 C 
HETATM   31  C2  UNL     1      15.131   3.901  52.975  1.00  0.00     0.309 C 
ENDBRANCH  28  29
ENDBRANCH  27  28
ENDBRANCH  23  26
ENDBRANCH   1  22
TORSDOF 6
ENDMDL
MODEL 9
REMARK VINA RESULT:      -7.9      4.436      8.025
REMARK  6 active torsions:
REMARK  status: ('A' for Active; 'I' for Inactive)
REMARK    1  A    between atoms: N1_2  and  C3_4 
REMARK    2  A    between atoms: C3_4  and  C4_5 
REMARK    3  A    between atoms: C5_6  and  C6_7 
REMARK       I    between atoms: C6_7  and  N2_9 
REMARK    4  A    between atoms: N2_9  and  C7_10 
REMARK    5  A    between atoms: C14_19  and  N5_20 
REMARK    6  A    between atoms: N5_20  and  C15_21 
ROOT
HETATM    1  C7  UNL     1      25.653   3.643  49.913  1.00  0.00     0.035 A 
HETATM    2  C8  UNL     1      24.357   3.742  49.477  1.00  0.00     0.030 A 
HETATM    3  C9  UNL     1      23.846   4.802  48.764  1.00  0.00     0.016 A 
HETATM    4  C10 UNL     1      24.730   5.846  48.473  1.00  0.00     0.000 A 
HETATM    5  C11 UNL     1      24.178   6.887  47.759  1.00  0.00     0.073 A 
HETATM    6  C12 UNL     1      22.827   6.932  47.334  1.00  0.00     0.102 C 
HETATM    7  N3  UNL     1      21.717   6.976  46.969  1.00  0.00    -0.191 NA
HETATM    8  C13 UNL     1      25.024   7.928  47.458  1.00  0.00     0.142 A 
HETATM    9  N4  UNL     1      26.283   7.863  47.865  1.00  0.00    -0.241 NA
HETATM   10  C14 UNL     1      26.841   6.874  48.555  1.00  0.00     0.139 A 
HETATM   11  C21 UNL     1      26.054   5.806  48.887  1.00  0.00     0.024 A 
HETATM   12  C22 UNL     1      26.455   4.713  49.585  1.00  0.00     0.045 A 
ENDROOT
BRANCH  10  13
HETATM   13  N5  UNL     1      28.195   6.884  48.946  1.00  0.00    -0.340 N 
HETATM   14  H15 UNL     1      28.479   7.082  49.926  1.00  0.00     0.167 HD
BRANCH  13  15
HETATM   15  C15 UNL     1      29.372   6.654  48.190  1.00  0.00     0.035 A 
HETATM   16  C16 UNL     1      30.148   5.504  48.224  1.00  0.00     0.029 A 
HETATM   17  C17 UNL     1      31.277   5.297  47.490  1.00  0.00     0.004 A 
HETATM   18  C18 UNL     1      31.728   6.256  46.643  1.00  0.00     0.019 A 
HETATM   19  C19 UNL     1      31.017   7.430  46.548  1.00  0.00     0.013 A 
HETATM   20 BR1  UNL     1      31.692   8.740  45.346  1.00  0.00    -0.051 Br
HETATM   21  C20 UNL     1      29.883   7.586  47.313  1.00  0.00     0.048 A 
ENDBRANCH  13  15
ENDBRANCH  10  13
BRANCH   1  22
HETATM   22  N2  UNL     1      26.212   2.570  50.648  1.00  0.00    -0.324 N 
HETATM   23  C6  UNL     1      25.924   2.123  51.937  1.00  0.00     0.245 C 
HETATM   24  O1  UNL     1      25.056   2.713  52.585  1.00  0.00    -0.268 OA
HETATM   25  H11 UNL     1      26.967   1.982  50.208  1.00  0.00     0.169 HD
BRANCH  23  26
HETATM   26  C5  UNL     1      26.564   1.007  52.602  1.00  0.00     0.072 C 
HETATM   27  C4  UNL     1      26.955   1.086  53.862  1.00  0.00     0.008 C 
BRANCH  27  28
HETATM   28  C3  UNL     1      27.608  -0.101  54.488  1.00  0.00     0.299 C 
BRANCH  28  29
HETATM   29  N1  UNL     1      29.028   0.065  54.581  1.00  0.00     0.083 N 
HETATM   30  C1  UNL     1      29.695  -0.723  53.590  1.00  0.00     0.309 C 
HETATM   31  C2  UNL     1      29.355   1.461  54.511  1.00  0.00     0.309 C 
ENDBRANCH  28  29
ENDBRANCH  27  28
ENDBRANCH  23  26
ENDBRANCH   1  22
TORSDOF 6
ENDMDL
