MODEL 1
REMARK VINA RESULT:      -9.6      0.000      0.000
REMARK  7 active torsions:
REMARK  status: ('A' for Active; 'I' for Inactive)
REMARK    1  A    between atoms: N1_7  and  C6_8 
REMARK    2  A    between atoms: C6_8  and  C7_9 
REMARK    3  A    between atoms: C7_9  and  C8_10 
REMARK    4  A    between atoms: C8_10  and  C9_11 
REMARK    5  A    between atoms: C14_16  and  N2_17 
REMARK    6  A    between atoms: N2_17  and  O2_18 
REMARK    7  A    between atoms: N5_22  and  C16_23 
ROOT
HETATM    1  C9  UNL     1      20.829   0.132  52.359  1.00  0.00    -0.029 A 
HETATM    2  C10 UNL     1      22.198   0.376  52.541  1.00  0.00     0.024 A 
HETATM    3  C11 UNL     1      22.922  -0.162  53.579  1.00  0.00     0.011 A 
HETATM    4  C12 UNL     1      22.330  -0.984  54.513  1.00  0.00     0.072 A 
HETATM    5  C13 UNL     1      20.985  -1.255  54.382  1.00  0.00     0.064 A 
HETATM    6  C14 UNL     1      20.325  -0.693  53.336  1.00  0.00     0.062 A 
HETATM    7  N3  UNL     1      22.858  -1.566  55.532  1.00  0.00    -0.239 NA
HETATM    8  C15 UNL     1      24.205  -1.552  56.023  1.00  0.00     0.256 A 
HETATM    9  N4  UNL     1      25.212  -0.918  55.511  1.00  0.00    -0.161 NA
HETATM   10  N5  UNL     1      25.254  -0.103  54.385  1.00  0.00    -0.245 N 
HETATM   11  C21 UNL     1      24.196   0.254  53.476  1.00  0.00     0.132 A 
ENDROOT
BRANCH   1  12
HETATM   12  C8  UNL     1      20.163   0.712  51.206  1.00  0.00     0.042 C 
BRANCH  12  13
HETATM   13  C7  UNL     1      21.067   1.328  50.172  1.00  0.00     0.035 C 
BRANCH  13  14
HETATM   14  C6  UNL     1      21.059   2.815  50.097  1.00  0.00     0.273 C 
BRANCH  14  15
HETATM   15  N1  UNL     1      22.302   3.389  49.705  1.00  0.00     0.097 N 
HETATM   16  C2  UNL     1      23.485   2.966  50.357  1.00  0.00     0.242 C 
HETATM   17  C1  UNL     1      24.698   3.392  49.500  1.00  0.00     0.045 C 
HETATM   18  C3  UNL     1      23.710   3.666  51.688  1.00  0.00     0.203 C 
HETATM   19  O1  UNL     1      23.584   5.053  51.541  1.00  0.00    -0.387 OA
HETATM   20  C4  UNL     1      22.341   5.397  51.018  1.00  0.00     0.198 C 
HETATM   21  C5  UNL     1      22.208   4.838  49.643  1.00  0.00     0.299 C 
ENDBRANCH  14  15
ENDBRANCH  13  14
ENDBRANCH  12  13
ENDBRANCH   1  12
BRANCH   6  22
HETATM   22  N2  UNL     1      18.936  -0.983  53.292  1.00  0.00    -0.269 N 
HETATM   23  H19 UNL     1      18.035  -1.144  52.829  1.00  0.00     0.194 HD
BRANCH  22  24
HETATM   24  O2  UNL     1      17.940  -1.246  54.169  1.00  0.00    -0.289 OA
HETATM   25  H20 UNL     1      17.088  -1.154  53.654  1.00  0.00     0.244 HD
ENDBRANCH  22  24
ENDBRANCH   6  22
BRANCH  10  26
HETATM   26  C16 UNL     1      26.467   0.511  53.992  1.00  0.00     0.061 A 
HETATM   27  C17 UNL     1      26.762   1.768  53.640  1.00  0.00     0.032 A 
HETATM   28  C18 UNL     1      28.195   1.787  53.339  1.00  0.00     0.042 A 
HETATM   29  C19 UNL     1      28.721   0.583  53.507  1.00  0.00     0.118 A 
HETATM   30  F1  UNL     1      30.025   0.274  53.308  1.00  0.00    -0.209 F 
HETATM   31  C20 UNL     1      27.670  -0.380  53.948  1.00  0.00     0.196 A 
HETATM   32 CL1  UNL     1      27.357  -1.649  52.748  1.00  0.00    -0.111 Cl
ENDBRANCH  10  26
TORSDOF 7
ENDMDL
MODEL 2
REMARK VINA RESULT:      -9.6      3.083      6.129
REMARK  7 active torsions:
REMARK  status: ('A' for Active; 'I' for Inactive)
REMARK    1  A    between atoms: N1_7  and  C6_8 
REMARK    2  A    between atoms: C6_8  and  C7_9 
REMARK    3  A    between atoms: C7_9  and  C8_10 
REMARK    4  A    between atoms: C8_10  and  C9_11 
REMARK    5  A    between atoms: C14_16  and  N2_17 
REMARK    6  A    between atoms: N2_17  and  O2_18 
REMARK    7  A    between atoms: N5_22  and  C16_23 
ROOT
HETATM    1  C9  UNL     1      23.359  -0.004  53.392  1.00  0.00    -0.029 A 
HETATM    2  C10 UNL     1      23.999   0.941  52.578  1.00  0.00     0.024 A 
HETATM    3  C11 UNL     1      23.419   1.473  51.451  1.00  0.00     0.011 A 
HETATM    4  C12 UNL     1      22.154   1.099  51.054  1.00  0.00     0.072 A 
HETATM    5  C13 UNL     1      21.480   0.171  51.819  1.00  0.00     0.064 A 
HETATM    6  C14 UNL     1      22.107  -0.318  52.919  1.00  0.00     0.062 A 
HETATM    7  N3  UNL     1      21.471   1.498  50.039  1.00  0.00    -0.239 NA
HETATM    8  C15 UNL     1      21.793   2.442  49.008  1.00  0.00     0.256 A 
HETATM    9  N4  UNL     1      22.892   3.115  48.887  1.00  0.00    -0.161 NA
HETATM   10  N5  UNL     1      24.022   3.102  49.698  1.00  0.00    -0.245 N 
HETATM   11  C21 UNL     1      24.278   2.345  50.896  1.00  0.00     0.132 A 
ENDROOT
BRANCH   1  12
HETATM   12  C8  UNL     1      24.039  -0.474  54.587  1.00  0.00     0.042 C 
BRANCH  12  13
HETATM   13  C7  UNL     1      25.451  -0.956  54.386  1.00  0.00     0.035 C 
BRANCH  13  14
HETATM   14  C6  UNL     1      26.530   0.004  54.748  1.00  0.00     0.273 C 
BRANCH  14  15
HETATM   15  N1  UNL     1      27.687  -0.076  53.921  1.00  0.00     0.097 N 
HETATM   16  C2  UNL     1      28.929   0.355  54.442  1.00  0.00     0.242 C 
HETATM   17  C1  UNL     1      30.059  -0.208  53.551  1.00  0.00     0.045 C 
HETATM   18  C3  UNL     1      29.114   1.863  54.363  1.00  0.00     0.203 C 
HETATM   19  O1  UNL     1      28.825   2.325  53.072  1.00  0.00    -0.387 OA
HETATM   20  C4  UNL     1      27.536   1.975  52.684  1.00  0.00     0.198 C 
HETATM   21  C5  UNL     1      27.426   0.491  52.608  1.00  0.00     0.299 C 
ENDBRANCH  14  15
ENDBRANCH  13  14
ENDBRANCH  12  13
ENDBRANCH   1  12
BRANCH   6  22
HETATM   22  N2  UNL     1      21.368  -1.300  53.631  1.00  0.00    -0.269 N 
HETATM   23  H19 UNL     1      20.932  -2.218  53.763  1.00  0.00     0.194 HD
BRANCH  22  24
HETATM   24  O2  UNL     1      20.747  -1.413  54.827  1.00  0.00    -0.289 OA
HETATM   25  H20 UNL     1      20.864  -0.532  55.283  1.00  0.00     0.244 HD
ENDBRANCH  22  24
ENDBRANCH   6  22
BRANCH  10  26
HETATM   26  C16 UNL     1      25.135   3.918  49.386  1.00  0.00     0.061 A 
HETATM   27  C17 UNL     1      26.451   3.671  49.366  1.00  0.00     0.032 A 
HETATM   28  C18 UNL     1      27.100   4.918  48.961  1.00  0.00     0.042 A 
HETATM   29  C19 UNL     1      26.198   5.865  48.751  1.00  0.00     0.118 A 
HETATM   30  F1  UNL     1      26.482   7.133  48.365  1.00  0.00    -0.209 F 
HETATM   31  C20 UNL     1      24.826   5.331  48.999  1.00  0.00     0.196 A 
HETATM   32 CL1  UNL     1      24.030   6.106  50.382  1.00  0.00    -0.111 Cl
ENDBRANCH  10  26
TORSDOF 7
ENDMDL
MODEL 3
REMARK VINA RESULT:      -8.8      3.718      7.482
REMARK  7 active torsions:
REMARK  status: ('A' for Active; 'I' for Inactive)
REMARK    1  A    between atoms: N1_7  and  C6_8 
REMARK    2  A    between atoms: C6_8  and  C7_9 
REMARK    3  A    between atoms: C7_9  and  C8_10 
REMARK    4  A    between atoms: C8_10  and  C9_11 
REMARK    5  A    between atoms: C14_16  and  N2_17 
REMARK    6  A    between atoms: N2_17  and  O2_18 
REMARK    7  A    between atoms: N5_22  and  C16_23 
ROOT
HETATM    1  C9  UNL     1      25.028   3.609  50.920  1.00  0.00    -0.029 A 
HETATM    2  C10 UNL     1      24.095   2.709  51.453  1.00  0.00     0.024 A 
HETATM    3  C11 UNL     1      22.762   3.014  51.601  1.00  0.00     0.011 A 
HETATM    4  C12 UNL     1      22.263   4.243  51.227  1.00  0.00     0.072 A 
HETATM    5  C13 UNL     1      23.140   5.166  50.698  1.00  0.00     0.064 A 
HETATM    6  C14 UNL     1      24.444   4.805  50.578  1.00  0.00     0.062 A 
HETATM    7  N3  UNL     1      21.057   4.683  51.294  1.00  0.00    -0.239 NA
HETATM    8  C15 UNL     1      19.858   4.057  51.770  1.00  0.00     0.256 A 
HETATM    9  N4  UNL     1      19.745   2.861  52.253  1.00  0.00    -0.161 NA
HETATM   10  N5  UNL     1      20.727   1.894  52.436  1.00  0.00    -0.245 N 
HETATM   11  C21 UNL     1      22.134   1.952  52.134  1.00  0.00     0.132 A 
ENDROOT
BRANCH   1  12
HETATM   12  C8  UNL     1      26.406   3.177  50.764  1.00  0.00     0.042 C 
BRANCH  12  13
HETATM   13  C7  UNL     1      26.696   1.760  51.183  1.00  0.00     0.035 C 
BRANCH  13  14
HETATM   14  C6  UNL     1      27.344   1.589  52.513  1.00  0.00     0.273 C 
BRANCH  14  15
HETATM   15  N1  UNL     1      27.542   0.233  52.898  1.00  0.00     0.097 N 
HETATM   16  C2  UNL     1      26.605  -0.741  52.477  1.00  0.00     0.242 C 
HETATM   17  C1  UNL     1      27.239  -2.139  52.646  1.00  0.00     0.045 C 
HETATM   18  C3  UNL     1      25.366  -0.789  53.357  1.00  0.00     0.203 C 
HETATM   19  O1  UNL     1      25.726  -0.866  54.708  1.00  0.00    -0.387 OA
HETATM   20  C4  UNL     1      26.540   0.200  55.078  1.00  0.00     0.198 C 
HETATM   21  C5  UNL     1      27.822   0.133  54.321  1.00  0.00     0.299 C 
ENDBRANCH  14  15
ENDBRANCH  13  14
ENDBRANCH  12  13
ENDBRANCH   1  12
BRANCH   6  22
HETATM   22  N2  UNL     1      25.292   5.822  50.065  1.00  0.00    -0.269 N 
HETATM   23  H19 UNL     1      25.756   6.358  49.324  1.00  0.00     0.194 HD
BRANCH  22  24
HETATM   24  O2  UNL     1      26.080   6.807  50.552  1.00  0.00    -0.289 OA
HETATM   25  H20 UNL     1      25.937   7.595  49.955  1.00  0.00     0.244 HD
ENDBRANCH  22  24
ENDBRANCH   6  22
BRANCH  10  26
HETATM   26  C16 UNL     1      20.396   0.635  52.992  1.00  0.00     0.061 A 
HETATM   27  C17 UNL     1      21.092  -0.221  53.750  1.00  0.00     0.032 A 
HETATM   28  C18 UNL     1      20.207  -1.357  54.011  1.00  0.00     0.042 A 
HETATM   29  C19 UNL     1      19.032  -1.174  53.425  1.00  0.00     0.118 A 
HETATM   30  F1  UNL     1      17.997  -2.047  53.479  1.00  0.00    -0.209 F 
HETATM   31  C20 UNL     1      19.017   0.130  52.701  1.00  0.00     0.196 A 
HETATM   32 CL1  UNL     1      18.874  -0.064  50.944  1.00  0.00    -0.111 Cl
ENDBRANCH  10  26
TORSDOF 7
ENDMDL
MODEL 4
REMARK VINA RESULT:      -8.7      2.636      3.698
REMARK  7 active torsions:
REMARK  status: ('A' for Active; 'I' for Inactive)
REMARK    1  A    between atoms: N1_7  and  C6_8 
REMARK    2  A    between atoms: C6_8  and  C7_9 
REMARK    3  A    between atoms: C7_9  and  C8_10 
REMARK    4  A    between atoms: C8_10  and  C9_11 
REMARK    5  A    between atoms: C14_16  and  N2_17 
REMARK    6  A    between atoms: N2_17  and  O2_18 
REMARK    7  A    between atoms: N5_22  and  C16_23 
ROOT
HETATM    1  C9  UNL     1      20.460  -0.138  52.559  1.00  0.00    -0.029 A 
HETATM    2  C10 UNL     1      21.813   0.214  52.666  1.00  0.00     0.024 A 
HETATM    3  C11 UNL     1      22.643  -0.288  53.641  1.00  0.00     0.011 A 
HETATM    4  C12 UNL     1      22.180  -1.181  54.583  1.00  0.00     0.072 A 
HETATM    5  C13 UNL     1      20.856  -1.559  54.524  1.00  0.00     0.064 A 
HETATM    6  C14 UNL     1      20.088  -1.028  53.539  1.00  0.00     0.062 A 
HETATM    7  N3  UNL     1      22.817  -1.743  55.549  1.00  0.00    -0.239 NA
HETATM    8  C15 UNL     1      24.187  -1.629  55.958  1.00  0.00     0.256 A 
HETATM    9  N4  UNL     1      25.104  -0.899  55.407  1.00  0.00    -0.161 NA
HETATM   10  N5  UNL     1      25.008  -0.054  54.306  1.00  0.00    -0.245 N 
HETATM   11  C21 UNL     1      23.869   0.236  53.474  1.00  0.00     0.132 A 
ENDROOT
BRANCH   1  12
HETATM   12  C8  UNL     1      19.677   0.414  51.468  1.00  0.00     0.042 C 
BRANCH  12  13
HETATM   13  C7  UNL     1      19.231   1.841  51.642  1.00  0.00     0.035 C 
BRANCH  13  14
HETATM   14  C6  UNL     1      18.559   2.466  50.470  1.00  0.00     0.273 C 
BRANCH  14  15
HETATM   15  N1  UNL     1      17.528   3.389  50.808  1.00  0.00     0.097 N 
HETATM   16  C2  UNL     1      16.604   3.039  51.821  1.00  0.00     0.242 C 
HETATM   17  C1  UNL     1      15.880   4.321  52.289  1.00  0.00     0.045 C 
HETATM   18  C3  UNL     1      15.483   2.145  51.316  1.00  0.00     0.203 C 
HETATM   19  O1  UNL     1      14.909   2.684  50.158  1.00  0.00    -0.387 OA
HETATM   20  C4  UNL     1      15.861   2.875  49.161  1.00  0.00     0.198 C 
HETATM   21  C5  UNL     1      16.861   3.882  49.615  1.00  0.00     0.299 C 
ENDBRANCH  14  15
ENDBRANCH  13  14
ENDBRANCH  12  13
ENDBRANCH   1  12
BRANCH   6  22
HETATM   22  N2  UNL     1      18.727  -1.432  53.570  1.00  0.00    -0.269 N 
HETATM   23  H19 UNL     1      17.938  -2.053  53.360  1.00  0.00     0.194 HD
BRANCH  22  24
HETATM   24  O2  UNL     1      17.557  -0.972  54.068  1.00  0.00    -0.289 OA
HETATM   25  H20 UNL     1      17.783  -0.148  54.586  1.00  0.00     0.244 HD
ENDBRANCH  22  24
ENDBRANCH   6  22
BRANCH  10  26
HETATM   26  C16 UNL     1      26.139   0.669  53.859  1.00  0.00     0.061 A 
HETATM   27  C17 UNL     1      26.281   1.920  53.405  1.00  0.00     0.032 A 
HETATM   28  C18 UNL     1      27.702   2.089  53.098  1.00  0.00     0.042 A 
HETATM   29  C19 UNL     1      28.371   0.976  53.363  1.00  0.00     0.118 A 
HETATM   30  F1  UNL     1      29.705   0.814  53.186  1.00  0.00    -0.209 F 
HETATM   31  C20 UNL     1      27.442  -0.068  53.885  1.00  0.00     0.196 A 
HETATM   32 CL1  UNL     1      27.295  -1.460  52.795  1.00  0.00    -0.111 Cl
ENDBRANCH  10  26
TORSDOF 7
ENDMDL
MODEL 5
REMARK VINA RESULT:      -8.7      6.225      9.457
REMARK  7 active torsions:
REMARK  status: ('A' for Active; 'I' for Inactive)
REMARK    1  A    between atoms: N1_7  and  C6_8 
REMARK    2  A    between atoms: C6_8  and  C7_9 
REMARK    3  A    between atoms: C7_9  and  C8_10 
REMARK    4  A    between atoms: C8_10  and  C9_11 
REMARK    5  A    between atoms: C14_16  and  N2_17 
REMARK    6  A    between atoms: N2_17  and  O2_18 
REMARK    7  A    between atoms: N5_22  and  C16_23 
ROOT
HETATM    1  C9  UNL     1      26.716   5.442  49.062  1.00  0.00    -0.029 A 
HETATM    2  C10 UNL     1      27.963   4.997  48.603  1.00  0.00     0.024 A 
HETATM    3  C11 UNL     1      28.974   5.854  48.235  1.00  0.00     0.011 A 
HETATM    4  C12 UNL     1      28.811   7.221  48.298  1.00  0.00     0.072 A 
HETATM    5  C13 UNL     1      27.602   7.711  48.742  1.00  0.00     0.064 A 
HETATM    6  C14 UNL     1      26.644   6.814  49.090  1.00  0.00     0.062 A 
HETATM    7  N3  UNL     1      29.646   8.152  47.999  1.00  0.00    -0.239 NA
HETATM    8  C15 UNL     1      30.992   8.079  47.509  1.00  0.00     0.256 A 
HETATM    9  N4  UNL     1      31.671   7.005  47.258  1.00  0.00    -0.161 NA
HETATM   10  N5  UNL     1      31.286   5.675  47.389  1.00  0.00    -0.245 N 
HETATM   11  C21 UNL     1      30.035   5.127  47.846  1.00  0.00     0.132 A 
ENDROOT
BRANCH   1  12
HETATM   12  C8  UNL     1      25.728   4.457  49.469  1.00  0.00     0.042 C 
BRANCH  12  13
HETATM   13  C7  UNL     1      26.279   3.130  49.919  1.00  0.00     0.035 C 
BRANCH  13  14
HETATM   14  C6  UNL     1      25.880   2.684  51.282  1.00  0.00     0.273 C 
BRANCH  14  15
HETATM   15  N1  UNL     1      26.587   1.541  51.754  1.00  0.00     0.097 N 
HETATM   16  C2  UNL     1      25.854   0.469  52.316  1.00  0.00     0.242 C 
HETATM   17  C1  UNL     1      26.762  -0.780  52.356  1.00  0.00     0.045 C 
HETATM   18  C3  UNL     1      25.486   0.703  53.773  1.00  0.00     0.203 C 
HETATM   19  O1  UNL     1      26.613   1.094  54.507  1.00  0.00    -0.387 OA
HETATM   20  C4  UNL     1      27.200   2.234  53.968  1.00  0.00     0.198 C 
HETATM   21  C5  UNL     1      27.704   1.933  52.599  1.00  0.00     0.299 C 
ENDBRANCH  14  15
ENDBRANCH  13  14
ENDBRANCH  12  13
ENDBRANCH   1  12
BRANCH   6  22
HETATM   22  N2  UNL     1      25.413   7.395  49.496  1.00  0.00    -0.269 N 
HETATM   23  H19 UNL     1      24.462   7.752  49.352  1.00  0.00     0.194 HD
BRANCH  22  24
HETATM   24  O2  UNL     1      24.851   7.855  50.637  1.00  0.00    -0.289 OA
HETATM   25  H20 UNL     1      25.139   8.807  50.722  1.00  0.00     0.244 HD
ENDBRANCH  22  24
ENDBRANCH   6  22
BRANCH  10  26
HETATM   26  C16 UNL     1      32.184   4.634  47.052  1.00  0.00     0.061 A 
HETATM   27  C17 UNL     1      31.985   3.359  46.697  1.00  0.00     0.032 A 
HETATM   28  C18 UNL     1      33.311   2.781  46.472  1.00  0.00     0.042 A 
HETATM   29  C19 UNL     1      34.255   3.686  46.688  1.00  0.00     0.118 A 
HETATM   30  F1  UNL     1      35.585   3.461  46.563  1.00  0.00    -0.209 F 
HETATM   31  C20 UNL     1      33.639   4.985  47.086  1.00  0.00     0.196 A 
HETATM   32 CL1  UNL     1      34.041   5.452  48.750  1.00  0.00    -0.111 Cl
ENDBRANCH  10  26
TORSDOF 7
ENDMDL
MODEL 6
REMARK VINA RESULT:      -8.6      5.000      7.710
REMARK  7 active torsions:
REMARK  status: ('A' for Active; 'I' for Inactive)
REMARK    1  A    between atoms: N1_7  and  C6_8 
REMARK    2  A    between atoms: C6_8  and  C7_9 
REMARK    3  A    between atoms: C7_9  and  C8_10 
REMARK    4  A    between atoms: C8_10  and  C9_11 
REMARK    5  A    between atoms: C14_16  and  N2_17 
REMARK    6  A    between atoms: N2_17  and  O2_18 
REMARK    7  A    between atoms: N5_22  and  C16_23 
ROOT
HETATM    1  C9  UNL     1      26.517   5.441  48.860  1.00  0.00    -0.029 A 
HETATM    2  C10 UNL     1      26.789   4.302  49.631  1.00  0.00     0.024 A 
HETATM    3  C11 UNL     1      25.802   3.517  50.181  1.00  0.00     0.011 A 
HETATM    4  C12 UNL     1      24.469   3.815  50.002  1.00  0.00     0.072 A 
HETATM    5  C13 UNL     1      24.146   4.926  49.253  1.00  0.00     0.064 A 
HETATM    6  C14 UNL     1      25.165   5.660  48.737  1.00  0.00     0.062 A 
HETATM    7  N3  UNL     1      23.433   3.192  50.440  1.00  0.00    -0.239 NA
HETATM    8  C15 UNL     1      23.323   2.008  51.242  1.00  0.00     0.256 A 
HETATM    9  N4  UNL     1      24.297   1.294  51.710  1.00  0.00    -0.161 NA
HETATM   10  N5  UNL     1      25.668   1.479  51.566  1.00  0.00    -0.245 N 
HETATM   11  C21 UNL     1      26.380   2.508  50.854  1.00  0.00     0.132 A 
ENDROOT
BRANCH   1  12
HETATM   12  C8  UNL     1      27.628   6.179  48.286  1.00  0.00     0.042 C 
BRANCH  12  13
HETATM   13  C7  UNL     1      28.951   5.460  48.273  1.00  0.00     0.035 C 
BRANCH  13  14
HETATM   14  C6  UNL     1      30.126   6.256  47.824  1.00  0.00     0.273 C 
BRANCH  14  15
HETATM   15  N1  UNL     1      30.517   7.284  48.727  1.00  0.00     0.097 N 
HETATM   16  C2  UNL     1      30.633   8.609  48.245  1.00  0.00     0.242 C 
HETATM   17  C1  UNL     1      30.647   9.573  49.451  1.00  0.00     0.045 C 
HETATM   18  C3  UNL     1      31.961   8.871  47.549  1.00  0.00     0.203 C 
HETATM   19  O1  UNL     1      33.027   8.440  48.349  1.00  0.00    -0.387 OA
HETATM   20  C4  UNL     1      32.908   7.092  48.671  1.00  0.00     0.198 C 
HETATM   21  C5  UNL     1      31.684   6.884  49.496  1.00  0.00     0.299 C 
ENDBRANCH  14  15
ENDBRANCH  13  14
ENDBRANCH  12  13
ENDBRANCH   1  12
BRANCH   6  22
HETATM   22  N2  UNL     1      24.755   6.812  48.015  1.00  0.00    -0.269 N 
HETATM   23  H19 UNL     1      24.381   7.315  47.203  1.00  0.00     0.194 HD
BRANCH  22  24
HETATM   24  O2  UNL     1      24.688   8.148  48.215  1.00  0.00    -0.289 OA
HETATM   25  H20 UNL     1      25.433   8.545  47.680  1.00  0.00     0.244 HD
ENDBRANCH  22  24
ENDBRANCH   6  22
BRANCH  10  26
HETATM   26  C16 UNL     1      26.578   0.579  52.169  1.00  0.00     0.061 A 
HETATM   27  C17 UNL     1      26.582  -0.756  52.272  1.00  0.00     0.032 A 
HETATM   28  C18 UNL     1      27.796  -1.109  53.010  1.00  0.00     0.042 A 
HETATM   29  C19 UNL     1      28.480  -0.020  53.329  1.00  0.00     0.118 A 
HETATM   30  F1  UNL     1      29.649  -0.014  54.014  1.00  0.00    -0.209 F 
HETATM   31  C20 UNL     1      27.775   1.194  52.824  1.00  0.00     0.196 A 
HETATM   32 CL1  UNL     1      27.194   2.242  54.132  1.00  0.00    -0.111 Cl
ENDBRANCH  10  26
TORSDOF 7
ENDMDL
MODEL 7
REMARK VINA RESULT:      -8.5      1.278      1.478
REMARK  7 active torsions:
REMARK  status: ('A' for Active; 'I' for Inactive)
REMARK    1  A    between atoms: N1_7  and  C6_8 
REMARK    2  A    between atoms: C6_8  and  C7_9 
REMARK    3  A    between atoms: C7_9  and  C8_10 
REMARK    4  A    between atoms: C8_10  and  C9_11 
REMARK    5  A    between atoms: C14_16  and  N2_17 
REMARK    6  A    between atoms: N2_17  and  O2_18 
REMARK    7  A    between atoms: N5_22  and  C16_23 
ROOT
HETATM    1  C9  UNL     1      21.643   0.934  51.672  1.00  0.00    -0.029 A 
HETATM    2  C10 UNL     1      23.003   0.923  52.011  1.00  0.00     0.024 A 
HETATM    3  C11 UNL     1      23.494   0.265  53.114  1.00  0.00     0.011 A 
HETATM    4  C12 UNL     1      22.660  -0.433  53.960  1.00  0.00     0.072 A 
HETATM    5  C13 UNL     1      21.312  -0.454  53.673  1.00  0.00     0.064 A 
HETATM    6  C14 UNL     1      20.889   0.217  52.570  1.00  0.00     0.062 A 
HETATM    7  N3  UNL     1      22.953  -1.099  55.021  1.00  0.00    -0.239 NA
HETATM    8  C15 UNL     1      24.215  -1.331  55.661  1.00  0.00     0.256 A 
HETATM    9  N4  UNL     1      25.372  -0.892  55.278  1.00  0.00    -0.161 NA
HETATM   10  N5  UNL     1      25.690  -0.101  54.179  1.00  0.00    -0.245 N 
HETATM   11  C21 UNL     1      24.825   0.440  53.163  1.00  0.00     0.132 A 
ENDROOT
BRANCH   1  12
HETATM   12  C8  UNL     1      21.229   1.623  50.462  1.00  0.00     0.042 C 
BRANCH  12  13
HETATM   13  C7  UNL     1      20.810   3.058  50.640  1.00  0.00     0.035 C 
BRANCH  13  14
HETATM   14  C6  UNL     1      21.857   3.989  51.142  1.00  0.00     0.273 C 
BRANCH  14  15
HETATM   15  N1  UNL     1      22.430   4.821  50.138  1.00  0.00     0.097 N 
HETATM   16  C2  UNL     1      23.769   5.253  50.292  1.00  0.00     0.242 C 
HETATM   17  C1  UNL     1      24.281   5.762  48.926  1.00  0.00     0.045 C 
HETATM   18  C3  UNL     1      23.899   6.460  51.208  1.00  0.00     0.203 C 
HETATM   19  O1  UNL     1      22.998   7.463  50.830  1.00  0.00    -0.387 OA
HETATM   20  C4  UNL     1      21.688   6.995  50.831  1.00  0.00     0.198 C 
HETATM   21  C5  UNL     1      21.541   5.923  49.807  1.00  0.00     0.299 C 
ENDBRANCH  14  15
ENDBRANCH  13  14
ENDBRANCH  12  13
ENDBRANCH   1  12
BRANCH   6  22
HETATM   22  N2  UNL     1      19.484   0.185  52.364  1.00  0.00    -0.269 N 
HETATM   23  H19 UNL     1      18.516   0.489  52.516  1.00  0.00     0.194 HD
BRANCH  22  24
HETATM   24  O2  UNL     1      18.597  -0.517  51.624  1.00  0.00    -0.289 OA
HETATM   25  H20 UNL     1      18.832  -1.480  51.751  1.00  0.00     0.244 HD
ENDBRANCH  22  24
ENDBRANCH   6  22
BRANCH  10  26
HETATM   26  C16 UNL     1      27.031   0.280  53.937  1.00  0.00     0.061 A 
HETATM   27  C17 UNL     1      27.592   1.465  53.668  1.00  0.00     0.032 A 
HETATM   28  C18 UNL     1      29.026   1.219  53.516  1.00  0.00     0.042 A 
HETATM   29  C19 UNL     1      29.298  -0.066  53.688  1.00  0.00     0.118 A 
HETATM   30  F1  UNL     1      30.536  -0.613  53.611  1.00  0.00    -0.209 F 
HETATM   31  C20 UNL     1      28.045  -0.822  53.980  1.00  0.00     0.196 A 
HETATM   32 CL1  UNL     1      27.633  -1.984  52.705  1.00  0.00    -0.111 Cl
ENDBRANCH  10  26
TORSDOF 7
ENDMDL
MODEL 8
REMARK VINA RESULT:      -8.5      5.674      8.973
REMARK  7 active torsions:
REMARK  status: ('A' for Active; 'I' for Inactive)
REMARK    1  A    between atoms: N1_7  and  C6_8 
REMARK    2  A    between atoms: C6_8  and  C7_9 
REMARK    3  A    between atoms: C7_9  and  C8_10 
REMARK    4  A    between atoms: C8_10  and  C9_11 
REMARK    5  A    between atoms: C14_16  and  N2_17 
REMARK    6  A    between atoms: N2_17  and  O2_18 
REMARK    7  A    between atoms: N5_22  and  C16_23 
ROOT
HETATM    1  C9  UNL     1      25.922   4.447  49.375  1.00  0.00    -0.029 A 
HETATM    2  C10 UNL     1      27.262   4.468  48.963  1.00  0.00     0.024 A 
HETATM    3  C11 UNL     1      27.886   5.605  48.506  1.00  0.00     0.011 A 
HETATM    4  C12 UNL     1      27.216   6.806  48.426  1.00  0.00     0.072 A 
HETATM    5  C13 UNL     1      25.895   6.840  48.818  1.00  0.00     0.064 A 
HETATM    6  C14 UNL     1      25.335   5.685  49.260  1.00  0.00     0.062 A 
HETATM    7  N3  UNL     1      27.648   7.951  48.030  1.00  0.00    -0.239 NA
HETATM    8  C15 UNL     1      28.939   8.348  47.548  1.00  0.00     0.256 A 
HETATM    9  N4  UNL     1      29.982   7.594  47.409  1.00  0.00    -0.161 NA
HETATM   10  N5  UNL     1      30.124   6.237  47.680  1.00  0.00    -0.245 N 
HETATM   11  C21 UNL     1      29.158   5.301  48.193  1.00  0.00     0.132 A 
ENDROOT
BRANCH   1  12
HETATM   12  C8  UNL     1      25.366   3.206  49.884  1.00  0.00     0.042 C 
BRANCH  12  13
HETATM   13  C7  UNL     1      25.699   2.881  51.316  1.00  0.00     0.035 C 
BRANCH  13  14
HETATM   14  C6  UNL     1      26.568   1.692  51.534  1.00  0.00     0.273 C 
BRANCH  14  15
HETATM   15  N1  UNL     1      25.920   0.604  52.186  1.00  0.00     0.097 N 
HETATM   16  C2  UNL     1      25.388   0.804  53.481  1.00  0.00     0.242 C 
HETATM   17  C1  UNL     1      24.399  -0.342  53.789  1.00  0.00     0.045 C 
HETATM   18  C3  UNL     1      26.437   0.690  54.577  1.00  0.00     0.203 C 
HETATM   19  O1  UNL     1      27.181  -0.487  54.422  1.00  0.00    -0.387 OA
HETATM   20  C4  UNL     1      27.783  -0.546  53.169  1.00  0.00     0.198 C 
HETATM   21  C5  UNL     1      26.731  -0.601  52.114  1.00  0.00     0.299 C 
ENDBRANCH  14  15
ENDBRANCH  13  14
ENDBRANCH  12  13
ENDBRANCH   1  12
BRANCH   6  22
HETATM   22  N2  UNL     1      23.961   5.790  49.605  1.00  0.00    -0.269 N 
HETATM   23  H19 UNL     1      22.953   5.777  49.417  1.00  0.00     0.194 HD
BRANCH  22  24
HETATM   24  O2  UNL     1      23.223   6.038  50.710  1.00  0.00    -0.289 OA
HETATM   25  H20 UNL     1      22.789   6.925  50.559  1.00  0.00     0.244 HD
ENDBRANCH  22  24
ENDBRANCH   6  22
BRANCH  10  26
HETATM   26  C16 UNL     1      31.362   5.589  47.452  1.00  0.00     0.061 A 
HETATM   27  C17 UNL     1      31.664   4.332  47.105  1.00  0.00     0.032 A 
HETATM   28  C18 UNL     1      33.124   4.266  47.020  1.00  0.00     0.042 A 
HETATM   29  C19 UNL     1      33.659   5.443  47.309  1.00  0.00     0.118 A 
HETATM   30  F1  UNL     1      34.989   5.707  47.318  1.00  0.00    -0.209 F 
HETATM   31  C20 UNL     1      32.587   6.433  47.620  1.00  0.00     0.196 A 
HETATM   32 CL1  UNL     1      32.633   6.986  49.305  1.00  0.00    -0.111 Cl
ENDBRANCH  10  26
TORSDOF 7
ENDMDL
MODEL 9
REMARK VINA RESULT:      -8.5      1.508      1.799
REMARK  7 active torsions:
REMARK  status: ('A' for Active; 'I' for Inactive)
REMARK    1  A    between atoms: N1_7  and  C6_8 
REMARK    2  A    between atoms: C6_8  and  C7_9 
REMARK    3  A    between atoms: C7_9  and  C8_10 
REMARK    4  A    between atoms: C8_10  and  C9_11 
REMARK    5  A    between atoms: C14_16  and  N2_17 
REMARK    6  A    between atoms: N2_17  and  O2_18 
REMARK    7  A    between atoms: N5_22  and  C16_23 
ROOT
HETATM    1  C9  UNL     1      19.778   0.254  51.745  1.00  0.00    -0.029 A 
HETATM    2  C10 UNL     1      21.159   0.440  51.903  1.00  0.00     0.024 A 
HETATM    3  C11 UNL     1      21.870  -0.089  52.954  1.00  0.00     0.011 A 
HETATM    4  C12 UNL     1      21.252  -0.844  53.928  1.00  0.00     0.072 A 
HETATM    5  C13 UNL     1      19.894  -1.056  53.821  1.00  0.00     0.064 A 
HETATM    6  C14 UNL     1      19.249  -0.506  52.760  1.00  0.00     0.062 A 
HETATM    7  N3  UNL     1      21.764  -1.408  54.964  1.00  0.00    -0.239 NA
HETATM    8  C15 UNL     1      23.116  -1.438  55.440  1.00  0.00     0.256 A 
HETATM    9  N4  UNL     1      24.145  -0.873  54.893  1.00  0.00    -0.161 NA
HETATM   10  N5  UNL     1      24.211  -0.107  53.734  1.00  0.00    -0.245 N 
HETATM   11  C21 UNL     1      23.160   0.262  52.821  1.00  0.00     0.132 A 
ENDROOT
BRANCH   1  12
HETATM   12  C8  UNL     1      19.126   0.817  50.576  1.00  0.00     0.042 C 
BRANCH  12  13
HETATM   13  C7  UNL     1      19.625   2.168  50.139  1.00  0.00     0.035 C 
BRANCH  13  14
HETATM   14  C6  UNL     1      20.257   2.230  48.792  1.00  0.00     0.273 C 
BRANCH  14  15
HETATM   15  N1  UNL     1      21.675   2.353  48.816  1.00  0.00     0.097 N 
HETATM   16  C2  UNL     1      22.266   3.272  49.715  1.00  0.00     0.242 C 
HETATM   17  C1  UNL     1      23.765   2.928  49.856  1.00  0.00     0.045 C 
HETATM   18  C3  UNL     1      22.263   4.700  49.190  1.00  0.00     0.203 C 
HETATM   19  O1  UNL     1      22.772   4.743  47.886  1.00  0.00    -0.387 OA
HETATM   20  C4  UNL     1      22.054   3.913  47.032  1.00  0.00     0.198 C 
HETATM   21  C5  UNL     1      22.207   2.497  47.470  1.00  0.00     0.299 C 
ENDBRANCH  14  15
ENDBRANCH  13  14
ENDBRANCH  12  13
ENDBRANCH   1  12
BRANCH   6  22
HETATM   22  N2  UNL     1      17.846  -0.732  52.742  1.00  0.00    -0.269 N 
HETATM   23  H19 UNL     1      16.870  -0.532  52.984  1.00  0.00     0.194 HD
BRANCH  22  24
HETATM   24  O2  UNL     1      16.983  -1.622  52.202  1.00  0.00    -0.289 OA
HETATM   25  H20 UNL     1      17.520  -2.439  51.998  1.00  0.00     0.244 HD
ENDBRANCH  22  24
ENDBRANCH   6  22
BRANCH  10  26
HETATM   26  C16 UNL     1      25.447   0.432  53.303  1.00  0.00     0.061 A 
HETATM   27  C17 UNL     1      25.760   1.585  52.700  1.00  0.00     0.032 A 
HETATM   28  C18 UNL     1      27.211   1.572  52.509  1.00  0.00     0.042 A 
HETATM   29  C19 UNL     1      27.731   0.449  52.983  1.00  0.00     0.118 A 
HETATM   30  F1  UNL     1      29.050   0.136  52.956  1.00  0.00    -0.209 F 
HETATM   31  C20 UNL     1      26.656  -0.416  53.551  1.00  0.00     0.196 A 
HETATM   32 CL1  UNL     1      26.447  -1.929  52.648  1.00  0.00    -0.111 Cl
ENDBRANCH  10  26
TORSDOF 7
ENDMDL
