MODEL 1
REMARK VINA RESULT:      -7.0      0.000      0.000
REMARK  7 active torsions:
REMARK  status: ('A' for Active; 'I' for Inactive)
REMARK    1  A    between atoms: C2_2  and  C3_3 
REMARK    2  A    between atoms: C2_2  and  N2_12 
REMARK    3  A    between atoms: C3_3  and  C4_4 
REMARK       I    between atoms: C4_4  and  N1_6 
REMARK    4  A    between atoms: N1_6  and  C5_7 
REMARK    5  A    between atoms: C9_13  and  C10_14 
REMARK    6  A    between atoms: C10_14  and  O2_15 
REMARK    7  A    between atoms: C14_19  and  O3_20 
ROOT
HETATM    1  C1  UNL     1      23.480   2.808  50.029  1.00  0.00     0.059 C 
HETATM    2  C2  UNL     1      24.259   3.441  50.926  1.00  0.00     0.001 C 
ENDROOT
BRANCH   2   3
HETATM    3  C3  UNL     1      24.349   3.419  52.399  1.00  0.00     0.155 C 
BRANCH   3   4
HETATM    4  C4  UNL     1      24.430   2.028  52.937  1.00  0.00     0.223 C 
HETATM    5  O1  UNL     1      23.621   1.109  53.249  1.00  0.00    -0.273 OA
HETATM    6  N1  UNL     1      25.791   1.644  53.156  1.00  0.00    -0.353 N 
HETATM    7  H5  UNL     1      26.655   2.225  52.977  1.00  0.00     0.163 HD
BRANCH   6   8
HETATM    8  C5  UNL     1      26.143   0.325  53.681  1.00  0.00     0.113 A 
HETATM    9  C6  UNL     1      26.962  -0.387  52.731  1.00  0.00     0.013 A 
HETATM   10  C7  UNL     1      28.007  -0.393  53.500  1.00  0.00    -0.011 A 
HETATM   11 BR1  UNL     1      29.812  -0.967  53.595  1.00  0.00    -0.056 Br
HETATM   12  C8  UNL     1      27.321   0.329  54.568  1.00  0.00     0.075 A 
ENDBRANCH   6   8
ENDBRANCH   3   4
ENDBRANCH   2   3
BRANCH   2  13
HETATM   13  N2  UNL     1      25.168   4.304  50.254  1.00  0.00    -0.325 N 
HETATM   14  C9  UNL     1      25.100   5.740  50.192  1.00  0.00     0.037 A 
HETATM   15  C11 UNL     1      26.038   6.386  49.519  1.00  0.00     0.027 A 
HETATM   16  C12 UNL     1      27.102   5.677  48.862  1.00  0.00     0.002 A 
HETATM   17  C13 UNL     1      27.185   4.365  48.906  1.00  0.00     0.026 A 
HETATM   18  C14 UNL     1      26.203   3.511  49.625  1.00  0.00     0.248 A 
BRANCH  14  19
HETATM   19  C10 UNL     1      23.952   6.361  50.911  1.00  0.00     0.221 C 
BRANCH  19  20
HETATM   20  O2  UNL     1      24.303   6.954  52.106  1.00  0.00    -0.395 OA
HETATM   21  H12 UNL     1      24.621   6.318  52.786  1.00  0.00     0.209 HD
ENDBRANCH  19  20
ENDBRANCH  14  19
BRANCH  18  22
HETATM   22  O3  UNL     1      26.913   2.796  50.587  1.00  0.00    -0.373 OA
HETATM   23  H17 UNL     1      26.673   1.830  50.580  1.00  0.00     0.212 HD
ENDBRANCH  18  22
ENDBRANCH   2  13
TORSDOF 7
ENDMDL
MODEL 2
REMARK VINA RESULT:      -6.8      3.742      6.027
REMARK  7 active torsions:
REMARK  status: ('A' for Active; 'I' for Inactive)
REMARK    1  A    between atoms: C2_2  and  C3_3 
REMARK    2  A    between atoms: C2_2  and  N2_12 
REMARK    3  A    between atoms: C3_3  and  C4_4 
REMARK       I    between atoms: C4_4  and  N1_6 
REMARK    4  A    between atoms: N1_6  and  C5_7 
REMARK    5  A    between atoms: C9_13  and  C10_14 
REMARK    6  A    between atoms: C10_14  and  O2_15 
REMARK    7  A    between atoms: C14_19  and  O3_20 
ROOT
HETATM    1  C1  UNL     1      26.564   2.124  51.094  1.00  0.00     0.059 C 
HETATM    2  C2  UNL     1      26.355   1.763  52.373  1.00  0.00     0.001 C 
ENDROOT
BRANCH   2   3
HETATM    3  C3  UNL     1      25.409   2.201  53.419  1.00  0.00     0.155 C 
BRANCH   3   4
HETATM    4  C4  UNL     1      24.087   2.600  52.850  1.00  0.00     0.223 C 
HETATM    5  O1  UNL     1      23.502   3.676  52.537  1.00  0.00    -0.273 OA
HETATM    6  N1  UNL     1      23.272   1.451  52.597  1.00  0.00    -0.353 N 
HETATM    7  H5  UNL     1      23.524   0.440  52.771  1.00  0.00     0.163 HD
BRANCH   6   8
HETATM    8  C5  UNL     1      21.926   1.571  52.039  1.00  0.00     0.113 A 
HETATM    9  C6  UNL     1      21.443   0.278  51.620  1.00  0.00     0.013 A 
HETATM   10  C7  UNL     1      20.494   0.246  52.504  1.00  0.00    -0.011 A 
HETATM   11 BR1  UNL     1      19.062  -0.817  53.148  1.00  0.00    -0.056 Br
HETATM   12  C8  UNL     1      20.854   1.552  53.051  1.00  0.00     0.075 A 
ENDBRANCH   6   8
ENDBRANCH   3   4
ENDBRANCH   2   3
BRANCH   2  13
HETATM   13  N2  UNL     1      27.268   0.738  52.744  1.00  0.00    -0.325 N 
HETATM   14  C9  UNL     1      28.528   0.915  53.417  1.00  0.00     0.037 A 
HETATM   15  C11 UNL     1      29.254  -0.158  53.686  1.00  0.00     0.027 A 
HETATM   16  C12 UNL     1      28.802  -1.472  53.317  1.00  0.00     0.002 A 
HETATM   17  C13 UNL     1      27.654  -1.658  52.701  1.00  0.00     0.026 A 
HETATM   18  C14 UNL     1      26.737  -0.546  52.338  1.00  0.00     0.248 A 
BRANCH  14  19
HETATM   19  C10 UNL     1      28.889   2.323  53.747  1.00  0.00     0.221 C 
BRANCH  19  20
HETATM   20  O2  UNL     1      29.746   2.436  54.822  1.00  0.00    -0.395 OA
HETATM   21  H12 UNL     1      29.679   1.694  55.464  1.00  0.00     0.209 HD
ENDBRANCH  19  20
ENDBRANCH  14  19
BRANCH  18  22
HETATM   22  O3  UNL     1      25.526  -0.790  52.982  1.00  0.00    -0.373 OA
HETATM   23  H17 UNL     1      25.661  -1.046  53.935  1.00  0.00     0.212 HD
ENDBRANCH  18  22
ENDBRANCH   2  13
TORSDOF 7
ENDMDL
MODEL 3
REMARK VINA RESULT:      -6.8      4.815      6.886
REMARK  7 active torsions:
REMARK  status: ('A' for Active; 'I' for Inactive)
REMARK    1  A    between atoms: C2_2  and  C3_3 
REMARK    2  A    between atoms: C2_2  and  N2_12 
REMARK    3  A    between atoms: C3_3  and  C4_4 
REMARK       I    between atoms: C4_4  and  N1_6 
REMARK    4  A    between atoms: N1_6  and  C5_7 
REMARK    5  A    between atoms: C9_13  and  C10_14 
REMARK    6  A    between atoms: C10_14  and  O2_15 
REMARK    7  A    between atoms: C14_19  and  O3_20 
ROOT
HETATM    1  C1  UNL     1      25.572  -0.444  55.256  1.00  0.00     0.059 C 
HETATM    2  C2  UNL     1      25.908  -0.157  53.985  1.00  0.00     0.001 C 
ENDROOT
BRANCH   2   3
HETATM    3  C3  UNL     1      25.134   0.083  52.752  1.00  0.00     0.155 C 
BRANCH   3   4
HETATM    4  C4  UNL     1      23.951   0.963  52.991  1.00  0.00     0.223 C 
HETATM    5  O1  UNL     1      23.732   2.200  53.125  1.00  0.00    -0.273 OA
HETATM    6  N1  UNL     1      22.752   0.189  53.096  1.00  0.00    -0.353 N 
HETATM    7  H5  UNL     1      22.661  -0.860  53.022  1.00  0.00     0.163 HD
BRANCH   6   8
HETATM    8  C5  UNL     1      21.451   0.815  53.331  1.00  0.00     0.113 A 
HETATM    9  C6  UNL     1      20.523   0.441  52.292  1.00  0.00     0.013 A 
HETATM   10  C7  UNL     1      19.750  -0.222  53.097  1.00  0.00    -0.011 A 
HETATM   11 BR1  UNL     1      18.159  -1.250  53.159  1.00  0.00    -0.056 Br
HETATM   12  C8  UNL     1      20.586   0.065  54.260  1.00  0.00     0.075 A 
ENDBRANCH   6   8
ENDBRANCH   3   4
ENDBRANCH   2   3
BRANCH   2  13
HETATM   13  N2  UNL     1      27.323  -0.082  53.862  1.00  0.00    -0.325 N 
HETATM   14  C9  UNL     1      28.185  -1.075  53.278  1.00  0.00     0.037 A 
HETATM   15  C11 UNL     1      29.487  -0.837  53.247  1.00  0.00     0.027 A 
HETATM   16  C12 UNL     1      30.033   0.380  53.783  1.00  0.00     0.002 A 
HETATM   17  C13 UNL     1      29.263   1.301  54.322  1.00  0.00     0.026 A 
HETATM   18  C14 UNL     1      27.786   1.169  54.424  1.00  0.00     0.248 A 
BRANCH  14  19
HETATM   19  C10 UNL     1      27.504  -2.293  52.757  1.00  0.00     0.221 C 
BRANCH  19  20
HETATM   20  O2  UNL     1      28.282  -3.431  52.819  1.00  0.00    -0.395 OA
HETATM   21  H12 UNL     1      28.460  -3.741  53.736  1.00  0.00     0.209 HD
ENDBRANCH  19  20
ENDBRANCH  14  19
BRANCH  18  22
HETATM   22  O3  UNL     1      27.232   2.242  53.728  1.00  0.00    -0.373 OA
HETATM   23  H17 UNL     1      26.650   1.935  52.980  1.00  0.00     0.212 HD
ENDBRANCH  18  22
ENDBRANCH   2  13
TORSDOF 7
ENDMDL
MODEL 4
REMARK VINA RESULT:      -6.6      4.674      6.280
REMARK  7 active torsions:
REMARK  status: ('A' for Active; 'I' for Inactive)
REMARK    1  A    between atoms: C2_2  and  C3_3 
REMARK    2  A    between atoms: C2_2  and  N2_12 
REMARK    3  A    between atoms: C3_3  and  C4_4 
REMARK       I    between atoms: C4_4  and  N1_6 
REMARK    4  A    between atoms: N1_6  and  C5_7 
REMARK    5  A    between atoms: C9_13  and  C10_14 
REMARK    6  A    between atoms: C10_14  and  O2_15 
REMARK    7  A    between atoms: C14_19  and  O3_20 
ROOT
HETATM    1  C1  UNL     1      26.409   0.683  51.476  1.00  0.00     0.059 C 
HETATM    2  C2  UNL     1      26.587   0.641  52.808  1.00  0.00     0.001 C 
ENDROOT
BRANCH   2   3
HETATM    3  C3  UNL     1      25.773   1.069  53.963  1.00  0.00     0.155 C 
BRANCH   3   4
HETATM    4  C4  UNL     1      24.956  -0.050  54.521  1.00  0.00     0.223 C 
HETATM    5  O1  UNL     1      25.125  -1.002  55.336  1.00  0.00    -0.273 OA
HETATM    6  N1  UNL     1      23.630  -0.031  53.984  1.00  0.00    -0.353 N 
HETATM    7  H5  UNL     1      23.234   0.656  53.287  1.00  0.00     0.163 HD
BRANCH   6   8
HETATM    8  C5  UNL     1      22.629  -1.025  54.371  1.00  0.00     0.113 A 
HETATM    9  C6  UNL     1      21.430  -0.371  54.834  1.00  0.00     0.013 A 
HETATM   10  C7  UNL     1      20.704  -0.808  53.851  1.00  0.00    -0.011 A 
HETATM   11 BR1  UNL     1      18.949  -0.770  53.134  1.00  0.00    -0.056 Br
HETATM   12  C8  UNL     1      21.820  -1.530  53.246  1.00  0.00     0.075 A 
ENDBRANCH   6   8
ENDBRANCH   3   4
ENDBRANCH   2   3
BRANCH   2  13
HETATM   13  N2  UNL     1      27.845   0.051  53.112  1.00  0.00    -0.325 N 
HETATM   14  C9  UNL     1      28.985   0.714  53.688  1.00  0.00     0.037 A 
HETATM   15  C11 UNL     1      30.081   0.005  53.904  1.00  0.00     0.027 A 
HETATM   16  C12 UNL     1      30.139  -1.393  53.573  1.00  0.00     0.002 A 
HETATM   17  C13 UNL     1      29.109  -2.019  53.046  1.00  0.00     0.026 A 
HETATM   18  C14 UNL     1      27.815  -1.350  52.750  1.00  0.00     0.248 A 
BRANCH  14  19
HETATM   19  C10 UNL     1      28.805   2.162  53.987  1.00  0.00     0.221 C 
BRANCH  19  20
HETATM   20  O2  UNL     1      29.164   2.990  52.944  1.00  0.00    -0.395 OA
HETATM   21  H12 UNL     1      29.944   3.559  53.138  1.00  0.00     0.209 HD
ENDBRANCH  19  20
ENDBRANCH  14  19
BRANCH  18  22
HETATM   22  O3  UNL     1      26.835  -2.015  53.484  1.00  0.00    -0.373 OA
HETATM   23  H17 UNL     1      26.370  -1.403  54.117  1.00  0.00     0.212 HD
ENDBRANCH  18  22
ENDBRANCH   2  13
TORSDOF 7
ENDMDL
MODEL 5
REMARK VINA RESULT:      -6.6      3.514      6.616
REMARK  7 active torsions:
REMARK  status: ('A' for Active; 'I' for Inactive)
REMARK    1  A    between atoms: C2_2  and  C3_3 
REMARK    2  A    between atoms: C2_2  and  N2_12 
REMARK    3  A    between atoms: C3_3  and  C4_4 
REMARK       I    between atoms: C4_4  and  N1_6 
REMARK    4  A    between atoms: N1_6  and  C5_7 
REMARK    5  A    between atoms: C9_13  and  C10_14 
REMARK    6  A    between atoms: C10_14  and  O2_15 
REMARK    7  A    between atoms: C14_19  and  O3_20 
ROOT
HETATM    1  C1  UNL     1      25.407  -0.722  55.280  1.00  0.00     0.059 C 
HETATM    2  C2  UNL     1      25.732  -0.421  54.009  1.00  0.00     0.001 C 
ENDROOT
BRANCH   2   3
HETATM    3  C3  UNL     1      24.953  -0.252  52.767  1.00  0.00     0.155 C 
BRANCH   3   4
HETATM    4  C4  UNL     1      23.804   0.686  52.947  1.00  0.00     0.223 C 
HETATM    5  O1  UNL     1      22.655   0.650  53.472  1.00  0.00    -0.273 OA
HETATM    6  N1  UNL     1      24.090   1.962  52.365  1.00  0.00    -0.353 N 
HETATM    7  H5  UNL     1      24.975   2.251  51.867  1.00  0.00     0.163 HD
BRANCH   6   8
HETATM    8  C5  UNL     1      23.125   3.059  52.406  1.00  0.00     0.113 A 
HETATM    9  C6  UNL     1      23.746   4.251  52.931  1.00  0.00     0.013 A 
HETATM   10  C7  UNL     1      23.638   4.907  51.817  1.00  0.00    -0.011 A 
HETATM   11 BR1  UNL     1      24.012   6.579  51.005  1.00  0.00    -0.056 Br
HETATM   12  C8  UNL     1      22.995   3.789  51.131  1.00  0.00     0.075 A 
ENDBRANCH   6   8
ENDBRANCH   3   4
ENDBRANCH   2   3
BRANCH   2  13
HETATM   13  N2  UNL     1      27.138  -0.241  53.897  1.00  0.00    -0.325 N 
HETATM   14  C9  UNL     1      28.069  -1.140  53.267  1.00  0.00     0.037 A 
HETATM   15  C11 UNL     1      29.351  -0.810  53.255  1.00  0.00     0.027 A 
HETATM   16  C12 UNL     1      29.809   0.414  53.855  1.00  0.00     0.002 A 
HETATM   17  C13 UNL     1      28.975   1.250  54.435  1.00  0.00     0.026 A 
HETATM   18  C14 UNL     1      27.511   1.010  54.523  1.00  0.00     0.248 A 
BRANCH  14  19
HETATM   19  C10 UNL     1      27.477  -2.375  52.683  1.00  0.00     0.221 C 
BRANCH  19  20
HETATM   20  O2  UNL     1      28.256  -3.499  52.859  1.00  0.00    -0.395 OA
HETATM   21  H12 UNL     1      28.761  -3.505  53.704  1.00  0.00     0.209 HD
ENDBRANCH  19  20
ENDBRANCH  14  19
BRANCH  18  22
HETATM   22  O3  UNL     1      26.884   2.075  53.879  1.00  0.00    -0.373 OA
HETATM   23  H17 UNL     1      26.795   2.866  54.477  1.00  0.00     0.212 HD
ENDBRANCH  18  22
ENDBRANCH   2  13
TORSDOF 7
ENDMDL
MODEL 6
REMARK VINA RESULT:      -6.3      2.094      2.632
REMARK  7 active torsions:
REMARK  status: ('A' for Active; 'I' for Inactive)
REMARK    1  A    between atoms: C2_2  and  C3_3 
REMARK    2  A    between atoms: C2_2  and  N2_12 
REMARK    3  A    between atoms: C3_3  and  C4_4 
REMARK       I    between atoms: C4_4  and  N1_6 
REMARK    4  A    between atoms: N1_6  and  C5_7 
REMARK    5  A    between atoms: C9_13  and  C10_14 
REMARK    6  A    between atoms: C10_14  and  O2_15 
REMARK    7  A    between atoms: C14_19  and  O3_20 
ROOT
HETATM    1  C1  UNL     1      23.776   4.959  48.895  1.00  0.00     0.059 C 
HETATM    2  C2  UNL     1      24.494   5.609  49.828  1.00  0.00     0.001 C 
ENDROOT
BRANCH   2   3
HETATM    3  C3  UNL     1      24.226   6.029  51.217  1.00  0.00     0.155 C 
BRANCH   3   4
HETATM    4  C4  UNL     1      23.668   4.916  52.044  1.00  0.00     0.223 C 
HETATM    5  O1  UNL     1      22.601   4.681  52.678  1.00  0.00    -0.273 OA
HETATM    6  N1  UNL     1      24.599   3.833  52.136  1.00  0.00    -0.353 N 
HETATM    7  H5  UNL     1      25.559   3.778  51.699  1.00  0.00     0.163 HD
BRANCH   6   8
HETATM    8  C5  UNL     1      24.294   2.619  52.891  1.00  0.00     0.113 A 
HETATM    9  C6  UNL     1      24.315   1.470  52.019  1.00  0.00     0.013 A 
HETATM   10  C7  UNL     1      25.342   0.933  52.603  1.00  0.00    -0.011 A 
HETATM   11 BR1  UNL     1      26.493  -0.573  52.555  1.00  0.00    -0.056 Br
HETATM   12  C8  UNL     1      25.462   2.025  53.567  1.00  0.00     0.075 A 
ENDBRANCH   6   8
ENDBRANCH   3   4
ENDBRANCH   2   3
BRANCH   2  13
HETATM   13  N2  UNL     1      25.777   5.941  49.310  1.00  0.00    -0.325 N 
HETATM   14  C9  UNL     1      26.269   7.262  49.022  1.00  0.00     0.037 A 
HETATM   15  C11 UNL     1      27.496   7.385  48.541  1.00  0.00     0.027 A 
HETATM   16  C12 UNL     1      28.322   6.231  48.309  1.00  0.00     0.002 A 
HETATM   17  C13 UNL     1      27.892   5.014  48.565  1.00  0.00     0.026 A 
HETATM   18  C14 UNL     1      26.538   4.726  49.107  1.00  0.00     0.248 A 
BRANCH  14  19
HETATM   19  C10 UNL     1      25.322   8.377  49.304  1.00  0.00     0.221 C 
BRANCH  19  20
HETATM   20  O2  UNL     1      25.662   9.125  50.412  1.00  0.00    -0.395 OA
HETATM   21  H12 UNL     1      26.447   9.702  50.277  1.00  0.00     0.209 HD
ENDBRANCH  19  20
ENDBRANCH  14  19
BRANCH  18  22
HETATM   22  O3  UNL     1      26.718   4.064  50.320  1.00  0.00    -0.373 OA
HETATM   23  H17 UNL     1      26.768   3.077  50.197  1.00  0.00     0.212 HD
ENDBRANCH  18  22
ENDBRANCH   2  13
TORSDOF 7
ENDMDL
MODEL 7
REMARK VINA RESULT:      -6.3      3.267      6.649
REMARK  7 active torsions:
REMARK  status: ('A' for Active; 'I' for Inactive)
REMARK    1  A    between atoms: C2_2  and  C3_3 
REMARK    2  A    between atoms: C2_2  and  N2_12 
REMARK    3  A    between atoms: C3_3  and  C4_4 
REMARK       I    between atoms: C4_4  and  N1_6 
REMARK    4  A    between atoms: N1_6  and  C5_7 
REMARK    5  A    between atoms: C9_13  and  C10_14 
REMARK    6  A    between atoms: C10_14  and  O2_15 
REMARK    7  A    between atoms: C14_19  and  O3_20 
ROOT
HETATM    1  C1  UNL     1      25.715   2.235  53.411  1.00  0.00     0.059 C 
HETATM    2  C2  UNL     1      26.524   1.900  52.389  1.00  0.00     0.001 C 
ENDROOT
BRANCH   2   3
HETATM    3  C3  UNL     1      26.680   2.389  51.006  1.00  0.00     0.155 C 
BRANCH   3   4
HETATM    4  C4  UNL     1      25.515   3.213  50.564  1.00  0.00     0.223 C 
HETATM    5  O1  UNL     1      24.293   3.022  50.306  1.00  0.00    -0.273 OA
HETATM    6  N1  UNL     1      25.894   4.582  50.390  1.00  0.00    -0.353 N 
HETATM    7  H5  UNL     1      26.852   5.002  50.539  1.00  0.00     0.163 HD
BRANCH   6   8
HETATM    8  C5  UNL     1      24.934   5.597  49.961  1.00  0.00     0.113 A 
HETATM    9  C6  UNL     1      25.041   6.769  50.795  1.00  0.00     0.013 A 
HETATM   10  C7  UNL     1      25.462   7.528  49.831  1.00  0.00    -0.011 A 
HETATM   11 BR1  UNL     1      26.012   9.297  49.429  1.00  0.00    -0.056 Br
HETATM   12  C8  UNL     1      25.413   6.444  48.853  1.00  0.00     0.075 A 
ENDBRANCH   6   8
ENDBRANCH   3   4
ENDBRANCH   2   3
BRANCH   2  13
HETATM   13  N2  UNL     1      27.391   0.844  52.783  1.00  0.00    -0.325 N 
HETATM   14  C9  UNL     1      28.641   0.977  53.484  1.00  0.00     0.037 A 
HETATM   15  C11 UNL     1      29.321  -0.120  53.771  1.00  0.00     0.027 A 
HETATM   16  C12 UNL     1      28.831  -1.418  53.394  1.00  0.00     0.002 A 
HETATM   17  C13 UNL     1      27.691  -1.564  52.753  1.00  0.00     0.026 A 
HETATM   18  C14 UNL     1      26.823  -0.421  52.366  1.00  0.00     0.248 A 
BRANCH  14  19
HETATM   19  C10 UNL     1      29.044   2.372  53.820  1.00  0.00     0.221 C 
BRANCH  19  20
HETATM   20  O2  UNL     1      29.906   2.455  54.894  1.00  0.00    -0.395 OA
HETATM   21  H12 UNL     1      29.515   2.146  55.742  1.00  0.00     0.209 HD
ENDBRANCH  19  20
ENDBRANCH  14  19
BRANCH  18  22
HETATM   22  O3  UNL     1      25.590  -0.620  52.984  1.00  0.00    -0.373 OA
HETATM   23  H17 UNL     1      24.853  -0.697  52.318  1.00  0.00     0.212 HD
ENDBRANCH  18  22
ENDBRANCH   2  13
TORSDOF 7
ENDMDL
MODEL 8
REMARK VINA RESULT:      -6.3      2.642      4.107
REMARK  7 active torsions:
REMARK  status: ('A' for Active; 'I' for Inactive)
REMARK    1  A    between atoms: C2_2  and  C3_3 
REMARK    2  A    between atoms: C2_2  and  N2_12 
REMARK    3  A    between atoms: C3_3  and  C4_4 
REMARK       I    between atoms: C4_4  and  N1_6 
REMARK    4  A    between atoms: N1_6  and  C5_7 
REMARK    5  A    between atoms: C9_13  and  C10_14 
REMARK    6  A    between atoms: C10_14  and  O2_15 
REMARK    7  A    between atoms: C14_19  and  O3_20 
ROOT
HETATM    1  C1  UNL     1      25.570   7.202  47.721  1.00  0.00     0.059 C 
HETATM    2  C2  UNL     1      26.145   7.118  48.934  1.00  0.00     0.001 C 
ENDROOT
BRANCH   2   3
HETATM    3  C3  UNL     1      25.631   6.868  50.295  1.00  0.00     0.155 C 
BRANCH   3   4
HETATM    4  C4  UNL     1      24.858   5.593  50.380  1.00  0.00     0.223 C 
HETATM    5  O1  UNL     1      23.671   5.216  50.165  1.00  0.00    -0.273 OA
HETATM    6  N1  UNL     1      25.692   4.519  50.825  1.00  0.00    -0.353 N 
HETATM    7  H5  UNL     1      26.717   4.568  51.072  1.00  0.00     0.163 HD
BRANCH   6   8
HETATM    8  C5  UNL     1      25.174   3.162  50.991  1.00  0.00     0.113 A 
HETATM    9  C6  UNL     1      26.262   2.228  51.146  1.00  0.00     0.013 A 
HETATM   10  C7  UNL     1      25.947   1.924  52.367  1.00  0.00    -0.011 A 
HETATM   11 BR1  UNL     1      26.464   0.846  53.839  1.00  0.00    -0.056 Br
HETATM   12  C8  UNL     1      24.801   2.830  52.379  1.00  0.00     0.075 A 
ENDBRANCH   6   8
ENDBRANCH   3   4
ENDBRANCH   2   3
BRANCH   2  13
HETATM   13  N2  UNL     1      27.548   7.322  48.822  1.00  0.00    -0.325 N 
HETATM   14  C9  UNL     1      28.274   8.507  49.199  1.00  0.00     0.037 A 
HETATM   15  C11 UNL     1      29.585   8.523  49.023  1.00  0.00     0.027 A 
HETATM   16  C12 UNL     1      30.275   7.389  48.470  1.00  0.00     0.002 A 
HETATM   17  C13 UNL     1      29.632   6.296  48.119  1.00  0.00     0.026 A 
HETATM   18  C14 UNL     1      28.160   6.137  48.259  1.00  0.00     0.248 A 
BRANCH  14  19
HETATM   19  C10 UNL     1      27.451   9.615  49.759  1.00  0.00     0.221 C 
BRANCH  19  20
HETATM   20  O2  UNL     1      27.565   9.750  51.127  1.00  0.00    -0.395 OA
HETATM   21  H12 UNL     1      26.824  10.249  51.540  1.00  0.00     0.209 HD
ENDBRANCH  19  20
ENDBRANCH  14  19
BRANCH  18  22
HETATM   22  O3  UNL     1      27.947   5.044  49.096  1.00  0.00    -0.373 OA
HETATM   23  H17 UNL     1      27.545   5.317  49.965  1.00  0.00     0.212 HD
ENDBRANCH  18  22
ENDBRANCH   2  13
TORSDOF 7
ENDMDL
MODEL 9
REMARK VINA RESULT:      -6.2      1.818      3.149
REMARK  7 active torsions:
REMARK  status: ('A' for Active; 'I' for Inactive)
REMARK    1  A    between atoms: C2_2  and  C3_3 
REMARK    2  A    between atoms: C2_2  and  N2_12 
REMARK    3  A    between atoms: C3_3  and  C4_4 
REMARK       I    between atoms: C4_4  and  N1_6 
REMARK    4  A    between atoms: N1_6  and  C5_7 
REMARK    5  A    between atoms: C9_13  and  C10_14 
REMARK    6  A    between atoms: C10_14  and  O2_15 
REMARK    7  A    between atoms: C14_19  and  O3_20 
ROOT
HETATM    1  C1  UNL     1      24.675   3.701  50.454  1.00  0.00     0.059 C 
HETATM    2  C2  UNL     1      23.992   4.082  51.549  1.00  0.00     0.001 C 
ENDROOT
BRANCH   2   3
HETATM    3  C3  UNL     1      23.981   3.635  52.956  1.00  0.00     0.155 C 
BRANCH   3   4
HETATM    4  C4  UNL     1      24.091   2.150  53.075  1.00  0.00     0.223 C 
HETATM    5  O1  UNL     1      23.328   1.152  52.932  1.00  0.00    -0.273 OA
HETATM    6  N1  UNL     1      25.415   1.764  53.455  1.00  0.00    -0.353 N 
HETATM    7  H5  UNL     1      26.238   2.401  53.637  1.00  0.00     0.163 HD
BRANCH   6   8
HETATM    8  C5  UNL     1      25.785   0.361  53.639  1.00  0.00     0.113 A 
HETATM    9  C6  UNL     1      26.729  -0.043  52.627  1.00  0.00     0.013 A 
HETATM   10  C7  UNL     1      27.693  -0.234  53.474  1.00  0.00    -0.011 A 
HETATM   11 BR1  UNL     1      29.508  -0.766  53.605  1.00  0.00    -0.056 Br
HETATM   12  C8  UNL     1      26.869   0.152  54.617  1.00  0.00     0.075 A 
ENDBRANCH   6   8
ENDBRANCH   3   4
ENDBRANCH   2   3
BRANCH   2  13
HETATM   13  N2  UNL     1      23.105   5.144  51.222  1.00  0.00    -0.325 N 
HETATM   14  C9  UNL     1      21.675   5.054  51.085  1.00  0.00     0.037 A 
HETATM   15  C11 UNL     1      21.003   6.151  50.774  1.00  0.00     0.027 A 
HETATM   16  C12 UNL     1      21.678   7.405  50.577  1.00  0.00     0.002 A 
HETATM   17  C13 UNL     1      22.984   7.510  50.697  1.00  0.00     0.026 A 
HETATM   18  C14 UNL     1      23.864   6.363  51.042  1.00  0.00     0.248 A 
BRANCH  14  19
HETATM   19  C10 UNL     1      21.090   3.703  51.312  1.00  0.00     0.221 C 
BRANCH  19  20
HETATM   20  O2  UNL     1      20.438   3.579  52.522  1.00  0.00    -0.395 OA
HETATM   21  H12 UNL     1      20.947   3.932  53.286  1.00  0.00     0.209 HD
ENDBRANCH  19  20
ENDBRANCH  14  19
BRANCH  18  22
HETATM   22  O3  UNL     1      24.524   6.697  52.223  1.00  0.00    -0.373 OA
HETATM   23  H17 UNL     1      24.312   7.625  52.514  1.00  0.00     0.212 HD
ENDBRANCH  18  22
ENDBRANCH   2  13
TORSDOF 7
ENDMDL
