MODEL 1
REMARK VINA RESULT:      -8.0      0.000      0.000
REMARK  5 active torsions:
REMARK  status: ('A' for Active; 'I' for Inactive)
REMARK    1  A    between atoms: O1_2  and  C2_3 
REMARK    2  A    between atoms: C2_3  and  N1_4 
REMARK    3  A    between atoms: N1_4  and  C3_5 
REMARK    4  A    between atoms: C11_15  and  C12_16 
REMARK    5  A    between atoms: C13_17  and  C14_18 
ROOT
HETATM    1  C3  UNL     1      24.092   3.258  49.422  1.00  0.00     0.134 A 
HETATM    2  C4  UNL     1      23.003   3.243  48.600  1.00  0.00     0.079 A 
HETATM    3  C5  UNL     1      23.450   4.555  49.017  1.00  0.00     0.141 A 
HETATM    4  N2  UNL     1      22.478   4.377  48.280  1.00  0.00    -0.353 N 
HETATM    5  C6  UNL     1      21.539   5.123  47.626  1.00  0.00     0.199 C 
HETATM    6  N3  UNL     1      20.814   5.597  48.494  1.00  0.00    -0.284 NA
HETATM    7  C7  UNL     1      20.663   5.608  49.875  1.00  0.00     0.155 C 
HETATM    8  C8  UNL     1      20.647   4.345  50.616  1.00  0.00     0.021 C 
HETATM    9  C9  UNL     1      20.850   3.110  50.124  1.00  0.00     0.029 C 
HETATM   10  C10 UNL     1      20.987   1.661  50.067  1.00  0.00    -0.075 C 
HETATM   11  C11 UNL     1      20.896   0.628  50.898  1.00  0.00     0.003 C 
HETATM   12  C21 UNL     1      21.290   1.392  48.634  1.00  0.00     0.037 C 
HETATM   13  C22 UNL     1      22.658   1.887  48.259  1.00  0.00     0.040 C 
ENDROOT
BRANCH  11  14
HETATM   14  C12 UNL     1      20.610   0.411  52.297  1.00  0.00     0.003 C 
HETATM   15  C13 UNL     1      21.362   0.220  53.364  1.00  0.00     0.039 C 
BRANCH  15  16
HETATM   16  C14 UNL     1      22.766   0.201  53.256  1.00  0.00     0.099 A 
HETATM   17  N4  UNL     1      23.750  -0.657  53.331  1.00  0.00    -0.240 NA
HETATM   18  C15 UNL     1      24.978  -0.184  53.149  1.00  0.00     0.076 A 
HETATM   19  C16 UNL     1      26.057  -1.042  53.215  1.00  0.00     0.057 A 
HETATM   20  C20 UNL     1      25.328   1.201  52.876  1.00  0.00     0.036 A 
HETATM   21  C17 UNL     1      27.344  -0.593  53.033  1.00  0.00     0.036 A 
HETATM   22 CL1  UNL     1      28.782  -1.599  53.097  1.00  0.00    -0.084 Cl
HETATM   23  C18 UNL     1      27.641   0.729  52.775  1.00  0.00     0.025 A 
HETATM   24  C19 UNL     1      26.610   1.635  52.697  1.00  0.00     0.023 A 
HETATM   25  S1  UNL     1      23.598   1.870  52.895  1.00  0.00    -0.068 SA
ENDBRANCH  15  16
ENDBRANCH  11  14
BRANCH   1  26
HETATM   26  N1  UNL     1      24.909   4.241  50.099  1.00  0.00    -0.393 N 
HETATM   27  H6  UNL     1      24.303   5.062  50.384  1.00  0.00     0.155 HD
BRANCH  26  28
HETATM   28  C2  UNL     1      26.307   3.942  50.246  1.00  0.00     0.285 C 
BRANCH  28  29
HETATM   29  O1  UNL     1      26.933   3.865  49.008  1.00  0.00    -0.377 OA
HETATM   30  C1  UNL     1      27.443   5.102  48.672  1.00  0.00     0.203 C 
ENDBRANCH  28  29
ENDBRANCH  26  28
ENDBRANCH   1  26
TORSDOF 5
ENDMDL
MODEL 2
REMARK VINA RESULT:      -7.6      3.335      5.888
REMARK  5 active torsions:
REMARK  status: ('A' for Active; 'I' for Inactive)
REMARK    1  A    between atoms: O1_2  and  C2_3 
REMARK    2  A    between atoms: C2_3  and  N1_4 
REMARK    3  A    between atoms: N1_4  and  C3_5 
REMARK    4  A    between atoms: C11_15  and  C12_16 
REMARK    5  A    between atoms: C13_17  and  C14_18 
ROOT
HETATM    1  C3  UNL     1      22.524   3.787  49.485  1.00  0.00     0.134 A 
HETATM    2  C4  UNL     1      23.312   4.645  50.195  1.00  0.00     0.079 A 
HETATM    3  C5  UNL     1      23.686   4.458  48.809  1.00  0.00     0.141 A 
HETATM    4  N2  UNL     1      24.303   5.197  49.580  1.00  0.00    -0.353 N 
HETATM    5  C6  UNL     1      25.388   6.025  49.555  1.00  0.00     0.199 C 
HETATM    6  N3  UNL     1      26.370   5.298  49.441  1.00  0.00    -0.284 NA
HETATM    7  C7  UNL     1      26.700   3.952  49.333  1.00  0.00     0.155 C 
HETATM    8  C8  UNL     1      26.155   2.990  50.293  1.00  0.00     0.021 C 
HETATM    9  C9  UNL     1      25.266   3.232  51.273  1.00  0.00     0.029 C 
HETATM   10  C10 UNL     1      24.382   3.010  52.409  1.00  0.00    -0.075 C 
HETATM   11  C11 UNL     1      24.034   2.006  53.207  1.00  0.00     0.003 C 
HETATM   12  C21 UNL     1      23.782   4.350  52.656  1.00  0.00     0.037 C 
HETATM   13  C22 UNL     1      22.840   4.743  51.552  1.00  0.00     0.040 C 
ENDROOT
BRANCH  11  14
HETATM   14  C12 UNL     1      24.360   0.607  53.359  1.00  0.00     0.003 C 
HETATM   15  C13 UNL     1      23.661  -0.508  53.273  1.00  0.00     0.039 C 
BRANCH  15  16
HETATM   16  C14 UNL     1      22.285  -0.469  52.973  1.00  0.00     0.099 A 
HETATM   17  N4  UNL     1      21.489   0.006  52.049  1.00  0.00    -0.240 NA
HETATM   18  C15 UNL     1      20.189  -0.219  52.200  1.00  0.00     0.076 A 
HETATM   19  C16 UNL     1      19.300   0.256  51.257  1.00  0.00     0.057 A 
HETATM   20  C20 UNL     1      19.569  -0.944  53.298  1.00  0.00     0.036 A 
HETATM   21  C17 UNL     1      17.946   0.045  51.376  1.00  0.00     0.036 A 
HETATM   22 CL1  UNL     1      16.734   0.606  50.236  1.00  0.00    -0.084 Cl
HETATM   23  C18 UNL     1      17.391  -0.648  52.432  1.00  0.00     0.025 A 
HETATM   24  C19 UNL     1      18.223  -1.148  53.404  1.00  0.00     0.023 A 
HETATM   25  S1  UNL     1      21.135  -1.334  54.212  1.00  0.00    -0.068 SA
ENDBRANCH  15  16
ENDBRANCH  11  14
BRANCH   1  26
HETATM   26  N1  UNL     1      22.451   3.265  48.137  1.00  0.00    -0.393 N 
HETATM   27  H6  UNL     1      23.421   3.269  47.709  1.00  0.00     0.155 HD
BRANCH  26  28
HETATM   28  C2  UNL     1      21.155   2.869  47.657  1.00  0.00     0.285 C 
BRANCH  28  29
HETATM   29  O1  UNL     1      20.322   2.512  48.710  1.00  0.00    -0.377 OA
HETATM   30  C1  UNL     1      19.022   2.859  48.407  1.00  0.00     0.203 C 
ENDBRANCH  28  29
ENDBRANCH  26  28
ENDBRANCH   1  26
TORSDOF 5
ENDMDL
MODEL 3
REMARK VINA RESULT:      -7.6      5.169      7.012
REMARK  5 active torsions:
REMARK  status: ('A' for Active; 'I' for Inactive)
REMARK    1  A    between atoms: O1_2  and  C2_3 
REMARK    2  A    between atoms: C2_3  and  N1_4 
REMARK    3  A    between atoms: N1_4  and  C3_5 
REMARK    4  A    between atoms: C11_15  and  C12_16 
REMARK    5  A    between atoms: C13_17  and  C14_18 
ROOT
HETATM    1  C3  UNL     1      16.154   2.634  51.682  1.00  0.00     0.134 A 
HETATM    2  C4  UNL     1      16.323   1.669  50.733  1.00  0.00     0.079 A 
HETATM    3  C5  UNL     1      15.026   1.691  51.375  1.00  0.00     0.141 A 
HETATM    4  N2  UNL     1      15.332   0.876  50.501  1.00  0.00    -0.353 N 
HETATM    5  C6  UNL     1      14.765  -0.174  49.837  1.00  0.00     0.199 C 
HETATM    6  N3  UNL     1      14.649  -1.076  50.660  1.00  0.00    -0.284 NA
HETATM    7  C7  UNL     1      14.904  -1.344  51.999  1.00  0.00     0.155 C 
HETATM    8  C8  UNL     1      16.230  -1.067  52.557  1.00  0.00     0.021 C 
HETATM    9  C9  UNL     1      17.270  -0.483  51.935  1.00  0.00     0.029 C 
HETATM   10  C10 UNL     1      18.601   0.061  51.704  1.00  0.00    -0.075 C 
HETATM   11  C11 UNL     1      19.742   0.193  52.371  1.00  0.00     0.003 C 
HETATM   12  C21 UNL     1      18.542   0.551  50.299  1.00  0.00     0.037 C 
HETATM   13  C22 UNL     1      17.647   1.752  50.172  1.00  0.00     0.040 C 
ENDROOT
BRANCH  11  14
HETATM   14  C12 UNL     1      20.253  -0.141  53.681  1.00  0.00     0.003 C 
HETATM   15  C13 UNL     1      21.440  -0.052  54.248  1.00  0.00     0.039 C 
BRANCH  15  16
HETATM   16  C14 UNL     1      22.538   0.464  53.533  1.00  0.00     0.099 A 
HETATM   17  N4  UNL     1      22.808   1.446  52.711  1.00  0.00    -0.240 NA
HETATM   18  C15 UNL     1      24.058   1.538  52.272  1.00  0.00     0.076 A 
HETATM   19  C16 UNL     1      24.403   2.553  51.403  1.00  0.00     0.057 A 
HETATM   20  C20 UNL     1      25.154   0.647  52.620  1.00  0.00     0.036 A 
HETATM   21  C17 UNL     1      25.686   2.684  50.925  1.00  0.00     0.036 A 
HETATM   22 CL1  UNL     1      26.227   3.937  49.819  1.00  0.00    -0.084 Cl
HETATM   23  C18 UNL     1      26.702   1.821  51.275  1.00  0.00     0.025 A 
HETATM   24  C19 UNL     1      26.424   0.788  52.138  1.00  0.00     0.023 A 
HETATM   25  S1  UNL     1      24.182  -0.462  53.746  1.00  0.00    -0.068 SA
ENDBRANCH  15  16
ENDBRANCH  11  14
BRANCH   1  26
HETATM   26  N1  UNL     1      15.114   3.079  52.585  1.00  0.00    -0.393 N 
HETATM   27  H6  UNL     1      14.408   2.300  52.713  1.00  0.00     0.155 HD
BRANCH  26  28
HETATM   28  C2  UNL     1      15.224   4.416  53.102  1.00  0.00     0.285 C 
BRANCH  28  29
HETATM   29  O1  UNL     1      14.256   4.656  54.070  1.00  0.00    -0.377 OA
HETATM   30  C1  UNL     1      13.002   4.498  53.517  1.00  0.00     0.203 C 
ENDBRANCH  28  29
ENDBRANCH  26  28
ENDBRANCH   1  26
TORSDOF 5
ENDMDL
MODEL 4
REMARK VINA RESULT:      -7.5      4.723      7.961
REMARK  5 active torsions:
REMARK  status: ('A' for Active; 'I' for Inactive)
REMARK    1  A    between atoms: O1_2  and  C2_3 
REMARK    2  A    between atoms: C2_3  and  N1_4 
REMARK    3  A    between atoms: N1_4  and  C3_5 
REMARK    4  A    between atoms: C11_15  and  C12_16 
REMARK    5  A    between atoms: C13_17  and  C14_18 
ROOT
HETATM    1  C3  UNL     1      24.040   3.266  52.697  1.00  0.00     0.134 A 
HETATM    2  C4  UNL     1      23.222   4.091  51.982  1.00  0.00     0.079 A 
HETATM    3  C5  UNL     1      22.774   2.720  52.101  1.00  0.00     0.141 A 
HETATM    4  N2  UNL     1      22.146   3.583  51.482  1.00  0.00    -0.353 N 
HETATM    5  C6  UNL     1      20.991   3.690  50.762  1.00  0.00     0.199 C 
HETATM    6  N3  UNL     1      21.175   3.060  49.726  1.00  0.00    -0.284 NA
HETATM    7  C7  UNL     1      22.153   2.304  49.091  1.00  0.00     0.155 C 
HETATM    8  C8  UNL     1      23.510   2.837  48.954  1.00  0.00     0.021 C 
HETATM    9  C9  UNL     1      23.987   3.990  49.456  1.00  0.00     0.029 C 
HETATM   10  C10 UNL     1      24.909   5.074  49.767  1.00  0.00    -0.075 C 
HETATM   11  C11 UNL     1      26.168   5.405  49.502  1.00  0.00     0.003 C 
HETATM   12  C21 UNL     1      24.091   6.007  50.590  1.00  0.00     0.037 C 
HETATM   13  C22 UNL     1      23.776   5.420  51.937  1.00  0.00     0.040 C 
ENDROOT
BRANCH  11  14
HETATM   14  C12 UNL     1      27.279   4.853  48.761  1.00  0.00     0.003 C 
HETATM   15  C13 UNL     1      28.386   5.364  48.257  1.00  0.00     0.039 C 
BRANCH  15  16
HETATM   16  C14 UNL     1      28.670   6.736  48.402  1.00  0.00     0.099 A 
HETATM   17  N4  UNL     1      28.033   7.878  48.436  1.00  0.00    -0.240 NA
HETATM   18  C15 UNL     1      28.766   8.973  48.602  1.00  0.00     0.076 A 
HETATM   19  C16 UNL     1      28.150  10.207  48.647  1.00  0.00     0.057 A 
HETATM   20  C20 UNL     1      30.213   9.018  48.746  1.00  0.00     0.036 A 
HETATM   21  C17 UNL     1      28.873  11.365  48.816  1.00  0.00     0.036 A 
HETATM   22 CL1  UNL     1      28.188  12.981  48.888  1.00  0.00    -0.084 Cl
HETATM   23  C18 UNL     1      30.246  11.372  48.950  1.00  0.00     0.025 A 
HETATM   24  C19 UNL     1      30.920  10.174  48.914  1.00  0.00     0.023 A 
HETATM   25  S1  UNL     1      30.501   7.190  48.619  1.00  0.00    -0.068 SA
ENDBRANCH  15  16
ENDBRANCH  11  14
BRANCH   1  26
HETATM   26  N1  UNL     1      24.072   1.877  53.102  1.00  0.00    -0.393 N 
HETATM   27  H6  UNL     1      23.082   1.501  53.137  1.00  0.00     0.155 HD
BRANCH  26  28
HETATM   28  C2  UNL     1      25.362   1.302  53.370  1.00  0.00     0.285 C 
BRANCH  28  29
HETATM   29  O1  UNL     1      26.143   2.165  54.128  1.00  0.00    -0.377 OA
HETATM   30  C1  UNL     1      27.444   2.135  53.667  1.00  0.00     0.203 C 
ENDBRANCH  28  29
ENDBRANCH  26  28
ENDBRANCH   1  26
TORSDOF 5
ENDMDL
MODEL 5
REMARK VINA RESULT:      -7.3      1.967      2.622
REMARK  5 active torsions:
REMARK  status: ('A' for Active; 'I' for Inactive)
REMARK    1  A    between atoms: O1_2  and  C2_3 
REMARK    2  A    between atoms: C2_3  and  N1_4 
REMARK    3  A    between atoms: N1_4  and  C3_5 
REMARK    4  A    between atoms: C11_15  and  C12_16 
REMARK    5  A    between atoms: C13_17  and  C14_18 
ROOT
HETATM    1  C3  UNL     1      24.565   2.660  50.942  1.00  0.00     0.134 A 
HETATM    2  C4  UNL     1      23.962   3.339  49.923  1.00  0.00     0.079 A 
HETATM    3  C5  UNL     1      24.512   4.162  50.980  1.00  0.00     0.141 A 
HETATM    4  N2  UNL     1      23.933   4.627  49.995  1.00  0.00    -0.353 N 
HETATM    5  C6  UNL     1      23.587   5.849  49.495  1.00  0.00     0.199 C 
HETATM    6  N3  UNL     1      22.711   6.286  50.235  1.00  0.00    -0.284 NA
HETATM    7  C7  UNL     1      21.999   5.934  51.375  1.00  0.00     0.155 C 
HETATM    8  C8  UNL     1      21.347   4.625  51.451  1.00  0.00     0.021 C 
HETATM    9  C9  UNL     1      21.413   3.628  50.550  1.00  0.00     0.029 C 
HETATM   10  C10 UNL     1      21.183   2.341  49.908  1.00  0.00    -0.075 C 
HETATM   11  C11 UNL     1      20.487   1.234  50.139  1.00  0.00     0.003 C 
HETATM   12  C21 UNL     1      21.983   2.425  48.655  1.00  0.00     0.037 C 
HETATM   13  C22 UNL     1      23.458   2.414  48.942  1.00  0.00     0.040 C 
ENDROOT
BRANCH  11  14
HETATM   14  C12 UNL     1      19.591   0.734  51.157  1.00  0.00     0.003 C 
HETATM   15  C13 UNL     1      19.771   0.145  52.323  1.00  0.00     0.039 C 
BRANCH  15  16
HETATM   16  C14 UNL     1      21.070  -0.113  52.802  1.00  0.00     0.099 A 
HETATM   17  N4  UNL     1      22.296  -0.169  52.348  1.00  0.00    -0.240 NA
HETATM   18  C15 UNL     1      23.249  -0.468  53.223  1.00  0.00     0.076 A 
HETATM   19  C16 UNL     1      24.562  -0.540  52.805  1.00  0.00     0.057 A 
HETATM   20  C20 UNL     1      23.055  -0.740  54.639  1.00  0.00     0.036 A 
HETATM   21  C17 UNL     1      25.579  -0.847  53.679  1.00  0.00     0.036 A 
HETATM   22 CL1  UNL     1      27.278  -0.964  53.249  1.00  0.00    -0.084 Cl
HETATM   23  C18 UNL     1      25.359  -1.100  55.017  1.00  0.00     0.025 A 
HETATM   24  C19 UNL     1      24.073  -1.043  55.497  1.00  0.00     0.023 A 
HETATM   25  S1  UNL     1      21.213  -0.517  54.652  1.00  0.00    -0.068 SA
ENDBRANCH  15  16
ENDBRANCH  11  14
BRANCH   1  26
HETATM   26  N1  UNL     1      25.241   2.970  52.183  1.00  0.00    -0.393 N 
HETATM   27  H6  UNL     1      24.618   3.590  52.775  1.00  0.00     0.155 HD
BRANCH  26  28
HETATM   28  C2  UNL     1      26.555   2.418  52.368  1.00  0.00     0.285 C 
BRANCH  28  29
HETATM   29  O1  UNL     1      26.932   2.467  53.705  1.00  0.00    -0.377 OA
HETATM   30  C1  UNL     1      28.306   2.390  53.800  1.00  0.00     0.203 C 
ENDBRANCH  28  29
ENDBRANCH  26  28
ENDBRANCH   1  26
TORSDOF 5
ENDMDL
MODEL 6
REMARK VINA RESULT:      -7.2      2.403      4.056
REMARK  5 active torsions:
REMARK  status: ('A' for Active; 'I' for Inactive)
REMARK    1  A    between atoms: O1_2  and  C2_3 
REMARK    2  A    between atoms: C2_3  and  N1_4 
REMARK    3  A    between atoms: N1_4  and  C3_5 
REMARK    4  A    between atoms: C11_15  and  C12_16 
REMARK    5  A    between atoms: C13_17  and  C14_18 
ROOT
HETATM    1  C3  UNL     1      22.313   4.882  49.393  1.00  0.00     0.134 A 
HETATM    2  C4  UNL     1      23.283   5.321  50.247  1.00  0.00     0.079 A 
HETATM    3  C5  UNL     1      23.678   5.212  48.858  1.00  0.00     0.141 A 
HETATM    4  N2  UNL     1      24.443   5.589  49.749  1.00  0.00    -0.353 N 
HETATM    5  C6  UNL     1      25.738   6.002  49.879  1.00  0.00     0.199 C 
HETATM    6  N3  UNL     1      26.434   5.011  49.679  1.00  0.00    -0.284 NA
HETATM    7  C7  UNL     1      26.313   3.661  49.374  1.00  0.00     0.155 C 
HETATM    8  C8  UNL     1      25.413   2.815  50.161  1.00  0.00     0.021 C 
HETATM    9  C9  UNL     1      24.581   3.203  51.144  1.00  0.00     0.029 C 
HETATM   10  C10 UNL     1      23.591   3.137  52.210  1.00  0.00    -0.075 C 
HETATM   11  C11 UNL     1      22.875   2.208  52.835  1.00  0.00     0.003 C 
HETATM   12  C21 UNL     1      23.445   4.554  52.644  1.00  0.00     0.037 C 
HETATM   13  C22 UNL     1      22.769   5.385  51.590  1.00  0.00     0.040 C 
ENDROOT
BRANCH  11  14
HETATM   14  C12 UNL     1      22.714   0.774  52.778  1.00  0.00     0.003 C 
HETATM   15  C13 UNL     1      23.541  -0.245  52.915  1.00  0.00     0.039 C 
BRANCH  15  16
HETATM   16  C14 UNL     1      24.908  -0.027  53.175  1.00  0.00     0.099 A 
HETATM   17  N4  UNL     1      25.681   0.898  53.683  1.00  0.00    -0.240 NA
HETATM   18  C15 UNL     1      26.983   0.641  53.722  1.00  0.00     0.076 A 
HETATM   19  C16 UNL     1      27.848   1.579  54.248  1.00  0.00     0.057 A 
HETATM   20  C20 UNL     1      27.629  -0.574  53.251  1.00  0.00     0.036 A 
HETATM   21  C17 UNL     1      29.204   1.352  54.306  1.00  0.00     0.036 A 
HETATM   22 CL1  UNL     1      30.388   2.476  54.954  1.00  0.00    -0.084 Cl
HETATM   23  C18 UNL     1      29.784   0.187  53.850  1.00  0.00     0.025 A 
HETATM   24  C19 UNL     1      28.976  -0.788  53.315  1.00  0.00     0.023 A 
HETATM   25  S1  UNL     1      26.086  -1.432  52.681  1.00  0.00    -0.068 SA
ENDBRANCH  15  16
ENDBRANCH  11  14
BRANCH   1  26
HETATM   26  N1  UNL     1      22.176   4.603  47.980  1.00  0.00    -0.393 N 
HETATM   27  H6  UNL     1      23.034   4.958  47.470  1.00  0.00     0.155 HD
BRANCH  26  28
HETATM   28  C2  UNL     1      20.971   3.942  47.557  1.00  0.00     0.285 C 
BRANCH  28  29
HETATM   29  O1  UNL     1      21.203   3.155  46.436  1.00  0.00    -0.377 OA
HETATM   30  C1  UNL     1      21.663   3.946  45.404  1.00  0.00     0.203 C 
ENDBRANCH  28  29
ENDBRANCH  26  28
ENDBRANCH   1  26
TORSDOF 5
ENDMDL
MODEL 7
REMARK VINA RESULT:      -7.1      5.778      9.564
REMARK  5 active torsions:
REMARK  status: ('A' for Active; 'I' for Inactive)
REMARK    1  A    between atoms: O1_2  and  C2_3 
REMARK    2  A    between atoms: C2_3  and  N1_4 
REMARK    3  A    between atoms: N1_4  and  C3_5 
REMARK    4  A    between atoms: C11_15  and  C12_16 
REMARK    5  A    between atoms: C13_17  and  C14_18 
ROOT
HETATM    1  C3  UNL     1      33.825   6.996  47.179  1.00  0.00     0.134 A 
HETATM    2  C4  UNL     1      33.658   5.987  48.082  1.00  0.00     0.079 A 
HETATM    3  C5  UNL     1      34.290   5.609  46.835  1.00  0.00     0.141 A 
HETATM    4  N2  UNL     1      34.067   4.809  47.748  1.00  0.00    -0.353 N 
HETATM    5  C6  UNL     1      34.245   3.482  48.012  1.00  0.00     0.199 C 
HETATM    6  N3  UNL     1      33.473   2.879  47.273  1.00  0.00    -0.284 NA
HETATM    7  C7  UNL     1      32.517   3.123  46.294  1.00  0.00     0.155 C 
HETATM    8  C8  UNL     1      31.449   4.093  46.546  1.00  0.00     0.021 C 
HETATM    9  C9  UNL     1      31.303   4.883  47.625  1.00  0.00     0.029 C 
HETATM   10  C10 UNL     1      30.743   5.871  48.537  1.00  0.00    -0.075 C 
HETATM   11  C11 UNL     1      29.680   6.666  48.598  1.00  0.00     0.003 C 
HETATM   12  C21 UNL     1      31.704   5.886  49.673  1.00  0.00     0.037 C 
HETATM   13  C22 UNL     1      33.022   6.488  49.273  1.00  0.00     0.040 C 
ENDROOT
BRANCH  11  14
HETATM   14  C12 UNL     1      28.522   6.957  47.785  1.00  0.00     0.003 C 
HETATM   15  C13 UNL     1      27.284   6.502  47.761  1.00  0.00     0.039 C 
BRANCH  15  16
HETATM   16  C14 UNL     1      26.867   5.515  48.675  1.00  0.00     0.099 A 
HETATM   17  N4  UNL     1      27.248   4.337  49.098  1.00  0.00    -0.240 NA
HETATM   18  C15 UNL     1      26.494   3.755  50.023  1.00  0.00     0.076 A 
HETATM   19  C16 UNL     1      26.846   2.513  50.509  1.00  0.00     0.057 A 
HETATM   20  C20 UNL     1      25.281   4.306  50.607  1.00  0.00     0.036 A 
HETATM   21  C17 UNL     1      26.091   1.875  51.467  1.00  0.00     0.036 A 
HETATM   22 CL1  UNL     1      26.452   0.298  52.149  1.00  0.00    -0.084 Cl
HETATM   23  C18 UNL     1      24.946   2.427  52.000  1.00  0.00     0.025 A 
HETATM   24  C19 UNL     1      24.541   3.664  51.557  1.00  0.00     0.023 A 
HETATM   25  S1  UNL     1      25.280   5.894  49.647  1.00  0.00    -0.068 SA
ENDBRANCH  15  16
ENDBRANCH  11  14
BRANCH   1  26
HETATM   26  N1  UNL     1      34.369   7.164  45.848  1.00  0.00    -0.393 N 
HETATM   27  H6  UNL     1      35.030   6.363  45.638  1.00  0.00     0.155 HD
BRANCH  26  28
HETATM   28  C2  UNL     1      33.940   8.318  45.107  1.00  0.00     0.285 C 
BRANCH  28  29
HETATM   29  O1  UNL     1      34.823   8.600  44.072  1.00  0.00    -0.377 OA
HETATM   30  C1  UNL     1      35.770   9.504  44.507  1.00  0.00     0.203 C 
ENDBRANCH  28  29
ENDBRANCH  26  28
ENDBRANCH   1  26
TORSDOF 5
ENDMDL
MODEL 8
REMARK VINA RESULT:      -7.1      3.196      4.801
REMARK  5 active torsions:
REMARK  status: ('A' for Active; 'I' for Inactive)
REMARK    1  A    between atoms: O1_2  and  C2_3 
REMARK    2  A    between atoms: C2_3  and  N1_4 
REMARK    3  A    between atoms: N1_4  and  C3_5 
REMARK    4  A    between atoms: C11_15  and  C12_16 
REMARK    5  A    between atoms: C13_17  and  C14_18 
ROOT
HETATM    1  C3  UNL     1      21.258   3.805  48.607  1.00  0.00     0.134 A 
HETATM    2  C4  UNL     1      20.412   2.741  48.731  1.00  0.00     0.079 A 
HETATM    3  C5  UNL     1      19.798   4.045  48.868  1.00  0.00     0.141 A 
HETATM    4  N2  UNL     1      19.167   2.989  48.959  1.00  0.00    -0.353 N 
HETATM    5  C6  UNL     1      17.883   2.580  49.180  1.00  0.00     0.199 C 
HETATM    6  N3  UNL     1      17.637   2.847  50.353  1.00  0.00    -0.284 NA
HETATM    7  C7  UNL     1      18.236   3.413  51.471  1.00  0.00     0.155 C 
HETATM    8  C8  UNL     1      19.558   2.951  51.901  1.00  0.00     0.021 C 
HETATM    9  C9  UNL     1      20.350   2.058  51.281  1.00  0.00     0.029 C 
HETATM   10  C10 UNL     1      21.490   1.196  51.003  1.00  0.00    -0.075 C 
HETATM   11  C11 UNL     1      22.647   0.876  51.573  1.00  0.00     0.003 C 
HETATM   12  C21 UNL     1      21.128   0.534  49.720  1.00  0.00     0.037 C 
HETATM   13  C22 UNL     1      21.141   1.509  48.576  1.00  0.00     0.040 C 
ENDROOT
BRANCH  11  14
HETATM   14  C12 UNL     1      23.374   1.224  52.773  1.00  0.00     0.003 C 
HETATM   15  C13 UNL     1      24.306   2.115  53.051  1.00  0.00     0.039 C 
BRANCH  15  16
HETATM   16  C14 UNL     1      24.789   2.980  52.050  1.00  0.00     0.099 A 
HETATM   17  N4  UNL     1      24.463   4.113  51.483  1.00  0.00    -0.240 NA
HETATM   18  C15 UNL     1      25.270   4.565  50.531  1.00  0.00     0.076 A 
HETATM   19  C16 UNL     1      24.979   5.756  49.897  1.00  0.00     0.057 A 
HETATM   20  C20 UNL     1      26.484   3.916  50.060  1.00  0.00     0.036 A 
HETATM   21  C17 UNL     1      25.789   6.259  48.905  1.00  0.00     0.036 A 
HETATM   22 CL1  UNL     1      25.509   7.760  48.038  1.00  0.00    -0.084 Cl
HETATM   23  C18 UNL     1      26.934   5.616  48.482  1.00  0.00     0.025 A 
HETATM   24  C19 UNL     1      27.280   4.425  49.075  1.00  0.00     0.023 A 
HETATM   25  S1  UNL     1      26.396   2.447  51.190  1.00  0.00    -0.068 SA
ENDBRANCH  15  16
ENDBRANCH  11  14
BRANCH   1  26
HETATM   26  N1  UNL     1      21.177   5.249  48.655  1.00  0.00    -0.393 N 
HETATM   27  H6  UNL     1      20.420   5.533  49.340  1.00  0.00     0.155 HD
BRANCH  26  28
HETATM   28  C2  UNL     1      22.082   5.984  47.814  1.00  0.00     0.285 C 
BRANCH  28  29
HETATM   29  O1  UNL     1      22.075   7.335  48.137  1.00  0.00    -0.377 OA
HETATM   30  C1  UNL     1      21.657   7.495  49.442  1.00  0.00     0.203 C 
ENDBRANCH  28  29
ENDBRANCH  26  28
ENDBRANCH   1  26
TORSDOF 5
ENDMDL
MODEL 9
REMARK VINA RESULT:      -7.0      2.845      5.287
REMARK  5 active torsions:
REMARK  status: ('A' for Active; 'I' for Inactive)
REMARK    1  A    between atoms: O1_2  and  C2_3 
REMARK    2  A    between atoms: C2_3  and  N1_4 
REMARK    3  A    between atoms: N1_4  and  C3_5 
REMARK    4  A    between atoms: C11_15  and  C12_16 
REMARK    5  A    between atoms: C13_17  and  C14_18 
ROOT
HETATM    1  C3  UNL     1      23.441   2.624  50.750  1.00  0.00     0.134 A 
HETATM    2  C4  UNL     1      23.916   3.419  49.748  1.00  0.00     0.079 A 
HETATM    3  C5  UNL     1      24.534   3.612  51.043  1.00  0.00     0.141 A 
HETATM    4  N2  UNL     1      24.851   4.258  50.041  1.00  0.00    -0.353 N 
HETATM    5  C6  UNL     1      25.728   5.246  49.695  1.00  0.00     0.199 C 
HETATM    6  N3  UNL     1      25.325   6.267  50.245  1.00  0.00    -0.284 NA
HETATM    7  C7  UNL     1      24.299   6.704  51.074  1.00  0.00     0.155 C 
HETATM    8  C8  UNL     1      22.909   6.391  50.738  1.00  0.00     0.021 C 
HETATM    9  C9  UNL     1      22.468   5.628  49.722  1.00  0.00     0.029 C 
HETATM   10  C10 UNL     1      21.558   4.935  48.820  1.00  0.00    -0.075 C 
HETATM   11  C11 UNL     1      20.246   4.798  48.657  1.00  0.00     0.003 C 
HETATM   12  C21 UNL     1      22.466   4.251  47.859  1.00  0.00     0.037 C 
HETATM   13  C22 UNL     1      23.224   3.133  48.518  1.00  0.00     0.040 C 
ENDROOT
BRANCH  11  14
HETATM   14  C12 UNL     1      19.040   5.272  49.294  1.00  0.00     0.003 C 
HETATM   15  C13 UNL     1      18.309   4.839  50.304  1.00  0.00     0.039 C 
BRANCH  15  16
HETATM   16  C14 UNL     1      18.673   3.671  51.001  1.00  0.00     0.099 A 
HETATM   17  N4  UNL     1      19.520   3.295  51.925  1.00  0.00    -0.240 NA
HETATM   18  C15 UNL     1      19.495   2.016  52.282  1.00  0.00     0.076 A 
HETATM   19  C16 UNL     1      20.364   1.561  53.252  1.00  0.00     0.057 A 
HETATM   20  C20 UNL     1      18.613   0.995  51.739  1.00  0.00     0.036 A 
HETATM   21  C17 UNL     1      20.371   0.244  53.650  1.00  0.00     0.036 A 
HETATM   22 CL1  UNL     1      21.433  -0.435  54.873  1.00  0.00    -0.084 Cl
HETATM   23  C18 UNL     1      19.519  -0.699  53.114  1.00  0.00     0.025 A 
HETATM   24  C19 UNL     1      18.628  -0.309  52.143  1.00  0.00     0.023 A 
HETATM   25  S1  UNL     1      17.713   2.096  50.548  1.00  0.00    -0.068 SA
ENDBRANCH  15  16
ENDBRANCH  11  14
BRANCH   1  26
HETATM   26  N1  UNL     1      23.688   2.415  52.160  1.00  0.00    -0.393 N 
HETATM   27  H6  UNL     1      23.702   3.352  52.654  1.00  0.00     0.155 HD
BRANCH  26  28
HETATM   28  C2  UNL     1      23.864   1.058  52.600  1.00  0.00     0.285 C 
BRANCH  28  29
HETATM   29  O1  UNL     1      25.033   0.921  53.338  1.00  0.00    -0.377 OA
HETATM   30  C1  UNL     1      25.553  -0.342  53.149  1.00  0.00     0.203 C 
ENDBRANCH  28  29
ENDBRANCH  26  28
ENDBRANCH   1  26
TORSDOF 5
ENDMDL
