MODEL 1
REMARK VINA RESULT:      -8.1      0.000      0.000
REMARK  3 active torsions:
REMARK  status: ('A' for Active; 'I' for Inactive)
REMARK    1  A    between atoms: C2_2  and  N1_3 
REMARK    2  A    between atoms: N1_3  and  C3_4 
REMARK    3  A    between atoms: C3_4  and  C4_5 
ROOT
HETATM    1  C4  UNL     1      22.046   5.268  51.447  1.00  0.00     0.014 C 
HETATM    2  C5  UNL     1      21.462   4.414  50.387  1.00  0.00     0.006 C 
HETATM    3  C6  UNL     1      22.059   4.314  49.054  1.00  0.00     0.006 C 
HETATM    4  C7  UNL     1      22.665   2.952  48.662  1.00  0.00     0.062 C 
HETATM    5  C8  UNL     1      23.688   2.609  49.712  1.00  0.00     0.061 A 
HETATM    6  N2  UNL     1      24.689   3.316  49.331  1.00  0.00    -0.262 NA
HETATM    7  C9  UNL     1      25.786   3.582  50.231  1.00  0.00     0.134 A 
HETATM    8  C10 UNL     1      25.563   3.010  51.449  1.00  0.00     0.110 A 
HETATM    9  N3  UNL     1      24.361   2.362  51.351  1.00  0.00    -0.353 N 
HETATM   10  C11 UNL     1      23.755   2.594  52.688  1.00  0.00     0.129 C 
HETATM   11  C12 UNL     1      23.763   4.075  53.046  1.00  0.00     0.021 C 
HETATM   12  C13 UNL     1      23.293   5.090  52.138  1.00  0.00     0.008 C 
HETATM   13  C14 UNL     1      23.187   1.894  50.788  1.00  0.00     0.068 A 
HETATM   14  C15 UNL     1      22.192   1.225  51.150  1.00  0.00     0.001 C 
HETATM   15  C16 UNL     1      20.917   0.841  50.550  1.00  0.00     0.161 C 
HETATM   16  N4  UNL     1      20.026   0.950  51.755  1.00  0.00    -0.385 N 
HETATM   17  C17 UNL     1      20.789   0.205  52.678  1.00  0.00     0.039 A 
HETATM   18  C18 UNL     1      20.378  -0.579  53.770  1.00  0.00     0.030 A 
HETATM   19  C19 UNL     1      21.328  -1.253  54.554  1.00  0.00     0.002 A 
HETATM   20  C20 UNL     1      22.648  -1.131  54.236  1.00  0.00     0.001 A 
HETATM   21  C21 UNL     1      23.053  -0.353  53.154  1.00  0.00     0.014 A 
HETATM   22  C22 UNL     1      22.108   0.334  52.354  1.00  0.00     0.001 A 
HETATM   23  H26 UNL     1      19.103   1.421  51.924  1.00  0.00     0.160 HD
ENDROOT
BRANCH   1  24
HETATM   24  C3  UNL     1      22.033   6.754  50.843  1.00  0.00     0.274 C 
BRANCH  24  25
HETATM   25  N1  UNL     1      23.300   7.333  51.226  1.00  0.00     0.083 N 
HETATM   26  H6  UNL     1      23.962   6.636  51.628  1.00  0.00     0.315 HD
BRANCH  25  27
HETATM   27  C2  UNL     1      23.910   8.035  50.138  1.00  0.00     0.265 C 
HETATM   28  C1  UNL     1      24.554   7.113  49.137  1.00  0.00     0.037 C 
ENDBRANCH  25  27
ENDBRANCH  24  25
ENDBRANCH   1  24
TORSDOF 3
ENDMDL
MODEL 2
REMARK VINA RESULT:      -7.8      2.226      4.618
REMARK  3 active torsions:
REMARK  status: ('A' for Active; 'I' for Inactive)
REMARK    1  A    between atoms: C2_2  and  N1_3 
REMARK    2  A    between atoms: N1_3  and  C3_4 
REMARK    3  A    between atoms: C3_4  and  C4_5 
ROOT
HETATM    1  C4  UNL     1      22.132   2.127  48.592  1.00  0.00     0.014 C 
HETATM    2  C5  UNL     1      23.089   3.194  48.969  1.00  0.00     0.006 C 
HETATM    3  C6  UNL     1      22.642   4.504  49.446  1.00  0.00     0.006 C 
HETATM    4  C7  UNL     1      22.953   4.856  50.914  1.00  0.00     0.062 C 
HETATM    5  C8  UNL     1      22.350   3.768  51.762  1.00  0.00     0.061 A 
HETATM    6  N2  UNL     1      21.119   4.125  51.795  1.00  0.00    -0.262 NA
HETATM    7  C9  UNL     1      20.093   3.192  52.201  1.00  0.00     0.134 A 
HETATM    8  C10 UNL     1      20.634   1.975  52.491  1.00  0.00     0.110 A 
HETATM    9  N3  UNL     1      21.984   2.104  52.307  1.00  0.00    -0.353 N 
HETATM   10  C11 UNL     1      22.361   0.791  51.719  1.00  0.00     0.129 C 
HETATM   11  C12 UNL     1      21.484   0.455  50.518  1.00  0.00     0.021 C 
HETATM   12  C13 UNL     1      21.245   1.393  49.451  1.00  0.00     0.008 C 
HETATM   13  C14 UNL     1      23.198   2.699  52.008  1.00  0.00     0.068 A 
HETATM   14  C15 UNL     1      24.402   2.361  51.947  1.00  0.00     0.001 C 
HETATM   15  C16 UNL     1      25.645   2.997  51.522  1.00  0.00     0.161 C 
HETATM   16  N4  UNL     1      26.322   1.824  50.869  1.00  0.00    -0.385 N 
HETATM   17  C17 UNL     1      26.165   0.866  51.892  1.00  0.00     0.039 A 
HETATM   18  C18 UNL     1      26.979  -0.223  52.246  1.00  0.00     0.030 A 
HETATM   19  C19 UNL     1      26.627  -1.049  53.325  1.00  0.00     0.002 A 
HETATM   20  C20 UNL     1      25.485  -0.774  54.018  1.00  0.00     0.001 A 
HETATM   21  C21 UNL     1      24.679   0.306  53.665  1.00  0.00     0.014 A 
HETATM   22  C22 UNL     1      25.019   1.147  52.577  1.00  0.00     0.001 A 
HETATM   23  H26 UNL     1      26.790   1.693  49.938  1.00  0.00     0.160 HD
ENDROOT
BRANCH   1  24
HETATM   24  C3  UNL     1      21.252   2.754  47.407  1.00  0.00     0.274 C 
BRANCH  24  25
HETATM   25  N1  UNL     1      19.880   2.471  47.759  1.00  0.00     0.083 N 
HETATM   26  H6  UNL     1      19.778   2.082  48.720  1.00  0.00     0.315 HD
BRANCH  25  27
HETATM   27  C2  UNL     1      19.044   3.621  47.591  1.00  0.00     0.265 C 
HETATM   28  C1  UNL     1      18.925   4.444  48.846  1.00  0.00     0.037 C 
ENDBRANCH  25  27
ENDBRANCH  24  25
ENDBRANCH   1  24
TORSDOF 3
ENDMDL
MODEL 3
REMARK VINA RESULT:      -7.1      7.687     11.538
REMARK  3 active torsions:
REMARK  status: ('A' for Active; 'I' for Inactive)
REMARK    1  A    between atoms: C2_2  and  N1_3 
REMARK    2  A    between atoms: N1_3  and  C3_4 
REMARK    3  A    between atoms: C3_4  and  C4_5 
ROOT
HETATM    1  C4  UNL     1      28.685   6.940  47.289  1.00  0.00     0.014 C 
HETATM    2  C5  UNL     1      29.183   8.184  46.656  1.00  0.00     0.006 C 
HETATM    3  C6  UNL     1      29.601   9.343  47.447  1.00  0.00     0.006 C 
HETATM    4  C7  UNL     1      31.098   9.710  47.408  1.00  0.00     0.062 C 
HETATM    5  C8  UNL     1      31.861   8.487  47.843  1.00  0.00     0.061 A 
HETATM    6  N2  UNL     1      31.739   8.554  49.118  1.00  0.00    -0.262 NA
HETATM    7  C9  UNL     1      32.010   7.400  49.944  1.00  0.00     0.134 A 
HETATM    8  C10 UNL     1      32.363   6.329  49.178  1.00  0.00     0.110 A 
HETATM    9  N3  UNL     1      32.351   6.767  47.881  1.00  0.00    -0.353 N 
HETATM   10  C11 UNL     1      31.813   5.594  47.145  1.00  0.00     0.129 C 
HETATM   11  C12 UNL     1      30.510   5.105  47.766  1.00  0.00     0.021 C 
HETATM   12  C13 UNL     1      29.424   5.996  48.082  1.00  0.00     0.008 C 
HETATM   13  C14 UNL     1      32.209   7.632  46.810  1.00  0.00     0.068 A 
HETATM   14  C15 UNL     1      32.301   7.579  45.562  1.00  0.00     0.001 C 
HETATM   15  C16 UNL     1      32.037   8.495  44.456  1.00  0.00     0.161 C 
HETATM   16  N4  UNL     1      31.473   7.527  43.453  1.00  0.00    -0.385 N 
HETATM   17  C17 UNL     1      32.465   6.527  43.510  1.00  0.00     0.039 A 
HETATM   18  C18 UNL     1      32.917   5.641  42.517  1.00  0.00     0.030 A 
HETATM   19  C19 UNL     1      33.941   4.724  42.799  1.00  0.00     0.002 A 
HETATM   20  C20 UNL     1      34.485   4.711  44.050  1.00  0.00     0.001 A 
HETATM   21  C21 UNL     1      34.035   5.589  45.033  1.00  0.00     0.014 A 
HETATM   22  C22 UNL     1      33.001   6.518  44.764  1.00  0.00     0.001 A 
HETATM   23  H26 UNL     1      30.608   7.535  42.857  1.00  0.00     0.160 HD
ENDROOT
BRANCH   1  24
HETATM   24  C3  UNL     1      27.399   7.386  48.138  1.00  0.00     0.274 C 
BRANCH  24  25
HETATM   25  N1  UNL     1      27.319   6.447  49.232  1.00  0.00     0.083 N 
HETATM   26  H6  UNL     1      27.331   6.907  50.166  1.00  0.00     0.315 HD
BRANCH  25  27
HETATM   27  C2  UNL     1      26.179   5.590  49.109  1.00  0.00     0.265 C 
HETATM   28  C1  UNL     1      26.496   4.150  49.415  1.00  0.00     0.037 C 
ENDBRANCH  25  27
ENDBRANCH  24  25
ENDBRANCH   1  24
TORSDOF 3
ENDMDL
MODEL 4
REMARK VINA RESULT:      -7.1      2.082      4.397
REMARK  3 active torsions:
REMARK  status: ('A' for Active; 'I' for Inactive)
REMARK    1  A    between atoms: C2_2  and  N1_3 
REMARK    2  A    between atoms: N1_3  and  C3_4 
REMARK    3  A    between atoms: C3_4  and  C4_5 
ROOT
HETATM    1  C4  UNL     1      22.671   3.434  48.329  1.00  0.00     0.014 C 
HETATM    2  C5  UNL     1      23.008   4.429  49.374  1.00  0.00     0.006 C 
HETATM    3  C6  UNL     1      22.041   5.425  49.837  1.00  0.00     0.006 C 
HETATM    4  C7  UNL     1      21.549   5.296  51.292  1.00  0.00     0.062 C 
HETATM    5  C8  UNL     1      20.972   3.913  51.438  1.00  0.00     0.061 A 
HETATM    6  N2  UNL     1      19.811   4.067  50.917  1.00  0.00    -0.262 NA
HETATM    7  C9  UNL     1      19.027   2.921  50.515  1.00  0.00     0.134 A 
HETATM    8  C10 UNL     1      19.706   1.763  50.756  1.00  0.00     0.110 A 
HETATM    9  N3  UNL     1      20.896   2.130  51.324  1.00  0.00    -0.353 N 
HETATM   10  C11 UNL     1      21.854   1.159  50.731  1.00  0.00     0.129 C 
HETATM   11  C12 UNL     1      21.742   1.135  49.211  1.00  0.00     0.021 C 
HETATM   12  C13 UNL     1      21.746   2.337  48.419  1.00  0.00     0.008 C 
HETATM   13  C14 UNL     1      21.888   2.950  51.833  1.00  0.00     0.068 A 
HETATM   14  C15 UNL     1      23.033   2.820  52.323  1.00  0.00     0.001 C 
HETATM   15  C16 UNL     1      24.095   3.726  52.752  1.00  0.00     0.161 C 
HETATM   16  N4  UNL     1      25.295   2.949  52.291  1.00  0.00    -0.385 N 
HETATM   17  C17 UNL     1      24.981   1.688  52.840  1.00  0.00     0.039 A 
HETATM   18  C18 UNL     1      25.826   0.665  53.303  1.00  0.00     0.030 A 
HETATM   19  C19 UNL     1      25.284  -0.518  53.829  1.00  0.00     0.002 A 
HETATM   20  C20 UNL     1      23.927  -0.653  53.880  1.00  0.00     0.001 A 
HETATM   21  C21 UNL     1      23.091   0.362  53.420  1.00  0.00     0.014 A 
HETATM   22  C22 UNL     1      23.624   1.561  52.885  1.00  0.00     0.001 A 
HETATM   23  H26 UNL     1      26.145   3.207  51.730  1.00  0.00     0.160 HD
ENDROOT
BRANCH   1  24
HETATM   24  C3  UNL     1      22.273   4.300  47.038  1.00  0.00     0.274 C 
BRANCH  24  25
HETATM   25  N1  UNL     1      21.062   3.696  46.532  1.00  0.00     0.083 N 
HETATM   26  H6  UNL     1      20.669   2.973  47.170  1.00  0.00     0.315 HD
BRANCH  25  27
HETATM   27  C2  UNL     1      20.073   4.682  46.218  1.00  0.00     0.265 C 
HETATM   28  C1  UNL     1      19.247   5.080  47.413  1.00  0.00     0.037 C 
ENDBRANCH  25  27
ENDBRANCH  24  25
ENDBRANCH   1  24
TORSDOF 3
ENDMDL
MODEL 5
REMARK VINA RESULT:      -7.0      4.862      7.197
REMARK  3 active torsions:
REMARK  status: ('A' for Active; 'I' for Inactive)
REMARK    1  A    between atoms: C2_2  and  N1_3 
REMARK    2  A    between atoms: N1_3  and  C3_4 
REMARK    3  A    between atoms: C3_4  and  C4_5 
ROOT
HETATM    1  C4  UNL     1      15.504   2.856  52.509  1.00  0.00     0.014 C 
HETATM    2  C5  UNL     1      15.242   1.400  52.411  1.00  0.00     0.006 C 
HETATM    3  C6  UNL     1      14.525   0.815  51.276  1.00  0.00     0.006 C 
HETATM    4  C7  UNL     1      15.332  -0.110  50.345  1.00  0.00     0.062 C 
HETATM    5  C8  UNL     1      16.513   0.684  49.854  1.00  0.00     0.061 A 
HETATM    6  N2  UNL     1      15.978   1.382  48.920  1.00  0.00    -0.262 NA
HETATM    7  C9  UNL     1      16.650   2.549  48.397  1.00  0.00     0.134 A 
HETATM    8  C10 UNL     1      17.834   2.755  49.041  1.00  0.00     0.110 A 
HETATM    9  N3  UNL     1      17.956   1.737  49.949  1.00  0.00    -0.353 N 
HETATM   10  C11 UNL     1      18.582   2.414  51.115  1.00  0.00     0.129 C 
HETATM   11  C12 UNL     1      17.802   3.662  51.511  1.00  0.00     0.021 C 
HETATM   12  C13 UNL     1      16.372   3.653  51.688  1.00  0.00     0.008 C 
HETATM   13  C14 UNL     1      17.639   0.590  50.656  1.00  0.00     0.068 A 
HETATM   14  C15 UNL     1      18.136  -0.089  51.583  1.00  0.00     0.001 C 
HETATM   15  C16 UNL     1      17.714  -1.240  52.376  1.00  0.00     0.161 C 
HETATM   16  N4  UNL     1      18.273  -0.846  53.714  1.00  0.00    -0.385 N 
HETATM   17  C17 UNL     1      19.589  -0.517  53.329  1.00  0.00     0.039 A 
HETATM   18  C18 UNL     1      20.794  -0.610  54.048  1.00  0.00     0.030 A 
HETATM   19  C19 UNL     1      22.005  -0.232  53.449  1.00  0.00     0.002 A 
HETATM   20  C20 UNL     1      21.989   0.227  52.165  1.00  0.00     0.001 A 
HETATM   21  C21 UNL     1      20.794   0.320  51.455  1.00  0.00     0.014 A 
HETATM   22  C22 UNL     1      19.563  -0.057  52.046  1.00  0.00     0.001 A 
HETATM   23  H26 UNL     1      17.862  -0.807  54.680  1.00  0.00     0.160 HD
ENDROOT
BRANCH   1  24
HETATM   24  C3  UNL     1      14.055   3.544  52.495  1.00  0.00     0.274 C 
BRANCH  24  25
HETATM   25  N1  UNL     1      13.891   4.115  53.812  1.00  0.00     0.083 N 
HETATM   26  H6  UNL     1      14.482   4.958  53.967  1.00  0.00     0.315 HD
BRANCH  25  27
HETATM   27  C2  UNL     1      12.517   4.405  54.094  1.00  0.00     0.265 C 
HETATM   28  C1  UNL     1      11.809   3.265  54.775  1.00  0.00     0.037 C 
ENDBRANCH  25  27
ENDBRANCH  24  25
ENDBRANCH   1  24
TORSDOF 3
ENDMDL
MODEL 6
REMARK VINA RESULT:      -6.7      9.560     12.546
REMARK  3 active torsions:
REMARK  status: ('A' for Active; 'I' for Inactive)
REMARK    1  A    between atoms: C2_2  and  N1_3 
REMARK    2  A    between atoms: N1_3  and  C3_4 
REMARK    3  A    between atoms: C3_4  and  C4_5 
ROOT
HETATM    1  C4  UNL     1      32.595   6.599  45.227  1.00  0.00     0.014 C 
HETATM    2  C5  UNL     1      31.629   6.026  46.193  1.00  0.00     0.006 C 
HETATM    3  C6  UNL     1      32.028   5.031  47.191  1.00  0.00     0.006 C 
HETATM    4  C7  UNL     1      31.978   5.467  48.668  1.00  0.00     0.062 C 
HETATM    5  C8  UNL     1      32.842   6.693  48.793  1.00  0.00     0.061 A 
HETATM    6  N2  UNL     1      34.014   6.174  48.844  1.00  0.00    -0.262 NA
HETATM    7  C9  UNL     1      35.188   6.983  48.611  1.00  0.00     0.134 A 
HETATM    8  C10 UNL     1      34.840   8.271  48.331  1.00  0.00     0.110 A 
HETATM    9  N3  UNL     1      33.474   8.321  48.402  1.00  0.00    -0.353 N 
HETATM   10  C11 UNL     1      33.123   9.253  47.299  1.00  0.00     0.129 C 
HETATM   11  C12 UNL     1      33.775   8.825  45.989  1.00  0.00     0.021 C 
HETATM   12  C13 UNL     1      33.704   7.473  45.498  1.00  0.00     0.008 C 
HETATM   13  C14 UNL     1      32.172   7.889  48.586  1.00  0.00     0.068 A 
HETATM   14  C15 UNL     1      31.019   8.374  48.517  1.00  0.00     0.001 C 
HETATM   15  C16 UNL     1      29.659   7.852  48.616  1.00  0.00     0.161 C 
HETATM   16  N4  UNL     1      28.989   8.688  47.562  1.00  0.00    -0.385 N 
HETATM   17  C17 UNL     1      29.439   9.965  47.955  1.00  0.00     0.039 A 
HETATM   18  C18 UNL     1      28.824  11.222  47.828  1.00  0.00     0.030 A 
HETATM   19  C19 UNL     1      29.463  12.375  48.312  1.00  0.00     0.002 A 
HETATM   20  C20 UNL     1      30.685  12.250  48.903  1.00  0.00     0.001 A 
HETATM   21  C21 UNL     1      31.294  11.003  49.027  1.00  0.00     0.014 A 
HETATM   22  C22 UNL     1      30.663   9.831  48.543  1.00  0.00     0.001 A 
HETATM   23  H26 UNL     1      28.362   8.454  46.752  1.00  0.00     0.160 HD
ENDROOT
BRANCH   1  24
HETATM   24  C3  UNL     1      33.158   5.344  44.402  1.00  0.00     0.274 C 
BRANCH  24  25
HETATM   25  N1  UNL     1      34.574   5.305  44.683  1.00  0.00     0.083 N 
HETATM   26  H6  UNL     1      34.844   5.896  45.497  1.00  0.00     0.315 HD
BRANCH  25  27
HETATM   27  C2  UNL     1      35.040   3.963  44.861  1.00  0.00     0.265 C 
HETATM   28  C1  UNL     1      35.095   3.552  46.308  1.00  0.00     0.037 C 
ENDBRANCH  25  27
ENDBRANCH  24  25
ENDBRANCH   1  24
TORSDOF 3
ENDMDL
MODEL 7
REMARK VINA RESULT:      -6.7      7.471     11.369
REMARK  3 active torsions:
REMARK  status: ('A' for Active; 'I' for Inactive)
REMARK    1  A    between atoms: C2_2  and  N1_3 
REMARK    2  A    between atoms: N1_3  and  C3_4 
REMARK    3  A    between atoms: C3_4  and  C4_5 
ROOT
HETATM    1  C4  UNL     1      28.750   8.081  48.779  1.00  0.00     0.014 C 
HETATM    2  C5  UNL     1      28.972   7.359  47.504  1.00  0.00     0.006 C 
HETATM    3  C6  UNL     1      28.530   7.901  46.218  1.00  0.00     0.006 C 
HETATM    4  C7  UNL     1      29.630   8.306  45.217  1.00  0.00     0.062 C 
HETATM    5  C8  UNL     1      30.515   9.303  45.918  1.00  0.00     0.061 A 
HETATM    6  N2  UNL     1      29.825  10.378  45.804  1.00  0.00    -0.262 NA
HETATM    7  C9  UNL     1      30.110  11.526  46.633  1.00  0.00     0.134 A 
HETATM    8  C10 UNL     1      31.138  11.261  47.490  1.00  0.00     0.110 A 
HETATM    9  N3  UNL     1      31.539   9.981  47.218  1.00  0.00    -0.353 N 
HETATM   10  C11 UNL     1      31.866   9.448  48.568  1.00  0.00     0.129 C 
HETATM   11  C12 UNL     1      30.711   9.665  49.538  1.00  0.00     0.021 C 
HETATM   12  C13 UNL     1      29.353   9.312  49.212  1.00  0.00     0.008 C 
HETATM   13  C14 UNL     1      31.576   8.739  46.608  1.00  0.00     0.068 A 
HETATM   14  C15 UNL     1      32.224   7.673  46.722  1.00  0.00     0.001 C 
HETATM   15  C16 UNL     1      32.158   6.342  46.125  1.00  0.00     0.161 C 
HETATM   16  N4  UNL     1      32.504   5.507  47.326  1.00  0.00    -0.385 N 
HETATM   17  C17 UNL     1      33.661   6.188  47.758  1.00  0.00     0.039 A 
HETATM   18  C18 UNL     1      34.800   5.706  48.425  1.00  0.00     0.030 A 
HETATM   19  C19 UNL     1      35.852   6.576  48.750  1.00  0.00     0.002 A 
HETATM   20  C20 UNL     1      35.745   7.892  48.408  1.00  0.00     0.001 A 
HETATM   21  C21 UNL     1      34.615   8.369  47.747  1.00  0.00     0.014 A 
HETATM   22  C22 UNL     1      33.544   7.503  47.414  1.00  0.00     0.001 A 
HETATM   23  H26 UNL     1      32.061   4.661  47.762  1.00  0.00     0.160 HD
ENDROOT
BRANCH   1  24
HETATM   24  C3  UNL     1      27.160   8.253  48.892  1.00  0.00     0.274 C 
BRANCH  24  25
HETATM   25  N1  UNL     1      26.744   7.306  49.900  1.00  0.00     0.083 N 
HETATM   26  H6  UNL     1      26.801   7.688  50.867  1.00  0.00     0.315 HD
BRANCH  25  27
HETATM   27  C2  UNL     1      25.432   6.797  49.638  1.00  0.00     0.265 C 
HETATM   28  C1  UNL     1      25.077   6.829  48.175  1.00  0.00     0.037 C 
ENDBRANCH  25  27
ENDBRANCH  24  25
ENDBRANCH   1  24
TORSDOF 3
ENDMDL
MODEL 8
REMARK VINA RESULT:      -6.5      2.115      4.664
REMARK  3 active torsions:
REMARK  status: ('A' for Active; 'I' for Inactive)
REMARK    1  A    between atoms: C2_2  and  N1_3 
REMARK    2  A    between atoms: N1_3  and  C3_4 
REMARK    3  A    between atoms: C3_4  and  C4_5 
ROOT
HETATM    1  C4  UNL     1      24.482   2.438  50.734  1.00  0.00     0.014 C 
HETATM    2  C5  UNL     1      23.877   2.736  52.054  1.00  0.00     0.006 C 
HETATM    3  C6  UNL     1      23.958   4.066  52.660  1.00  0.00     0.006 C 
HETATM    4  C7  UNL     1      22.637   4.846  52.809  1.00  0.00     0.062 C 
HETATM    5  C8  UNL     1      22.029   4.944  51.435  1.00  0.00     0.061 A 
HETATM    6  N2  UNL     1      22.701   5.912  50.929  1.00  0.00    -0.262 NA
HETATM    7  C9  UNL     1      22.711   6.134  49.501  1.00  0.00     0.134 A 
HETATM    8  C10 UNL     1      21.959   5.194  48.861  1.00  0.00     0.110 A 
HETATM    9  N3  UNL     1      21.444   4.386  49.839  1.00  0.00    -0.353 N 
HETATM   10  C11 UNL     1      21.493   3.040  49.209  1.00  0.00     0.129 C 
HETATM   11  C12 UNL     1      22.884   2.738  48.664  1.00  0.00     0.021 C 
HETATM   12  C13 UNL     1      24.078   2.932  49.446  1.00  0.00     0.008 C 
HETATM   13  C14 UNL     1      21.185   3.895  51.106  1.00  0.00     0.068 A 
HETATM   14  C15 UNL     1      20.553   2.941  51.616  1.00  0.00     0.001 C 
HETATM   15  C16 UNL     1      20.392   2.394  52.960  1.00  0.00     0.161 C 
HETATM   16  N4  UNL     1      20.368   0.926  52.637  1.00  0.00    -0.385 N 
HETATM   17  C17 UNL     1      19.410   0.931  51.601  1.00  0.00     0.039 A 
HETATM   18  C18 UNL     1      18.489  -0.057  51.214  1.00  0.00     0.030 A 
HETATM   19  C19 UNL     1      17.609   0.175  50.146  1.00  0.00     0.002 A 
HETATM   20  C20 UNL     1      17.668   1.372  49.494  1.00  0.00     0.001 A 
HETATM   21  C21 UNL     1      18.583   2.350  49.878  1.00  0.00     0.014 A 
HETATM   22  C22 UNL     1      19.478   2.130  50.954  1.00  0.00     0.001 A 
HETATM   23  H26 UNL     1      20.882   0.097  53.027  1.00  0.00     0.160 HD
ENDROOT
BRANCH   1  24
HETATM   24  C3  UNL     1      26.045   2.753  50.907  1.00  0.00     0.274 C 
BRANCH  24  25
HETATM   25  N1  UNL     1      26.616   1.552  51.472  1.00  0.00     0.083 N 
HETATM   26  H6  UNL     1      27.126   0.975  50.771  1.00  0.00     0.315 HD
BRANCH  25  27
HETATM   27  C2  UNL     1      27.460   1.846  52.591  1.00  0.00     0.265 C 
HETATM   28  C1  UNL     1      26.855   1.425  53.903  1.00  0.00     0.037 C 
ENDBRANCH  25  27
ENDBRANCH  24  25
ENDBRANCH   1  24
TORSDOF 3
ENDMDL
MODEL 9
REMARK VINA RESULT:      -6.5      1.860      2.461
REMARK  3 active torsions:
REMARK  status: ('A' for Active; 'I' for Inactive)
REMARK    1  A    between atoms: C2_2  and  N1_3 
REMARK    2  A    between atoms: N1_3  and  C3_4 
REMARK    3  A    between atoms: C3_4  and  C4_5 
ROOT
HETATM    1  C4  UNL     1      20.423   5.732  50.156  1.00  0.00     0.014 C 
HETATM    2  C5  UNL     1      20.410   4.722  49.072  1.00  0.00     0.006 C 
HETATM    3  C6  UNL     1      21.068   4.957  47.785  1.00  0.00     0.006 C 
HETATM    4  C7  UNL     1      22.291   4.078  47.457  1.00  0.00     0.062 C 
HETATM    5  C8  UNL     1      23.277   4.262  48.580  1.00  0.00     0.061 A 
HETATM    6  N2  UNL     1      23.822   5.378  48.258  1.00  0.00    -0.262 NA
HETATM    7  C9  UNL     1      24.582   6.132  49.227  1.00  0.00     0.134 A 
HETATM    8  C10 UNL     1      24.587   5.500  50.436  1.00  0.00     0.110 A 
HETATM    9  N3  UNL     1      23.871   4.346  50.265  1.00  0.00    -0.353 N 
HETATM   10  C11 UNL     1      23.140   4.222  51.554  1.00  0.00     0.129 C 
HETATM   11  C12 UNL     1      22.392   5.508  51.888  1.00  0.00     0.021 C 
HETATM   12  C13 UNL     1      21.547   6.178  50.934  1.00  0.00     0.008 C 
HETATM   13  C14 UNL     1      23.121   3.371  49.630  1.00  0.00     0.068 A 
HETATM   14  C15 UNL     1      22.563   2.292  49.933  1.00  0.00     0.001 C 
HETATM   15  C16 UNL     1      21.687   1.342  49.254  1.00  0.00     0.161 C 
HETATM   16  N4  UNL     1      20.778   0.973  50.393  1.00  0.00    -0.385 N 
HETATM   17  C17 UNL     1      21.745   0.682  51.377  1.00  0.00     0.039 A 
HETATM   18  C18 UNL     1      21.701  -0.223  52.451  1.00  0.00     0.030 A 
HETATM   19  C19 UNL     1      22.803  -0.358  53.309  1.00  0.00     0.002 A 
HETATM   20  C20 UNL     1      23.911   0.405  53.081  1.00  0.00     0.001 A 
HETATM   21  C21 UNL     1      23.952   1.303  52.017  1.00  0.00     0.014 A 
HETATM   22  C22 UNL     1      22.847   1.451  51.143  1.00  0.00     0.001 A 
HETATM   23  H26 UNL     1      19.734   0.925  50.490  1.00  0.00     0.160 HD
ENDROOT
BRANCH   1  24
HETATM   24  C3  UNL     1      19.721   7.031  49.528  1.00  0.00     0.274 C 
BRANCH  24  25
HETATM   25  N1  UNL     1      20.498   8.152  50.003  1.00  0.00     0.083 N 
HETATM   26  H6  UNL     1      21.518   7.946  50.062  1.00  0.00     0.315 HD
BRANCH  25  27
HETATM   27  C2  UNL     1      20.268   9.325  49.215  1.00  0.00     0.265 C 
HETATM   28  C1  UNL     1      19.849   9.007  47.805  1.00  0.00     0.037 C 
ENDBRANCH  25  27
ENDBRANCH  24  25
ENDBRANCH   1  24
TORSDOF 3
ENDMDL
