MODEL 1
REMARK VINA RESULT:      -7.6      0.000      0.000
REMARK  6 active torsions:
REMARK  status: ('A' for Active; 'I' for Inactive)
REMARK    1  A    between atoms: C1_2  and  C2_3 
REMARK       I    between atoms: C1_2  and  N2_16 
REMARK    2  A    between atoms: C5_6  and  N1_7 
REMARK    3  A    between atoms: N1_7  and  C6_8 
REMARK    4  A    between atoms: N1_7  and  C8_11 
REMARK    5  A    between atoms: C6_8  and  C7_9 
REMARK    6  A    between atoms: C8_11  and  C9_12 
ROOT
HETATM    1  C2  UNL     1      25.835   3.461  50.408  1.00  0.00     0.032 A 
HETATM    2  C3  UNL     1      24.543   2.967  50.406  1.00  0.00     0.019 A 
HETATM    3  C4  UNL     1      24.176   1.920  51.213  1.00  0.00     0.030 A 
HETATM    4  C5  UNL     1      25.033   1.285  52.074  1.00  0.00     0.030 A 
HETATM    5  C10 UNL     1      26.297   1.794  52.055  1.00  0.00     0.030 A 
HETATM    6  C11 UNL     1      26.738   2.837  51.275  1.00  0.00     0.019 A 
ENDROOT
BRANCH   1   7
HETATM    7  C1  UNL     1      26.424   4.540  49.621  1.00  0.00     0.254 C 
HETATM    8  O1  UNL     1      27.378   4.037  48.948  1.00  0.00    -0.267 OA
HETATM    9  N2  UNL     1      26.038   5.904  49.582  1.00  0.00    -0.332 N 
HETATM   10  C12 UNL     1      24.954   6.246  50.458  1.00  0.00     0.154 C 
HETATM   11  C20 UNL     1      26.663   6.850  48.708  1.00  0.00     0.143 A 
HETATM   12  C13 UNL     1      24.643   7.709  50.484  1.00  0.00    -0.007 C 
HETATM   13  C14 UNL     1      25.440   8.647  49.978  1.00  0.00     0.007 C 
HETATM   14  C15 UNL     1      26.694   8.173  49.364  1.00  0.00    -0.035 A 
HETATM   15  C16 UNL     1      27.734   8.993  49.454  1.00  0.00    -0.014 A 
HETATM   16  C17 UNL     1      29.064   8.641  48.877  1.00  0.00     0.054 A 
HETATM   17  C18 UNL     1      29.020   7.298  48.234  1.00  0.00    -0.025 A 
HETATM   18  C19 UNL     1      27.959   6.466  48.139  1.00  0.00    -0.001 A 
ENDBRANCH   1   7
BRANCH   4  19
HETATM   19  N1  UNL     1      24.533   0.216  52.859  1.00  0.00    -0.379 N 
BRANCH  19  20
HETATM   20  C6  UNL     1      25.418  -0.657  53.604  1.00  0.00     0.138 C 
BRANCH  20  21
HETATM   21  C7  UNL     1      26.381  -1.442  52.756  1.00  0.00     0.134 C 
HETATM   22 CL1  UNL     1      28.068  -1.147  53.158  1.00  0.00    -0.129 Cl
ENDBRANCH  20  21
ENDBRANCH  19  20
BRANCH  19  23
HETATM   23  C8  UNL     1      23.252  -0.321  53.167  1.00  0.00     0.138 C 
BRANCH  23  24
HETATM   24  C9  UNL     1      23.036  -0.928  54.514  1.00  0.00     0.134 C 
HETATM   25 CL2  UNL     1      21.365  -1.641  54.525  1.00  0.00    -0.129 Cl
ENDBRANCH  23  24
ENDBRANCH  19  23
ENDBRANCH   4  19
TORSDOF 6
ENDMDL
MODEL 2
REMARK VINA RESULT:      -7.6      0.828      2.125
REMARK  6 active torsions:
REMARK  status: ('A' for Active; 'I' for Inactive)
REMARK    1  A    between atoms: C1_2  and  C2_3 
REMARK       I    between atoms: C1_2  and  N2_16 
REMARK    2  A    between atoms: C5_6  and  N1_7 
REMARK    3  A    between atoms: N1_7  and  C6_8 
REMARK    4  A    between atoms: N1_7  and  C8_11 
REMARK    5  A    between atoms: C6_8  and  C7_9 
REMARK    6  A    between atoms: C8_11  and  C9_12 
ROOT
HETATM    1  C2  UNL     1      25.823   3.555  50.337  1.00  0.00     0.032 A 
HETATM    2  C3  UNL     1      24.486   3.205  50.398  1.00  0.00     0.019 A 
HETATM    3  C4  UNL     1      24.049   2.190  51.210  1.00  0.00     0.030 A 
HETATM    4  C5  UNL     1      24.874   1.449  52.016  1.00  0.00     0.030 A 
HETATM    5  C10 UNL     1      26.183   1.817  51.935  1.00  0.00     0.030 A 
HETATM    6  C11 UNL     1      26.696   2.820  51.147  1.00  0.00     0.019 A 
ENDROOT
BRANCH   1   7
HETATM    7  C1  UNL     1      26.486   4.577  49.534  1.00  0.00     0.254 C 
HETATM    8  O1  UNL     1      27.400   3.999  48.866  1.00  0.00    -0.267 OA
HETATM    9  N2  UNL     1      26.198   5.966  49.475  1.00  0.00    -0.332 N 
HETATM   10  C12 UNL     1      25.144   6.396  50.349  1.00  0.00     0.154 C 
HETATM   11  C20 UNL     1      26.888   6.852  48.587  1.00  0.00     0.143 A 
HETATM   12  C13 UNL     1      24.939   7.878  50.354  1.00  0.00    -0.007 C 
HETATM   13  C14 UNL     1      25.800   8.749  49.833  1.00  0.00     0.007 C 
HETATM   14  C15 UNL     1      27.015   8.179  49.224  1.00  0.00    -0.035 A 
HETATM   15  C16 UNL     1      28.112   8.922  49.300  1.00  0.00    -0.014 A 
HETATM   16  C17 UNL     1      29.411   8.468  48.726  1.00  0.00     0.054 A 
HETATM   17  C18 UNL     1      29.270   7.122  48.102  1.00  0.00    -0.025 A 
HETATM   18  C19 UNL     1      28.151   6.367  48.022  1.00  0.00    -0.001 A 
ENDBRANCH   1   7
BRANCH   4  19
HETATM   19  N1  UNL     1      24.300   0.426  52.813  1.00  0.00    -0.379 N 
BRANCH  19  20
HETATM   20  C6  UNL     1      22.915   0.480  53.232  1.00  0.00     0.138 C 
BRANCH  20  21
HETATM   21  C7  UNL     1      22.123  -0.765  52.936  1.00  0.00     0.134 C 
HETATM   22 CL1  UNL     1      21.315  -1.432  54.349  1.00  0.00    -0.129 Cl
ENDBRANCH  20  21
ENDBRANCH  19  20
BRANCH  19  23
HETATM   23  C8  UNL     1      24.746  -0.791  53.399  1.00  0.00     0.138 C 
BRANCH  23  24
HETATM   24  C9  UNL     1      25.091  -0.800  54.852  1.00  0.00     0.134 C 
HETATM   25 CL2  UNL     1      26.613   0.172  55.053  1.00  0.00    -0.129 Cl
ENDBRANCH  23  24
ENDBRANCH  19  23
ENDBRANCH   4  19
TORSDOF 6
ENDMDL
MODEL 3
REMARK VINA RESULT:      -7.6      1.866      2.753
REMARK  6 active torsions:
REMARK  status: ('A' for Active; 'I' for Inactive)
REMARK    1  A    between atoms: C1_2  and  C2_3 
REMARK       I    between atoms: C1_2  and  N2_16 
REMARK    2  A    between atoms: C5_6  and  N1_7 
REMARK    3  A    between atoms: N1_7  and  C6_8 
REMARK    4  A    between atoms: N1_7  and  C8_11 
REMARK    5  A    between atoms: C6_8  and  C7_9 
REMARK    6  A    between atoms: C8_11  and  C9_12 
ROOT
HETATM    1  C2  UNL     1      24.004   3.686  51.388  1.00  0.00     0.032 A 
HETATM    2  C3  UNL     1      23.434   2.599  50.751  1.00  0.00     0.019 A 
HETATM    3  C4  UNL     1      23.287   1.393  51.388  1.00  0.00     0.030 A 
HETATM    4  C5  UNL     1      23.678   1.161  52.681  1.00  0.00     0.030 A 
HETATM    5  C10 UNL     1      24.235   2.249  53.282  1.00  0.00     0.030 A 
HETATM    6  C11 UNL     1      24.417   3.486  52.710  1.00  0.00     0.019 A 
ENDROOT
BRANCH   1   7
HETATM    7  C1  UNL     1      24.267   5.031  50.887  1.00  0.00     0.254 C 
HETATM    8  O1  UNL     1      23.308   5.771  51.273  1.00  0.00    -0.267 OA
HETATM    9  N2  UNL     1      25.371   5.476  50.115  1.00  0.00    -0.332 N 
HETATM   10  C12 UNL     1      26.312   4.449  49.768  1.00  0.00     0.154 C 
HETATM   11  C20 UNL     1      25.541   6.849  49.745  1.00  0.00     0.143 A 
HETATM   12  C13 UNL     1      27.403   4.920  48.859  1.00  0.00    -0.007 C 
HETATM   13  C14 UNL     1      27.377   6.078  48.205  1.00  0.00     0.007 C 
HETATM   14  C15 UNL     1      26.185   6.919  48.417  1.00  0.00    -0.035 A 
HETATM   15  C16 UNL     1      25.809   7.670  47.390  1.00  0.00    -0.014 A 
HETATM   16  C17 UNL     1      24.621   8.569  47.466  1.00  0.00     0.054 A 
HETATM   17  C18 UNL     1      23.974   8.474  48.805  1.00  0.00    -0.025 A 
HETATM   18  C19 UNL     1      24.360   7.711  49.852  1.00  0.00    -0.001 A 
ENDBRANCH   1   7
BRANCH   4  19
HETATM   19  N1  UNL     1      23.469  -0.130  53.229  1.00  0.00    -0.379 N 
BRANCH  19  20
HETATM   20  C6  UNL     1      24.472  -0.776  54.050  1.00  0.00     0.138 C 
BRANCH  20  21
HETATM   21  C7  UNL     1      25.828  -0.891  53.408  1.00  0.00     0.134 C 
HETATM   22 CL1  UNL     1      27.067   0.060  54.217  1.00  0.00    -0.129 Cl
ENDBRANCH  20  21
ENDBRANCH  19  20
BRANCH  19  23
HETATM   23  C8  UNL     1      22.430  -1.101  53.203  1.00  0.00     0.138 C 
BRANCH  23  24
HETATM   24  C9  UNL     1      21.477  -1.160  54.351  1.00  0.00     0.134 C 
HETATM   25 CL2  UNL     1      20.629   0.445  54.434  1.00  0.00    -0.129 Cl
ENDBRANCH  23  24
ENDBRANCH  19  23
ENDBRANCH   4  19
TORSDOF 6
ENDMDL
MODEL 4
REMARK VINA RESULT:      -7.5      3.285      8.679
REMARK  6 active torsions:
REMARK  status: ('A' for Active; 'I' for Inactive)
REMARK    1  A    between atoms: C1_2  and  C2_3 
REMARK       I    between atoms: C1_2  and  N2_16 
REMARK    2  A    between atoms: C5_6  and  N1_7 
REMARK    3  A    between atoms: N1_7  and  C6_8 
REMARK    4  A    between atoms: N1_7  and  C8_11 
REMARK    5  A    between atoms: C6_8  and  C7_9 
REMARK    6  A    between atoms: C8_11  and  C9_12 
ROOT
HETATM    1  C2  UNL     1      24.322   3.148  50.661  1.00  0.00     0.032 A 
HETATM    2  C3  UNL     1      25.336   3.180  49.722  1.00  0.00     0.019 A 
HETATM    3  C4  UNL     1      25.917   4.361  49.337  1.00  0.00     0.030 A 
HETATM    4  C5  UNL     1      25.557   5.586  49.835  1.00  0.00     0.030 A 
HETATM    5  C10 UNL     1      24.557   5.522  50.758  1.00  0.00     0.030 A 
HETATM    6  C11 UNL     1      23.927   4.380  51.193  1.00  0.00     0.019 A 
ENDROOT
BRANCH   1   7
HETATM    7  C1  UNL     1      23.568   2.013  51.186  1.00  0.00     0.254 C 
HETATM    8  O1  UNL     1      22.395   2.083  50.702  1.00  0.00    -0.267 OA
HETATM    9  N2  UNL     1      24.020   0.997  52.068  1.00  0.00    -0.332 N 
HETATM   10  C12 UNL     1      25.376   1.148  52.511  1.00  0.00     0.154 C 
HETATM   11  C20 UNL     1      23.190  -0.104  52.453  1.00  0.00     0.143 A 
HETATM   12  C13 UNL     1      25.790   0.132  53.529  1.00  0.00    -0.007 C 
HETATM   13  C14 UNL     1      24.939  -0.661  54.175  1.00  0.00     0.007 C 
HETATM   14  C15 UNL     1      23.513  -0.496  53.840  1.00  0.00    -0.035 A 
HETATM   15  C16 UNL     1      22.650  -0.727  54.822  1.00  0.00    -0.014 A 
HETATM   16  C17 UNL     1      21.178  -0.599  54.622  1.00  0.00     0.054 A 
HETATM   17  C18 UNL     1      20.870  -0.187  53.223  1.00  0.00    -0.025 A 
HETATM   18  C19 UNL     1      21.749   0.044  52.223  1.00  0.00    -0.001 A 
ENDBRANCH   1   7
BRANCH   4  19
HETATM   19  N1  UNL     1      26.236   6.736  49.359  1.00  0.00    -0.379 N 
BRANCH  19  20
HETATM   20  C6  UNL     1      26.242   7.977  50.107  1.00  0.00     0.138 C 
BRANCH  20  21
HETATM   21  C7  UNL     1      25.463   9.096  49.470  1.00  0.00     0.134 C 
HETATM   22 CL1  UNL     1      23.748   8.746  49.302  1.00  0.00    -0.129 Cl
ENDBRANCH  20  21
ENDBRANCH  19  20
BRANCH  19  23
HETATM   23  C8  UNL     1      27.009   7.071  48.213  1.00  0.00     0.138 C 
BRANCH  23  24
HETATM   24  C9  UNL     1      28.497   7.100  48.338  1.00  0.00     0.134 C 
HETATM   25 CL2  UNL     1      29.092   5.397  48.123  1.00  0.00    -0.129 Cl
ENDBRANCH  23  24
ENDBRANCH  19  23
ENDBRANCH   4  19
TORSDOF 6
ENDMDL
MODEL 5
REMARK VINA RESULT:      -7.3      2.009      3.749
REMARK  6 active torsions:
REMARK  status: ('A' for Active; 'I' for Inactive)
REMARK    1  A    between atoms: C1_2  and  C2_3 
REMARK       I    between atoms: C1_2  and  N2_16 
REMARK    2  A    between atoms: C5_6  and  N1_7 
REMARK    3  A    between atoms: N1_7  and  C6_8 
REMARK    4  A    between atoms: N1_7  and  C8_11 
REMARK    5  A    between atoms: C6_8  and  C7_9 
REMARK    6  A    between atoms: C8_11  and  C9_12 
ROOT
HETATM    1  C2  UNL     1      23.780   3.843  51.425  1.00  0.00     0.032 A 
HETATM    2  C3  UNL     1      23.399   2.666  50.807  1.00  0.00     0.019 A 
HETATM    3  C4  UNL     1      23.470   1.461  51.457  1.00  0.00     0.030 A 
HETATM    4  C5  UNL     1      23.911   1.315  52.747  1.00  0.00     0.030 A 
HETATM    5  C10 UNL     1      24.278   2.491  53.330  1.00  0.00     0.030 A 
HETATM    6  C11 UNL     1      24.236   3.734  52.744  1.00  0.00     0.019 A 
ENDROOT
BRANCH   1   7
HETATM    7  C1  UNL     1      23.799   5.208  50.908  1.00  0.00     0.254 C 
HETATM    8  O1  UNL     1      22.737   5.778  51.308  1.00  0.00    -0.267 OA
HETATM    9  N2  UNL     1      24.796   5.824  50.108  1.00  0.00    -0.332 N 
HETATM   10  C12 UNL     1      25.891   4.968  49.749  1.00  0.00     0.154 C 
HETATM   11  C20 UNL     1      24.722   7.201  49.723  1.00  0.00     0.143 A 
HETATM   12  C13 UNL     1      26.867   5.606  48.812  1.00  0.00    -0.007 C 
HETATM   13  C14 UNL     1      26.631   6.736  48.149  1.00  0.00     0.007 C 
HETATM   14  C15 UNL     1      25.318   7.365  48.381  1.00  0.00    -0.035 A 
HETATM   15  C16 UNL     1      24.798   8.029  47.356  1.00  0.00    -0.014 A 
HETATM   16  C17 UNL     1      23.476   8.714  47.451  1.00  0.00     0.054 A 
HETATM   17  C18 UNL     1      22.883   8.526  48.804  1.00  0.00    -0.025 A 
HETATM   18  C19 UNL     1      23.414   7.852  49.849  1.00  0.00    -0.001 A 
ENDBRANCH   1   7
BRANCH   4  19
HETATM   19  N1  UNL     1      23.934   0.014  53.310  1.00  0.00    -0.379 N 
BRANCH  19  20
HETATM   20  C6  UNL     1      22.764  -0.840  53.295  1.00  0.00     0.138 C 
BRANCH  20  21
HETATM   21  C7  UNL     1      21.918  -0.765  54.536  1.00  0.00     0.134 C 
HETATM   22 CL1  UNL     1      20.715   0.517  54.486  1.00  0.00    -0.129 Cl
ENDBRANCH  20  21
ENDBRANCH  19  20
BRANCH  19  23
HETATM   23  C8  UNL     1      24.893  -0.800  53.974  1.00  0.00     0.138 C 
BRANCH  23  24
HETATM   24  C9  UNL     1      26.340  -0.455  53.840  1.00  0.00     0.134 C 
HETATM   25 CL2  UNL     1      26.785  -0.661  52.090  1.00  0.00    -0.129 Cl
ENDBRANCH  23  24
ENDBRANCH  19  23
ENDBRANCH   4  19
TORSDOF 6
ENDMDL
MODEL 6
REMARK VINA RESULT:      -7.3      3.516      8.615
REMARK  6 active torsions:
REMARK  status: ('A' for Active; 'I' for Inactive)
REMARK    1  A    between atoms: C1_2  and  C2_3 
REMARK       I    between atoms: C1_2  and  N2_16 
REMARK    2  A    between atoms: C5_6  and  N1_7 
REMARK    3  A    between atoms: N1_7  and  C6_8 
REMARK    4  A    between atoms: N1_7  and  C8_11 
REMARK    5  A    between atoms: C6_8  and  C7_9 
REMARK    6  A    between atoms: C8_11  and  C9_12 
ROOT
HETATM    1  C2  UNL     1      23.380   3.705  50.876  1.00  0.00     0.032 A 
HETATM    2  C3  UNL     1      23.687   4.864  51.565  1.00  0.00     0.019 A 
HETATM    3  C4  UNL     1      24.268   5.936  50.938  1.00  0.00     0.030 A 
HETATM    4  C5  UNL     1      24.590   5.958  49.605  1.00  0.00     0.030 A 
HETATM    5  C10 UNL     1      24.275   4.803  48.954  1.00  0.00     0.030 A 
HETATM    6  C11 UNL     1      23.694   3.689  49.513  1.00  0.00     0.019 A 
ENDROOT
BRANCH   1   7
HETATM    7  C1  UNL     1      22.786   2.461  51.357  1.00  0.00     0.254 C 
HETATM    8  O1  UNL     1      21.528   2.561  51.206  1.00  0.00    -0.267 OA
HETATM    9  N2  UNL     1      23.448   1.328  51.896  1.00  0.00    -0.332 N 
HETATM   10  C12 UNL     1      24.873   1.460  52.002  1.00  0.00     0.154 C 
HETATM   11  C20 UNL     1      22.745   0.138  52.269  1.00  0.00     0.143 A 
HETATM   12  C13 UNL     1      25.533   0.301  52.679  1.00  0.00    -0.007 C 
HETATM   13  C14 UNL     1      24.876  -0.632  53.363  1.00  0.00     0.007 C 
HETATM   14  C15 UNL     1      23.412  -0.478  53.434  1.00  0.00    -0.035 A 
HETATM   15  C16 UNL     1      22.830  -0.919  54.542  1.00  0.00    -0.014 A 
HETATM   16  C17 UNL     1      21.355  -0.826  54.747  1.00  0.00     0.054 A 
HETATM   17  C18 UNL     1      20.700  -0.188  53.571  1.00  0.00    -0.025 A 
HETATM   18  C19 UNL     1      21.293   0.257  52.440  1.00  0.00    -0.001 A 
ENDBRANCH   1   7
BRANCH   4  19
HETATM   19  N1  UNL     1      25.186   7.128  49.072  1.00  0.00    -0.379 N 
BRANCH  19  20
HETATM   20  C6  UNL     1      26.601   7.396  49.226  1.00  0.00     0.138 C 
BRANCH  20  21
HETATM   21  C7  UNL     1      27.475   6.771  48.172  1.00  0.00     0.134 C 
HETATM   22 CL1  UNL     1      27.906   5.102  48.520  1.00  0.00    -0.129 Cl
ENDBRANCH  20  21
ENDBRANCH  19  20
BRANCH  19  23
HETATM   23  C8  UNL     1      24.743   8.264  48.339  1.00  0.00     0.138 C 
BRANCH  23  24
HETATM   24  C9  UNL     1      23.969   8.045  47.080  1.00  0.00     0.134 C 
HETATM   25 CL2  UNL     1      25.143   8.149  45.698  1.00  0.00    -0.129 Cl
ENDBRANCH  23  24
ENDBRANCH  19  23
ENDBRANCH   4  19
TORSDOF 6
ENDMDL
MODEL 7
REMARK VINA RESULT:      -7.2      3.267      8.345
REMARK  6 active torsions:
REMARK  status: ('A' for Active; 'I' for Inactive)
REMARK    1  A    between atoms: C1_2  and  C2_3 
REMARK       I    between atoms: C1_2  and  N2_16 
REMARK    2  A    between atoms: C5_6  and  N1_7 
REMARK    3  A    between atoms: N1_7  and  C6_8 
REMARK    4  A    between atoms: N1_7  and  C8_11 
REMARK    5  A    between atoms: C6_8  and  C7_9 
REMARK    6  A    between atoms: C8_11  and  C9_12 
ROOT
HETATM    1  C2  UNL     1      24.058   2.938  51.029  1.00  0.00     0.032 A 
HETATM    2  C3  UNL     1      24.517   3.175  49.747  1.00  0.00     0.019 A 
HETATM    3  C4  UNL     1      24.723   4.450  49.285  1.00  0.00     0.030 A 
HETATM    4  C5  UNL     1      24.499   5.577  50.033  1.00  0.00     0.030 A 
HETATM    5  C10 UNL     1      24.047   5.311  51.291  1.00  0.00     0.030 A 
HETATM    6  C11 UNL     1      23.817   4.065  51.823  1.00  0.00     0.019 A 
ENDROOT
BRANCH   1   7
HETATM    7  C1  UNL     1      23.759   1.674  51.696  1.00  0.00     0.254 C 
HETATM    8  O1  UNL     1      22.505   1.487  51.606  1.00  0.00    -0.267 OA
HETATM    9  N2  UNL     1      24.665   0.788  52.335  1.00  0.00    -0.332 N 
HETATM   10  C12 UNL     1      26.030   1.230  52.343  1.00  0.00     0.154 C 
HETATM   11  C20 UNL     1      24.244  -0.460  52.896  1.00  0.00     0.143 A 
HETATM   12  C13 UNL     1      26.944   0.337  53.121  1.00  0.00    -0.007 C 
HETATM   13  C14 UNL     1      26.523  -0.612  53.954  1.00  0.00     0.007 C 
HETATM   14  C15 UNL     1      25.062  -0.759  54.089  1.00  0.00    -0.035 A 
HETATM   15  C16 UNL     1      24.621  -1.157  55.276  1.00  0.00    -0.014 A 
HETATM   16  C17 UNL     1      23.168  -1.348  55.551  1.00  0.00     0.054 A 
HETATM   17  C18 UNL     1      22.357  -1.027  54.344  1.00  0.00    -0.025 A 
HETATM   18  C19 UNL     1      22.807  -0.625  53.134  1.00  0.00    -0.001 A 
ENDBRANCH   1   7
BRANCH   4  19
HETATM   19  N1  UNL     1      24.752   6.841  49.443  1.00  0.00    -0.379 N 
BRANCH  19  20
HETATM   20  C6  UNL     1      25.984   7.561  49.694  1.00  0.00     0.138 C 
BRANCH  20  21
HETATM   21  C7  UNL     1      26.939   7.592  48.531  1.00  0.00     0.134 C 
HETATM   22 CL1  UNL     1      27.795   6.075  48.290  1.00  0.00    -0.129 Cl
ENDBRANCH  20  21
ENDBRANCH  19  20
BRANCH  19  23
HETATM   23  C8  UNL     1      24.060   7.724  48.568  1.00  0.00     0.138 C 
BRANCH  23  24
HETATM   24  C9  UNL     1      22.574   7.611  48.467  1.00  0.00     0.134 C 
HETATM   25 CL2  UNL     1      21.889   7.990  50.107  1.00  0.00    -0.129 Cl
ENDBRANCH  23  24
ENDBRANCH  19  23
ENDBRANCH   4  19
TORSDOF 6
ENDMDL
MODEL 8
REMARK VINA RESULT:      -7.2      4.344      8.546
REMARK  6 active torsions:
REMARK  status: ('A' for Active; 'I' for Inactive)
REMARK    1  A    between atoms: C1_2  and  C2_3 
REMARK       I    between atoms: C1_2  and  N2_16 
REMARK    2  A    between atoms: C5_6  and  N1_7 
REMARK    3  A    between atoms: N1_7  and  C6_8 
REMARK    4  A    between atoms: N1_7  and  C8_11 
REMARK    5  A    between atoms: C6_8  and  C7_9 
REMARK    6  A    between atoms: C8_11  and  C9_12 
ROOT
HETATM    1  C2  UNL     1      25.389   4.403  49.908  1.00  0.00     0.032 A 
HETATM    2  C3  UNL     1      26.560   3.839  49.435  1.00  0.00     0.019 A 
HETATM    3  C4  UNL     1      27.508   4.594  48.793  1.00  0.00     0.030 A 
HETATM    4  C5  UNL     1      27.387   5.940  48.568  1.00  0.00     0.030 A 
HETATM    5  C10 UNL     1      26.225   6.467  49.046  1.00  0.00     0.030 A 
HETATM    6  C11 UNL     1      25.230   5.777  49.697  1.00  0.00     0.019 A 
ENDROOT
BRANCH   1   7
HETATM    7  C1  UNL     1      24.260   3.778  50.592  1.00  0.00     0.254 C 
HETATM    8  O1  UNL     1      24.397   4.010  51.834  1.00  0.00    -0.267 OA
HETATM    9  N2  UNL     1      23.190   3.044  50.018  1.00  0.00    -0.332 N 
HETATM   10  C12 UNL     1      23.269   2.881  48.595  1.00  0.00     0.154 C 
HETATM   11  C20 UNL     1      22.104   2.540  50.803  1.00  0.00     0.143 A 
HETATM   12  C13 UNL     1      22.193   2.008  48.031  1.00  0.00    -0.007 C 
HETATM   13  C14 UNL     1      21.404   1.231  48.769  1.00  0.00     0.007 C 
HETATM   14  C15 UNL     1      21.637   1.263  50.225  1.00  0.00    -0.035 A 
HETATM   15  C16 UNL     1      21.394   0.135  50.881  1.00  0.00    -0.014 A 
HETATM   16  C17 UNL     1      21.586   0.026  52.356  1.00  0.00     0.054 A 
HETATM   17  C18 UNL     1      22.072   1.317  52.920  1.00  0.00    -0.025 A 
HETATM   18  C19 UNL     1      22.316   2.466  52.252  1.00  0.00    -0.001 A 
ENDBRANCH   1   7
BRANCH   4  19
HETATM   19  N1  UNL     1      28.439   6.611  47.894  1.00  0.00    -0.379 N 
BRANCH  19  20
HETATM   20  C6  UNL     1      28.236   7.900  47.265  1.00  0.00     0.138 C 
BRANCH  20  21
HETATM   21  C7  UNL     1      28.826   8.024  45.887  1.00  0.00     0.134 C 
HETATM   22 CL1  UNL     1      27.662   8.531  44.670  1.00  0.00    -0.129 Cl
ENDBRANCH  20  21
ENDBRANCH  19  20
BRANCH  19  23
HETATM   23  C8  UNL     1      29.811   6.354  47.618  1.00  0.00     0.138 C 
BRANCH  23  24
HETATM   24  C9  UNL     1      30.730   6.077  48.761  1.00  0.00     0.134 C 
HETATM   25 CL2  UNL     1      31.375   7.676  49.336  1.00  0.00    -0.129 Cl
ENDBRANCH  23  24
ENDBRANCH  19  23
ENDBRANCH   4  19
TORSDOF 6
ENDMDL
MODEL 9
REMARK VINA RESULT:      -7.2      4.219      8.365
REMARK  6 active torsions:
REMARK  status: ('A' for Active; 'I' for Inactive)
REMARK    1  A    between atoms: C1_2  and  C2_3 
REMARK       I    between atoms: C1_2  and  N2_16 
REMARK    2  A    between atoms: C5_6  and  N1_7 
REMARK    3  A    between atoms: N1_7  and  C6_8 
REMARK    4  A    between atoms: N1_7  and  C8_11 
REMARK    5  A    between atoms: C6_8  and  C7_9 
REMARK    6  A    between atoms: C8_11  and  C9_12 
ROOT
HETATM    1  C2  UNL     1      25.420   4.478  49.837  1.00  0.00     0.032 A 
HETATM    2  C3  UNL     1      26.589   3.904  49.370  1.00  0.00     0.019 A 
HETATM    3  C4  UNL     1      27.555   4.653  48.750  1.00  0.00     0.030 A 
HETATM    4  C5  UNL     1      27.456   6.005  48.542  1.00  0.00     0.030 A 
HETATM    5  C10 UNL     1      26.295   6.541  49.012  1.00  0.00     0.030 A 
HETATM    6  C11 UNL     1      25.283   5.856  49.642  1.00  0.00     0.019 A 
ENDROOT
BRANCH   1   7
HETATM    7  C1  UNL     1      24.274   3.860  50.498  1.00  0.00     0.254 C 
HETATM    8  O1  UNL     1      24.387   4.092  51.742  1.00  0.00    -0.267 OA
HETATM    9  N2  UNL     1      23.211   3.132  49.904  1.00  0.00    -0.332 N 
HETATM   10  C12 UNL     1      23.318   2.967  48.482  1.00  0.00     0.154 C 
HETATM   11  C20 UNL     1      22.107   2.635  50.667  1.00  0.00     0.143 A 
HETATM   12  C13 UNL     1      22.249   2.100  47.898  1.00  0.00    -0.007 C 
HETATM   13  C14 UNL     1      21.441   1.328  48.621  1.00  0.00     0.007 C 
HETATM   14  C15 UNL     1      21.644   1.360  50.081  1.00  0.00    -0.035 A 
HETATM   15  C16 UNL     1      21.382   0.234  50.733  1.00  0.00    -0.014 A 
HETATM   16  C17 UNL     1      21.544   0.125  52.212  1.00  0.00     0.054 A 
HETATM   17  C18 UNL     1      22.026   1.413  52.784  1.00  0.00    -0.025 A 
HETATM   18  C19 UNL     1      22.289   2.561  52.120  1.00  0.00    -0.001 A 
ENDBRANCH   1   7
BRANCH   4  19
HETATM   19  N1  UNL     1      28.525   6.669  47.890  1.00  0.00    -0.379 N 
BRANCH  19  20
HETATM   20  C6  UNL     1      29.821   6.042  47.728  1.00  0.00     0.138 C 
BRANCH  20  21
HETATM   21  C7  UNL     1      30.847   6.453  48.749  1.00  0.00     0.134 C 
HETATM   22 CL1  UNL     1      32.304   5.468  48.712  1.00  0.00    -0.129 Cl
ENDBRANCH  20  21
ENDBRANCH  19  20
BRANCH  19  23
HETATM   23  C8  UNL     1      28.724   7.935  47.272  1.00  0.00     0.138 C 
BRANCH  23  24
HETATM   24  C9  UNL     1      29.093   7.974  45.825  1.00  0.00     0.134 C 
HETATM   25 CL2  UNL     1      27.601   8.436  44.898  1.00  0.00    -0.129 Cl
ENDBRANCH  23  24
ENDBRANCH  19  23
ENDBRANCH   4  19
TORSDOF 6
ENDMDL
