MODEL 1
REMARK VINA RESULT:      -8.5      0.000      0.000
REMARK  4 active torsions:
REMARK  status: ('A' for Active; 'I' for Inactive)
REMARK    1  A    between atoms: N1_1  and  C1_2 
REMARK    2  A    between atoms: C4_8  and  C5_9 
REMARK    3  A    between atoms: N5_10  and  C6_11 
REMARK    4  A    between atoms: C6_11  and  C7_12 
ROOT
HETATM    1  C1  UNL     1      21.348  -0.687  54.356  1.00  0.00     0.718 C 
HETATM    2  N2  UNL     1      21.593  -1.657  55.183  1.00  0.00     0.032 NA
HETATM    3  N3  UNL     1      22.946  -1.933  55.553  1.00  0.00    -0.208 N 
HETATM    4  N4  UNL     1      24.193  -1.488  55.904  1.00  0.00    -0.317 N 
HETATM    5  C2  UNL     1      24.739  -0.800  54.749  1.00  0.00     0.111 C 
HETATM    6  C3  UNL     1      24.356   0.001  53.816  1.00  0.00     0.221 A 
HETATM    7  C4  UNL     1      24.271   0.814  52.759  1.00  0.00    -0.001 A 
HETATM    8  C14 UNL     1      22.802   0.554  52.835  1.00  0.00     0.120 A 
HETATM    9  N6  UNL     1      22.685  -0.155  53.895  1.00  0.00    -0.179 N 
HETATM   10  H3  UNL     1      22.541  -2.862  55.488  1.00  0.00     0.210 HD
HETATM   11  H4  UNL     1      24.377  -1.675  56.801  1.00  0.00     0.181 HD
ENDROOT
BRANCH   7  12
HETATM   12  C5  UNL     1      24.850   1.365  51.867  1.00  0.00     0.093 C 
HETATM   13  N5  UNL     1      26.118   1.437  52.367  1.00  0.00    -0.394 N 
HETATM   14  H8  UNL     1      26.514   0.613  51.763  1.00  0.00     0.159 HD
BRANCH  13  15
HETATM   15  C6  UNL     1      27.422   1.586  52.932  1.00  0.00     0.158 C 
BRANCH  15  16
HETATM   16  C7  UNL     1      28.362   0.462  53.223  1.00  0.00    -0.030 A 
HETATM   17  C8  UNL     1      29.537   0.657  53.667  1.00  0.00     0.010 A 
HETATM   18  C9  UNL     1      30.098  -0.714  53.779  1.00  0.00     0.009 A 
HETATM   19  C10 UNL     1      29.175  -1.672  53.360  1.00  0.00    -0.044 A 
HETATM   20  C11 UNL     1      28.451  -2.848  53.009  1.00  0.00     0.067 A 
HETATM   21  C13 UNL     1      28.072  -0.913  52.989  1.00  0.00    -0.025 A 
HETATM   22  C12 UNL     1      27.305  -1.936  52.575  1.00  0.00    -0.010 A 
ENDBRANCH  15  16
ENDBRANCH  13  15
ENDBRANCH   7  12
BRANCH   1  23
HETATM   23  N1  UNL     1      19.919  -0.559  54.133  1.00  0.00    -0.231 N 
HETATM   24  H1  UNL     1      19.302  -0.480  53.225  1.00  0.00     0.174 HD
HETATM   25  H2  UNL     1      19.400  -0.697  55.006  1.00  0.00     0.174 HD
ENDBRANCH   1  23
TORSDOF 4
ENDMDL
MODEL 2
REMARK VINA RESULT:      -8.4      4.276      6.887
REMARK  4 active torsions:
REMARK  status: ('A' for Active; 'I' for Inactive)
REMARK    1  A    between atoms: N1_1  and  C1_2 
REMARK    2  A    between atoms: C4_8  and  C5_9 
REMARK    3  A    between atoms: N5_10  and  C6_11 
REMARK    4  A    between atoms: C6_11  and  C7_12 
ROOT
HETATM    1  C1  UNL     1      28.295  -0.969  53.240  1.00  0.00     0.718 C 
HETATM    2  N2  UNL     1      29.536  -0.724  53.530  1.00  0.00     0.032 NA
HETATM    3  N3  UNL     1      29.952   0.631  53.720  1.00  0.00    -0.208 N 
HETATM    4  N4  UNL     1      29.718   1.883  54.225  1.00  0.00    -0.317 N 
HETATM    5  C2  UNL     1      28.578   2.424  53.507  1.00  0.00     0.111 C 
HETATM    6  C3  UNL     1      27.439   2.037  53.048  1.00  0.00     0.221 A 
HETATM    7  C4  UNL     1      26.233   1.949  52.480  1.00  0.00    -0.001 A 
HETATM    8  C14 UNL     1      26.497   0.479  52.441  1.00  0.00     0.120 A 
HETATM    9  N6  UNL     1      27.613   0.366  53.062  1.00  0.00    -0.179 N 
HETATM   10  H3  UNL     1      30.748   0.221  53.242  1.00  0.00     0.210 HD
HETATM   11  H4  UNL     1      30.294   2.073  54.936  1.00  0.00     0.181 HD
ENDROOT
BRANCH   7  12
HETATM   12  C5  UNL     1      25.336   2.524  51.934  1.00  0.00     0.093 C 
HETATM   13  N5  UNL     1      25.912   2.863  50.743  1.00  0.00    -0.394 N 
HETATM   14  H8  UNL     1      25.415   2.078  50.161  1.00  0.00     0.159 HD
BRANCH  13  15
HETATM   15  C6  UNL     1      26.548   3.288  49.537  1.00  0.00     0.158 C 
BRANCH  15  16
HETATM   16  C7  UNL     1      26.621   4.702  49.059  1.00  0.00    -0.030 A 
HETATM   17  C8  UNL     1      25.603   5.463  49.034  1.00  0.00     0.010 A 
HETATM   18  C9  UNL     1      26.132   6.733  48.475  1.00  0.00     0.009 A 
HETATM   19  C10 UNL     1      27.493   6.626  48.182  1.00  0.00    -0.044 A 
HETATM   20  C11 UNL     1      28.853   6.809  47.800  1.00  0.00     0.067 A 
HETATM   21  C13 UNL     1      27.795   5.319  48.542  1.00  0.00    -0.025 A 
HETATM   22  C12 UNL     1      29.087   5.346  48.171  1.00  0.00    -0.010 A 
ENDBRANCH  15  16
ENDBRANCH  13  15
ENDBRANCH   7  12
BRANCH   1  23
HETATM   23  N1  UNL     1      28.077  -2.400  53.113  1.00  0.00    -0.231 N 
HETATM   24  H1  UNL     1      28.754  -3.268  53.119  1.00  0.00     0.174 HD
HETATM   25  H2  UNL     1      27.077  -2.621  53.153  1.00  0.00     0.174 HD
ENDBRANCH   1  23
TORSDOF 4
ENDMDL
MODEL 3
REMARK VINA RESULT:      -8.2      2.632      6.888
REMARK  4 active torsions:
REMARK  status: ('A' for Active; 'I' for Inactive)
REMARK    1  A    between atoms: N1_1  and  C1_2 
REMARK    2  A    between atoms: C4_8  and  C5_9 
REMARK    3  A    between atoms: N5_10  and  C6_11 
REMARK    4  A    between atoms: C6_11  and  C7_12 
ROOT
HETATM    1  C1  UNL     1      28.922  -1.375  53.337  1.00  0.00     0.718 C 
HETATM    2  N2  UNL     1      30.068  -0.804  53.549  1.00  0.00     0.032 NA
HETATM    3  N3  UNL     1      30.133   0.622  53.618  1.00  0.00    -0.208 N 
HETATM    4  N4  UNL     1      29.605   1.814  54.040  1.00  0.00    -0.317 N 
HETATM    5  C2  UNL     1      28.346   1.991  53.338  1.00  0.00     0.111 C 
HETATM    6  C3  UNL     1      27.330   1.296  52.963  1.00  0.00     0.221 A 
HETATM    7  C4  UNL     1      26.170   0.862  52.461  1.00  0.00    -0.001 A 
HETATM    8  C14 UNL     1      26.796  -0.493  52.519  1.00  0.00     0.120 A 
HETATM    9  N6  UNL     1      27.920  -0.272  53.092  1.00  0.00    -0.179 N 
HETATM   10  H3  UNL     1      30.994   0.385  53.135  1.00  0.00     0.210 HD
HETATM   11  H4  UNL     1      30.133   2.201  54.706  1.00  0.00     0.181 HD
ENDROOT
BRANCH   7  12
HETATM   12  C5  UNL     1      25.142   1.147  51.916  1.00  0.00     0.093 C 
HETATM   13  N5  UNL     1      24.230   0.494  52.694  1.00  0.00    -0.394 N 
HETATM   14  H8  UNL     1      23.891   1.390  53.228  1.00  0.00     0.159 HD
BRANCH  13  15
HETATM   15  C6  UNL     1      23.290  -0.260  53.462  1.00  0.00     0.158 C 
BRANCH  15  16
HETATM   16  C7  UNL     1      21.812  -0.259  53.246  1.00  0.00    -0.030 A 
HETATM   17  C8  UNL     1      20.999  -0.709  54.114  1.00  0.00     0.010 A 
HETATM   18  C9  UNL     1      19.671  -0.531  53.472  1.00  0.00     0.009 A 
HETATM   19  C10 UNL     1      19.798   0.028  52.200  1.00  0.00    -0.044 A 
HETATM   20  C11 UNL     1      19.623   0.584  50.900  1.00  0.00     0.067 A 
HETATM   21  C13 UNL     1      21.170   0.183  52.054  1.00  0.00    -0.025 A 
HETATM   22  C12 UNL     1      21.145   0.672  50.802  1.00  0.00    -0.010 A 
ENDBRANCH  15  16
ENDBRANCH  13  15
ENDBRANCH   7  12
BRANCH   1  23
HETATM   23  N1  UNL     1      29.069  -2.820  53.327  1.00  0.00    -0.231 N 
HETATM   24  H1  UNL     1      29.612  -3.517  52.670  1.00  0.00     0.174 HD
HETATM   25  H2  UNL     1      28.683  -3.232  54.182  1.00  0.00     0.174 HD
ENDBRANCH   1  23
TORSDOF 4
ENDMDL
MODEL 4
REMARK VINA RESULT:      -8.2      2.871      6.167
REMARK  4 active torsions:
REMARK  status: ('A' for Active; 'I' for Inactive)
REMARK    1  A    between atoms: N1_1  and  C1_2 
REMARK    2  A    between atoms: C4_8  and  C5_9 
REMARK    3  A    between atoms: N5_10  and  C6_11 
REMARK    4  A    between atoms: C6_11  and  C7_12 
ROOT
HETATM    1  C1  UNL     1      28.880   1.204  53.996  1.00  0.00     0.718 C 
HETATM    2  N2  UNL     1      28.965   0.048  54.579  1.00  0.00     0.032 NA
HETATM    3  N3  UNL     1      28.157  -1.032  54.105  1.00  0.00    -0.208 N 
HETATM    4  N4  UNL     1      27.615  -1.739  53.064  1.00  0.00    -0.317 N 
HETATM    5  C2  UNL     1      26.676  -0.856  52.395  1.00  0.00     0.111 C 
HETATM    6  C3  UNL     1      26.577   0.378  52.042  1.00  0.00     0.221 A 
HETATM    7  C4  UNL     1      26.187   1.560  51.555  1.00  0.00    -0.001 A 
HETATM    8  C14 UNL     1      27.213   2.137  52.475  1.00  0.00     0.120 A 
HETATM    9  N6  UNL     1      27.778   1.099  52.969  1.00  0.00    -0.179 N 
HETATM   10  H3  UNL     1      28.146  -1.173  55.110  1.00  0.00     0.210 HD
HETATM   11  H4  UNL     1      28.006  -2.584  52.990  1.00  0.00     0.181 HD
ENDROOT
BRANCH   7  12
HETATM   12  C5  UNL     1      25.355   2.170  50.946  1.00  0.00     0.093 C 
HETATM   13  N5  UNL     1      24.308   2.156  51.823  1.00  0.00    -0.394 N 
HETATM   14  H8  UNL     1      24.443   3.190  52.161  1.00  0.00     0.159 HD
BRANCH  13  15
HETATM   15  C6  UNL     1      23.192   2.063  52.709  1.00  0.00     0.158 C 
BRANCH  15  16
HETATM   16  C7  UNL     1      22.614   0.786  53.227  1.00  0.00    -0.030 A 
HETATM   17  C8  UNL     1      23.332  -0.117  53.760  1.00  0.00     0.010 A 
HETATM   18  C9  UNL     1      22.356  -1.186  54.092  1.00  0.00     0.009 A 
HETATM   19  C10 UNL     1      21.065  -0.829  53.701  1.00  0.00    -0.044 A 
HETATM   20  C11 UNL     1      19.671  -0.733  53.424  1.00  0.00     0.067 A 
HETATM   21  C13 UNL     1      21.239   0.426  53.133  1.00  0.00    -0.025 A 
HETATM   22  C12 UNL     1      19.958   0.617  52.771  1.00  0.00    -0.010 A 
ENDBRANCH  15  16
ENDBRANCH  13  15
ENDBRANCH   7  12
BRANCH   1  23
HETATM   23  N1  UNL     1      29.795   2.150  54.611  1.00  0.00    -0.231 N 
HETATM   24  H1  UNL     1      30.436   2.949  54.208  1.00  0.00     0.174 HD
HETATM   25  H2  UNL     1      29.711   2.127  55.633  1.00  0.00     0.174 HD
ENDBRANCH   1  23
TORSDOF 4
ENDMDL
MODEL 5
REMARK VINA RESULT:      -8.2      2.824      5.792
REMARK  4 active torsions:
REMARK  status: ('A' for Active; 'I' for Inactive)
REMARK    1  A    between atoms: N1_1  and  C1_2 
REMARK    2  A    between atoms: C4_8  and  C5_9 
REMARK    3  A    between atoms: N5_10  and  C6_11 
REMARK    4  A    between atoms: C6_11  and  C7_12 
ROOT
HETATM    1  C1  UNL     1      27.770  -1.340  53.083  1.00  0.00     0.718 C 
HETATM    2  N2  UNL     1      28.879  -1.223  53.747  1.00  0.00     0.032 NA
HETATM    3  N3  UNL     1      29.284   0.071  54.203  1.00  0.00    -0.208 N 
HETATM    4  N4  UNL     1      28.972   1.283  54.758  1.00  0.00    -0.317 N 
HETATM    5  C2  UNL     1      28.124   1.979  53.807  1.00  0.00     0.111 C 
HETATM    6  C3  UNL     1      27.156   1.730  52.995  1.00  0.00     0.221 A 
HETATM    7  C4  UNL     1      26.171   1.792  52.095  1.00  0.00    -0.001 A 
HETATM    8  C14 UNL     1      26.364   0.316  51.967  1.00  0.00     0.120 A 
HETATM    9  N6  UNL     1      27.237   0.057  52.867  1.00  0.00    -0.179 N 
HETATM   10  H3  UNL     1      30.166  -0.355  53.933  1.00  0.00     0.210 HD
HETATM   11  H4  UNL     1      29.319   1.359  55.622  1.00  0.00     0.181 HD
ENDROOT
BRANCH   7  12
HETATM   12  C5  UNL     1      25.506   2.486  51.380  1.00  0.00     0.093 C 
HETATM   13  N5  UNL     1      24.296   1.855  51.434  1.00  0.00    -0.394 N 
HETATM   14  H8  UNL     1      23.836   2.573  52.122  1.00  0.00     0.159 HD
BRANCH  13  15
HETATM   15  C6  UNL     1      23.059   1.141  51.427  1.00  0.00     0.158 C 
BRANCH  15  16
HETATM   16  C7  UNL     1      22.344   0.655  52.645  1.00  0.00    -0.030 A 
HETATM   17  C8  UNL     1      21.144   0.984  52.905  1.00  0.00     0.010 A 
HETATM   18  C9  UNL     1      20.869   0.303  54.196  1.00  0.00     0.009 A 
HETATM   19  C10 UNL     1      21.985  -0.408  54.639  1.00  0.00    -0.044 A 
HETATM   20  C11 UNL     1      22.942  -1.212  55.322  1.00  0.00     0.067 A 
HETATM   21  C13 UNL     1      22.931  -0.165  53.652  1.00  0.00    -0.025 A 
HETATM   22  C12 UNL     1      23.937  -0.852  54.220  1.00  0.00    -0.010 A 
ENDBRANCH  15  16
ENDBRANCH  13  15
ENDBRANCH   7  12
BRANCH   1  23
HETATM   23  N1  UNL     1      27.531  -2.730  52.736  1.00  0.00    -0.231 N 
HETATM   24  H1  UNL     1      26.880  -3.221  51.996  1.00  0.00     0.174 HD
HETATM   25  H2  UNL     1      28.208  -3.343  53.202  1.00  0.00     0.174 HD
ENDBRANCH   1  23
TORSDOF 4
ENDMDL
MODEL 6
REMARK VINA RESULT:      -7.7      3.085      5.840
REMARK  4 active torsions:
REMARK  status: ('A' for Active; 'I' for Inactive)
REMARK    1  A    between atoms: N1_1  and  C1_2 
REMARK    2  A    between atoms: C4_8  and  C5_9 
REMARK    3  A    between atoms: N5_10  and  C6_11 
REMARK    4  A    between atoms: C6_11  and  C7_12 
ROOT
HETATM    1  C1  UNL     1      26.906   1.755  53.890  1.00  0.00     0.718 C 
HETATM    2  N2  UNL     1      27.302   0.823  54.702  1.00  0.00     0.032 NA
HETATM    3  N3  UNL     1      26.455  -0.305  54.933  1.00  0.00    -0.208 N 
HETATM    4  N4  UNL     1      25.598  -1.261  54.455  1.00  0.00    -0.317 N 
HETATM    5  C2  UNL     1      24.408  -0.571  53.993  1.00  0.00     0.111 C 
HETATM    6  C3  UNL     1      24.084   0.505  53.364  1.00  0.00     0.221 A 
HETATM    7  C4  UNL     1      23.445   1.505  52.751  1.00  0.00    -0.001 A 
HETATM    8  C14 UNL     1      24.706   2.276  52.967  1.00  0.00     0.120 A 
HETATM    9  N6  UNL     1      25.498   1.406  53.474  1.00  0.00    -0.179 N 
HETATM   10  H3  UNL     1      26.856  -0.139  55.851  1.00  0.00     0.210 HD
HETATM   11  H4  UNL     1      25.989  -2.109  54.483  1.00  0.00     0.181 HD
ENDROOT
BRANCH   7  12
HETATM   12  C5  UNL     1      22.397   1.948  52.378  1.00  0.00     0.093 C 
HETATM   13  N5  UNL     1      22.678   2.263  51.080  1.00  0.00    -0.394 N 
HETATM   14  H8  UNL     1      22.166   1.395  50.650  1.00  0.00     0.159 HD
BRANCH  13  15
HETATM   15  C6  UNL     1      23.006   2.669  49.750  1.00  0.00     0.158 C 
BRANCH  15  16
HETATM   16  C7  UNL     1      23.905   3.810  49.399  1.00  0.00    -0.030 A 
HETATM   17  C8  UNL     1      23.455   4.932  49.005  1.00  0.00     0.010 A 
HETATM   18  C9  UNL     1      24.683   5.729  48.754  1.00  0.00     0.009 A 
HETATM   19  C10 UNL     1      25.832   4.982  49.019  1.00  0.00    -0.044 A 
HETATM   20  C11 UNL     1      27.150   4.476  49.213  1.00  0.00     0.067 A 
HETATM   21  C13 UNL     1      25.327   3.750  49.414  1.00  0.00    -0.025 A 
HETATM   22  C12 UNL     1      26.513   3.139  49.585  1.00  0.00    -0.010 A 
ENDBRANCH  15  16
ENDBRANCH  13  15
ENDBRANCH   7  12
BRANCH   1  23
HETATM   23  N1  UNL     1      27.917   2.793  53.778  1.00  0.00    -0.231 N 
HETATM   24  H1  UNL     1      28.855   2.872  53.208  1.00  0.00     0.174 HD
HETATM   25  H2  UNL     1      27.604   3.657  54.232  1.00  0.00     0.174 HD
ENDBRANCH   1  23
TORSDOF 4
ENDMDL
MODEL 7
REMARK VINA RESULT:      -7.7      3.125      6.248
REMARK  4 active torsions:
REMARK  status: ('A' for Active; 'I' for Inactive)
REMARK    1  A    between atoms: N1_1  and  C1_2 
REMARK    2  A    between atoms: C4_8  and  C5_9 
REMARK    3  A    between atoms: N5_10  and  C6_11 
REMARK    4  A    between atoms: C6_11  and  C7_12 
ROOT
HETATM    1  C1  UNL     1      28.561  -0.728  53.409  1.00  0.00     0.718 C 
HETATM    2  N2  UNL     1      29.532   0.129  53.498  1.00  0.00     0.032 NA
HETATM    3  N3  UNL     1      29.228   1.526  53.516  1.00  0.00    -0.208 N 
HETATM    4  N4  UNL     1      28.442   2.562  53.946  1.00  0.00    -0.317 N 
HETATM    5  C2  UNL     1      27.129   2.372  53.357  1.00  0.00     0.111 C 
HETATM    6  C3  UNL     1      26.303   1.419  53.097  1.00  0.00     0.221 A 
HETATM    7  C4  UNL     1      25.261   0.675  52.716  1.00  0.00    -0.001 A 
HETATM    8  C14 UNL     1      26.221  -0.469  52.759  1.00  0.00     0.120 A 
HETATM    9  N6  UNL     1      27.290   0.065  53.221  1.00  0.00    -0.179 N 
HETATM   10  H3  UNL     1      30.080   1.492  52.965  1.00  0.00     0.210 HD
HETATM   11  H4  UNL     1      28.902   3.107  54.550  1.00  0.00     0.181 HD
ENDROOT
BRANCH   7  12
HETATM   12  C5  UNL     1      24.154   0.656  52.258  1.00  0.00     0.093 C 
HETATM   13  N5  UNL     1      23.913   1.987  52.070  1.00  0.00    -0.394 N 
HETATM   14  H8  UNL     1      24.079   1.970  50.986  1.00  0.00     0.159 HD
BRANCH  13  15
HETATM   15  C6  UNL     1      23.635   3.384  51.956  1.00  0.00     0.158 C 
BRANCH  15  16
HETATM   16  C7  UNL     1      24.401   4.342  51.103  1.00  0.00    -0.030 A 
HETATM   17  C8  UNL     1      24.072   5.565  50.993  1.00  0.00     0.010 A 
HETATM   18  C9  UNL     1      25.078   6.112  50.047  1.00  0.00     0.009 A 
HETATM   19  C10 UNL     1      25.969   5.122  49.632  1.00  0.00    -0.044 A 
HETATM   20  C11 UNL     1      27.008   4.338  49.051  1.00  0.00     0.067 A 
HETATM   21  C13 UNL     1      25.520   3.988  50.297  1.00  0.00    -0.025 A 
HETATM   22  C12 UNL     1      26.418   3.132  49.779  1.00  0.00    -0.010 A 
ENDBRANCH  15  16
ENDBRANCH  13  15
ENDBRANCH   7  12
BRANCH   1  23
HETATM   23  N1  UNL     1      29.079  -2.085  53.431  1.00  0.00    -0.231 N 
HETATM   24  H1  UNL     1      29.503  -2.742  52.656  1.00  0.00     0.174 HD
HETATM   25  H2  UNL     1      29.169  -2.426  54.394  1.00  0.00     0.174 HD
ENDBRANCH   1  23
TORSDOF 4
ENDMDL
MODEL 8
REMARK VINA RESULT:      -7.6      3.275      5.646
REMARK  4 active torsions:
REMARK  status: ('A' for Active; 'I' for Inactive)
REMARK    1  A    between atoms: N1_1  and  C1_2 
REMARK    2  A    between atoms: C4_8  and  C5_9 
REMARK    3  A    between atoms: N5_10  and  C6_11 
REMARK    4  A    between atoms: C6_11  and  C7_12 
ROOT
HETATM    1  C1  UNL     1      25.142  -0.570  54.965  1.00  0.00     0.718 C 
HETATM    2  N2  UNL     1      26.357  -0.283  55.318  1.00  0.00     0.032 NA
HETATM    3  N3  UNL     1      27.015   0.831  54.708  1.00  0.00    -0.208 N 
HETATM    4  N4  UNL     1      26.980   2.119  54.244  1.00  0.00    -0.317 N 
HETATM    5  C2  UNL     1      26.081   2.135  53.104  1.00  0.00     0.111 C 
HETATM    6  C3  UNL     1      24.958   1.623  52.737  1.00  0.00     0.221 A 
HETATM    7  C4  UNL     1      23.846   1.269  52.088  1.00  0.00    -0.001 A 
HETATM    8  C14 UNL     1      23.804   0.121  53.042  1.00  0.00     0.120 A 
HETATM    9  N6  UNL     1      24.780   0.364  53.836  1.00  0.00    -0.179 N 
HETATM   10  H3  UNL     1      27.766   0.152  54.797  1.00  0.00     0.210 HD
HETATM   11  H4  UNL     1      27.484   2.688  54.788  1.00  0.00     0.181 HD
ENDROOT
BRANCH   7  12
HETATM   12  C5  UNL     1      23.167   1.406  51.111  1.00  0.00     0.093 C 
HETATM   13  N5  UNL     1      23.254   2.752  50.902  1.00  0.00    -0.394 N 
HETATM   14  H8  UNL     1      23.969   2.681  50.074  1.00  0.00     0.159 HD
BRANCH  13  15
HETATM   15  C6  UNL     1      23.282   4.171  50.740  1.00  0.00     0.158 C 
BRANCH  15  16
HETATM   16  C7  UNL     1      24.319   4.926  49.975  1.00  0.00    -0.030 A 
HETATM   17  C8  UNL     1      24.113   6.098  49.526  1.00  0.00     0.010 A 
HETATM   18  C9  UNL     1      25.382   6.430  48.828  1.00  0.00     0.009 A 
HETATM   19  C10 UNL     1      26.291   5.374  48.904  1.00  0.00    -0.044 A 
HETATM   20  C11 UNL     1      27.401   4.485  48.828  1.00  0.00     0.067 A 
HETATM   21  C13 UNL     1      25.599   4.408  49.624  1.00  0.00    -0.025 A 
HETATM   22  C12 UNL     1      26.552   3.461  49.579  1.00  0.00    -0.010 A 
ENDBRANCH  15  16
ENDBRANCH  13  15
ENDBRANCH   7  12
BRANCH   1  23
HETATM   23  N1  UNL     1      24.652  -1.712  55.717  1.00  0.00    -0.231 N 
HETATM   24  H1  UNL     1      23.688  -1.943  56.195  1.00  0.00     0.174 HD
HETATM   25  H2  UNL     1      25.317  -2.492  55.669  1.00  0.00     0.174 HD
ENDBRANCH   1  23
TORSDOF 4
ENDMDL
MODEL 9
REMARK VINA RESULT:      -7.6      3.214      5.571
REMARK  4 active torsions:
REMARK  status: ('A' for Active; 'I' for Inactive)
REMARK    1  A    between atoms: N1_1  and  C1_2 
REMARK    2  A    between atoms: C4_8  and  C5_9 
REMARK    3  A    between atoms: N5_10  and  C6_11 
REMARK    4  A    between atoms: C6_11  and  C7_12 
ROOT
HETATM    1  C1  UNL     1      24.254   6.409  50.869  1.00  0.00     0.718 C 
HETATM    2  N2  UNL     1      25.393   6.844  50.426  1.00  0.00     0.032 NA
HETATM    3  N3  UNL     1      26.387   5.900  50.017  1.00  0.00    -0.208 N 
HETATM    4  N4  UNL     1      26.726   4.738  49.377  1.00  0.00    -0.317 N 
HETATM    5  C2  UNL     1      26.125   3.650  50.128  1.00  0.00     0.111 C 
HETATM    6  C3  UNL     1      25.029   3.377  50.746  1.00  0.00     0.221 A 
HETATM    7  C4  UNL     1      24.039   2.807  51.439  1.00  0.00    -0.001 A 
HETATM    8  C14 UNL     1      23.548   4.203  51.645  1.00  0.00     0.120 A 
HETATM    9  N6  UNL     1      24.354   4.904  50.937  1.00  0.00    -0.179 N 
HETATM   10  H3  UNL     1      26.941   6.625  50.463  1.00  0.00     0.210 HD
HETATM   11  H4  UNL     1      27.204   4.911  48.593  1.00  0.00     0.181 HD
ENDROOT
BRANCH   7  12
HETATM   12  C5  UNL     1      23.637   1.824  51.992  1.00  0.00     0.093 C 
HETATM   13  N5  UNL     1      24.783   1.091  52.115  1.00  0.00    -0.394 N 
HETATM   14  H8  UNL     1      24.931   1.310  53.179  1.00  0.00     0.159 HD
BRANCH  13  15
HETATM   15  C6  UNL     1      25.968   0.295  52.164  1.00  0.00     0.158 C 
BRANCH  15  16
HETATM   16  C7  UNL     1      27.246   0.701  52.821  1.00  0.00    -0.030 A 
HETATM   17  C8  UNL     1      27.509   1.913  53.103  1.00  0.00     0.010 A 
HETATM   18  C9  UNL     1      28.865   1.843  53.707  1.00  0.00     0.009 A 
HETATM   19  C10 UNL     1      29.339   0.530  53.729  1.00  0.00    -0.044 A 
HETATM   20  C11 UNL     1      30.065  -0.685  53.889  1.00  0.00     0.067 A 
HETATM   21  C13 UNL     1      28.306  -0.192  53.146  1.00  0.00    -0.025 A 
HETATM   22  C12 UNL     1      28.907  -1.395  53.191  1.00  0.00    -0.010 A 
ENDBRANCH  15  16
ENDBRANCH  13  15
ENDBRANCH   7  12
BRANCH   1  23
HETATM   23  N1  UNL     1      23.383   7.521  51.205  1.00  0.00    -0.231 N 
HETATM   24  H1  UNL     1      22.906   7.849  52.142  1.00  0.00     0.174 HD
HETATM   25  H2  UNL     1      23.318   8.183  50.424  1.00  0.00     0.174 HD
ENDBRANCH   1  23
TORSDOF 4
ENDMDL
