MODEL 1
REMARK VINA RESULT:      -8.5      0.000      0.000
REMARK  4 active torsions:
REMARK  status: ('A' for Active; 'I' for Inactive)
REMARK    1  A    between atoms: O1_2  and  C2_3 
REMARK    2  A    between atoms: C5_6  and  N1_7 
REMARK    3  A    between atoms: N1_7  and  C6_8 
REMARK    4  A    between atoms: C8_10  and  O2_11 
ROOT
HETATM    1  C2  UNL     1      26.801   1.766  52.506  1.00  0.00     0.075 A 
HETATM    2  C3  UNL     1      25.523   1.258  52.543  1.00  0.00     0.053 A 
HETATM    3  C4  UNL     1      25.155   0.403  53.559  1.00  0.00     0.024 A 
HETATM    4  C5  UNL     1      23.849  -0.034  53.490  1.00  0.00     0.068 A 
HETATM    5  C13 UNL     1      23.433  -0.898  54.509  1.00  0.00     0.089 A 
HETATM    6  C14 UNL     1      22.090  -1.446  54.584  1.00  0.00     0.103 C 
HETATM    7  N2  UNL     1      21.039  -1.886  54.645  1.00  0.00    -0.191 NA
HETATM    8  C15 UNL     1      24.295  -1.295  55.538  1.00  0.00     0.142 A 
HETATM    9  N3  UNL     1      25.542  -0.815  55.513  1.00  0.00    -0.259 NA
HETATM   10  C16 UNL     1      26.003   0.012  54.570  1.00  0.00     0.069 A 
HETATM   11  C17 UNL     1      27.293   0.520  54.540  1.00  0.00     0.042 A 
HETATM   12  C18 UNL     1      27.670   1.384  53.515  1.00  0.00    -0.026 A 
HETATM   13  C19 UNL     1      29.058   1.915  53.505  1.00  0.00     0.051 C 
ENDROOT
BRANCH   4  14
HETATM   14  N1  UNL     1      22.858   0.226  52.542  1.00  0.00    -0.353 N 
HETATM   15  H5  UNL     1      23.149  -0.544  51.882  1.00  0.00     0.166 HD
BRANCH  14  16
HETATM   16  C6  UNL     1      21.772   1.059  52.243  1.00  0.00     0.057 A 
HETATM   17  C7  UNL     1      20.687   0.250  51.876  1.00  0.00     0.069 A 
HETATM   18  C8  UNL     1      19.454   0.803  51.514  1.00  0.00     0.092 A 
HETATM   19  C10 UNL     1      19.367   2.177  51.538  1.00  0.00     0.069 A 
HETATM   20 CL1  UNL     1      17.861   2.962  51.099  1.00  0.00    -0.081 Cl
HETATM   21  C11 UNL     1      20.400   3.017  51.890  1.00  0.00     0.052 A 
HETATM   22  C12 UNL     1      21.590   2.422  52.236  1.00  0.00     0.062 A 
HETATM   23 CL2  UNL     1      23.003   3.324  52.697  1.00  0.00    -0.082 Cl
BRANCH  18  24
HETATM   24  O2  UNL     1      18.339   0.071  51.140  1.00  0.00    -0.354 OA
HETATM   25  C9  UNL     1      17.544  -0.637  52.048  1.00  0.00     0.210 C 
ENDBRANCH  18  24
ENDBRANCH  14  16
ENDBRANCH   4  14
BRANCH   1  26
HETATM   26  O1  UNL     1      27.255   2.619  51.538  1.00  0.00    -0.355 OA
HETATM   27  C1  UNL     1      26.498   3.084  50.450  1.00  0.00     0.210 C 
ENDBRANCH   1  26
TORSDOF 4
ENDMDL
MODEL 2
REMARK VINA RESULT:      -8.5      2.414      6.180
REMARK  4 active torsions:
REMARK  status: ('A' for Active; 'I' for Inactive)
REMARK    1  A    between atoms: O1_2  and  C2_3 
REMARK    2  A    between atoms: C5_6  and  N1_7 
REMARK    3  A    between atoms: N1_7  and  C6_8 
REMARK    4  A    between atoms: C8_10  and  O2_11 
ROOT
HETATM    1  C2  UNL     1      22.005  -0.176  52.663  1.00  0.00     0.075 A 
HETATM    2  C3  UNL     1      23.152   0.498  52.313  1.00  0.00     0.053 A 
HETATM    3  C4  UNL     1      24.279   0.384  53.096  1.00  0.00     0.024 A 
HETATM    4  C5  UNL     1      25.365   1.101  52.641  1.00  0.00     0.068 A 
HETATM    5  C13 UNL     1      26.533   1.004  53.405  1.00  0.00     0.089 A 
HETATM    6  C14 UNL     1      27.764   1.696  53.061  1.00  0.00     0.103 C 
HETATM    7  N2  UNL     1      28.732   2.241  52.801  1.00  0.00    -0.191 NA
HETATM    8  C15 UNL     1      26.595   0.224  54.565  1.00  0.00     0.142 A 
HETATM    9  N3  UNL     1      25.486  -0.432  54.922  1.00  0.00    -0.259 NA
HETATM   10  C16 UNL     1      24.338  -0.384  54.238  1.00  0.00     0.069 A 
HETATM   11  C17 UNL     1      23.186  -1.066  54.596  1.00  0.00     0.042 A 
HETATM   12  C18 UNL     1      22.045  -0.953  53.809  1.00  0.00    -0.026 A 
HETATM   13  C19 UNL     1      20.822  -1.695  54.214  1.00  0.00     0.051 C 
ENDROOT
BRANCH   4  14
HETATM   14  N1  UNL     1      25.490   1.946  51.536  1.00  0.00    -0.353 N 
HETATM   15  H5  UNL     1      25.906   1.214  50.900  1.00  0.00     0.166 HD
BRANCH  14  16
HETATM   16  C6  UNL     1      25.271   3.253  51.084  1.00  0.00     0.057 A 
HETATM   17  C7  UNL     1      26.174   3.515  50.045  1.00  0.00     0.069 A 
HETATM   18  C8  UNL     1      26.198   4.753  49.393  1.00  0.00     0.092 A 
HETATM   19  C10 UNL     1      25.291   5.694  49.829  1.00  0.00     0.069 A 
HETATM   20 CL1  UNL     1      25.247   7.276  49.074  1.00  0.00    -0.081 Cl
HETATM   21  C11 UNL     1      24.384   5.489  50.845  1.00  0.00     0.052 A 
HETATM   22  C12 UNL     1      24.403   4.255  51.451  1.00  0.00     0.062 A 
HETATM   23 CL2  UNL     1      23.338   3.823  52.756  1.00  0.00    -0.082 Cl
BRANCH  18  24
HETATM   24  O2  UNL     1      27.059   5.087  48.361  1.00  0.00    -0.354 OA
HETATM   25  C9  UNL     1      28.436   5.261  48.533  1.00  0.00     0.210 C 
ENDBRANCH  18  24
ENDBRANCH  14  16
ENDBRANCH   4  14
BRANCH   1  26
HETATM   26  O1  UNL     1      20.841  -0.121  51.947  1.00  0.00    -0.355 OA
HETATM   27  C1  UNL     1      20.571   0.785  50.908  1.00  0.00     0.210 C 
ENDBRANCH   1  26
TORSDOF 4
ENDMDL
MODEL 3
REMARK VINA RESULT:      -8.3      2.824      5.381
REMARK  4 active torsions:
REMARK  status: ('A' for Active; 'I' for Inactive)
REMARK    1  A    between atoms: O1_2  and  C2_3 
REMARK    2  A    between atoms: C5_6  and  N1_7 
REMARK    3  A    between atoms: N1_7  and  C6_8 
REMARK    4  A    between atoms: C8_10  and  O2_11 
ROOT
HETATM    1  C2  UNL     1      21.827   0.480  53.329  1.00  0.00     0.075 A 
HETATM    2  C3  UNL     1      22.937   1.249  53.064  1.00  0.00     0.053 A 
HETATM    3  C4  UNL     1      24.185   0.797  53.429  1.00  0.00     0.024 A 
HETATM    4  C5  UNL     1      25.217   1.652  53.107  1.00  0.00     0.068 A 
HETATM    5  C13 UNL     1      26.504   1.224  53.452  1.00  0.00     0.089 A 
HETATM    6  C14 UNL     1      27.698   2.006  53.181  1.00  0.00     0.103 C 
HETATM    7  N2  UNL     1      28.640   2.617  52.978  1.00  0.00    -0.191 NA
HETATM    8  C15 UNL     1      26.729  -0.002  54.090  1.00  0.00     0.142 A 
HETATM    9  N3  UNL     1      25.660  -0.757  54.360  1.00  0.00    -0.259 NA
HETATM   10  C16 UNL     1      24.405  -0.409  54.057  1.00  0.00     0.069 A 
HETATM   11  C17 UNL     1      23.291  -1.189  54.326  1.00  0.00     0.042 A 
HETATM   12  C18 UNL     1      22.027  -0.736  53.961  1.00  0.00    -0.026 A 
HETATM   13  C19 UNL     1      20.849  -1.591  54.260  1.00  0.00     0.051 C 
ENDROOT
BRANCH   4  14
HETATM   14  N1  UNL     1      25.192   2.910  52.503  1.00  0.00    -0.353 N 
HETATM   15  H5  UNL     1      25.651   3.415  53.308  1.00  0.00     0.166 HD
BRANCH  14  16
HETATM   16  C6  UNL     1      24.809   3.599  51.345  1.00  0.00     0.057 A 
HETATM   17  C7  UNL     1      23.645   4.325  51.632  1.00  0.00     0.069 A 
HETATM   18  C8  UNL     1      23.018   5.113  50.660  1.00  0.00     0.092 A 
HETATM   19  C10 UNL     1      23.604   5.133  49.414  1.00  0.00     0.069 A 
HETATM   20 CL1  UNL     1      22.889   6.091  48.131  1.00  0.00    -0.081 Cl
HETATM   21  C11 UNL     1      24.746   4.439  49.079  1.00  0.00     0.052 A 
HETATM   22  C12 UNL     1      25.321   3.681  50.071  1.00  0.00     0.062 A 
HETATM   23 CL2  UNL     1      26.757   2.732  49.826  1.00  0.00    -0.082 Cl
BRANCH  18  24
HETATM   24  O2  UNL     1      21.868   5.857  50.867  1.00  0.00    -0.354 OA
HETATM   25  C9  UNL     1      20.579   5.349  50.678  1.00  0.00     0.210 C 
ENDBRANCH  18  24
ENDBRANCH  14  16
ENDBRANCH   4  14
BRANCH   1  26
HETATM   26  O1  UNL     1      20.550   0.848  53.005  1.00  0.00    -0.355 OA
HETATM   27  C1  UNL     1      20.167   2.115  52.535  1.00  0.00     0.210 C 
ENDBRANCH   1  26
TORSDOF 4
ENDMDL
MODEL 4
REMARK VINA RESULT:      -8.2      2.607      5.918
REMARK  4 active torsions:
REMARK  status: ('A' for Active; 'I' for Inactive)
REMARK    1  A    between atoms: O1_2  and  C2_3 
REMARK    2  A    between atoms: C5_6  and  N1_7 
REMARK    3  A    between atoms: N1_7  and  C6_8 
REMARK    4  A    between atoms: C8_10  and  O2_11 
ROOT
HETATM    1  C2  UNL     1      19.649   0.267  51.350  1.00  0.00     0.075 A 
HETATM    2  C3  UNL     1      21.002   0.289  51.600  1.00  0.00     0.053 A 
HETATM    3  C4  UNL     1      21.488  -0.223  52.782  1.00  0.00     0.024 A 
HETATM    4  C5  UNL     1      22.859  -0.150  52.914  1.00  0.00     0.068 A 
HETATM    5  C13 UNL     1      23.394  -0.667  54.098  1.00  0.00     0.089 A 
HETATM    6  C14 UNL     1      24.817  -0.668  54.391  1.00  0.00     0.103 C 
HETATM    7  N2  UNL     1      25.932  -0.667  54.631  1.00  0.00    -0.191 NA
HETATM    8  C15 UNL     1      22.583  -1.227  55.092  1.00  0.00     0.142 A 
HETATM    9  N3  UNL     1      21.265  -1.249  54.868  1.00  0.00    -0.259 NA
HETATM   10  C16 UNL     1      20.689  -0.773  53.760  1.00  0.00     0.069 A 
HETATM   11  C17 UNL     1      19.325  -0.798  53.515  1.00  0.00     0.042 A 
HETATM   12  C18 UNL     1      18.829  -0.281  52.322  1.00  0.00    -0.026 A 
HETATM   13  C19 UNL     1      17.362  -0.321  52.083  1.00  0.00     0.051 C 
ENDROOT
BRANCH   4  14
HETATM   14  N1  UNL     1      23.821   0.388  52.057  1.00  0.00    -0.353 N 
HETATM   15  H5  UNL     1      24.152  -0.542  51.685  1.00  0.00     0.166 HD
BRANCH  14  16
HETATM   16  C6  UNL     1      24.391   1.587  51.611  1.00  0.00     0.057 A 
HETATM   17  C7  UNL     1      23.356   2.500  51.364  1.00  0.00     0.069 A 
HETATM   18  C8  UNL     1      23.617   3.793  50.898  1.00  0.00     0.092 A 
HETATM   19  C10 UNL     1      24.941   4.116  50.696  1.00  0.00     0.069 A 
HETATM   20 CL1  UNL     1      25.368   5.714  50.112  1.00  0.00    -0.081 Cl
HETATM   21  C11 UNL     1      25.995   3.259  50.922  1.00  0.00     0.052 A 
HETATM   22  C12 UNL     1      25.682   2.001  51.379  1.00  0.00     0.062 A 
HETATM   23 CL2  UNL     1      26.881   0.785  51.707  1.00  0.00    -0.082 Cl
BRANCH  18  24
HETATM   24  O2  UNL     1      22.651   4.749  50.632  1.00  0.00    -0.354 OA
HETATM   25  C9  UNL     1      21.901   5.382  51.628  1.00  0.00     0.210 C 
ENDBRANCH  18  24
ENDBRANCH  14  16
ENDBRANCH   4  14
BRANCH   1  26
HETATM   26  O1  UNL     1      19.077   0.752  50.207  1.00  0.00    -0.355 OA
HETATM   27  C1  UNL     1      19.517   1.883  49.498  1.00  0.00     0.210 C 
ENDBRANCH   1  26
TORSDOF 4
ENDMDL
MODEL 5
REMARK VINA RESULT:      -8.2      1.827      2.626
REMARK  4 active torsions:
REMARK  status: ('A' for Active; 'I' for Inactive)
REMARK    1  A    between atoms: O1_2  and  C2_3 
REMARK    2  A    between atoms: C5_6  and  N1_7 
REMARK    3  A    between atoms: N1_7  and  C6_8 
REMARK    4  A    between atoms: C8_10  and  O2_11 
ROOT
HETATM    1  C2  UNL     1      26.716   1.589  52.514  1.00  0.00     0.075 A 
HETATM    2  C3  UNL     1      25.416   1.139  52.531  1.00  0.00     0.053 A 
HETATM    3  C4  UNL     1      24.993   0.305  53.542  1.00  0.00     0.024 A 
HETATM    4  C5  UNL     1      23.670  -0.073  53.453  1.00  0.00     0.068 A 
HETATM    5  C13 UNL     1      23.199  -0.913  54.467  1.00  0.00     0.089 A 
HETATM    6  C14 UNL     1      21.831  -1.400  54.520  1.00  0.00     0.103 C 
HETATM    7  N2  UNL     1      20.760  -1.792  54.565  1.00  0.00    -0.191 NA
HETATM    8  C15 UNL     1      24.024  -1.346  55.511  1.00  0.00     0.142 A 
HETATM    9  N3  UNL     1      25.292  -0.924  55.505  1.00  0.00    -0.259 NA
HETATM   10  C16 UNL     1      25.806  -0.121  54.569  1.00  0.00     0.069 A 
HETATM   11  C17 UNL     1      27.118   0.328  54.558  1.00  0.00     0.042 A 
HETATM   12  C18 UNL     1      27.551   1.171  53.539  1.00  0.00    -0.026 A 
HETATM   13  C19 UNL     1      28.961   1.639  53.550  1.00  0.00     0.051 C 
ENDROOT
BRANCH   4  14
HETATM   14  N1  UNL     1      22.708   0.229  52.487  1.00  0.00    -0.353 N 
HETATM   15  H5  UNL     1      22.716  -0.726  52.039  1.00  0.00     0.166 HD
BRANCH  14  16
HETATM   16  C6  UNL     1      21.871   1.244  52.007  1.00  0.00     0.057 A 
HETATM   17  C7  UNL     1      22.632   2.413  51.870  1.00  0.00     0.069 A 
HETATM   18  C8  UNL     1      22.063   3.606  51.413  1.00  0.00     0.092 A 
HETATM   19  C10 UNL     1      20.720   3.568  51.106  1.00  0.00     0.069 A 
HETATM   20 CL1  UNL     1      19.918   5.015  50.526  1.00  0.00    -0.081 Cl
HETATM   21  C11 UNL     1      19.928   2.448  51.222  1.00  0.00     0.052 A 
HETATM   22  C12 UNL     1      20.537   1.303  51.677  1.00  0.00     0.062 A 
HETATM   23 CL2  UNL     1      19.690  -0.200  51.896  1.00  0.00    -0.082 Cl
BRANCH  18  24
HETATM   24  O2  UNL     1      22.749   4.799  51.252  1.00  0.00    -0.354 OA
HETATM   25  C9  UNL     1      23.748   5.235  52.128  1.00  0.00     0.210 C 
ENDBRANCH  18  24
ENDBRANCH  14  16
ENDBRANCH   4  14
BRANCH   1  26
HETATM   26  O1  UNL     1      27.225   2.417  51.552  1.00  0.00    -0.355 OA
HETATM   27  C1  UNL     1      26.471   3.051  50.550  1.00  0.00     0.210 C 
ENDBRANCH   1  26
TORSDOF 4
ENDMDL
MODEL 6
REMARK VINA RESULT:      -8.0      2.979      4.769
REMARK  4 active torsions:
REMARK  status: ('A' for Active; 'I' for Inactive)
REMARK    1  A    between atoms: O1_2  and  C2_3 
REMARK    2  A    between atoms: C5_6  and  N1_7 
REMARK    3  A    between atoms: N1_7  and  C6_8 
REMARK    4  A    between atoms: C8_10  and  O2_11 
ROOT
HETATM    1  C2  UNL     1      26.859   1.176  52.776  1.00  0.00     0.075 A 
HETATM    2  C3  UNL     1      25.642   1.765  52.521  1.00  0.00     0.053 A 
HETATM    3  C4  UNL     1      24.479   1.073  52.777  1.00  0.00     0.024 A 
HETATM    4  C5  UNL     1      23.325   1.769  52.486  1.00  0.00     0.068 A 
HETATM    5  C13 UNL     1      22.122   1.103  52.740  1.00  0.00     0.089 A 
HETATM    6  C14 UNL     1      20.819   1.698  52.491  1.00  0.00     0.103 C 
HETATM    7  N2  UNL     1      19.793   2.155  52.291  1.00  0.00    -0.191 NA
HETATM    8  C15 UNL     1      22.092  -0.196  53.259  1.00  0.00     0.142 A 
HETATM    9  N3  UNL     1      23.266  -0.785  53.506  1.00  0.00    -0.259 NA
HETATM   10  C16 UNL     1      24.451  -0.206  53.287  1.00  0.00     0.069 A 
HETATM   11  C17 UNL     1      25.673  -0.806  53.546  1.00  0.00     0.042 A 
HETATM   12  C18 UNL     1      26.851  -0.111  53.289  1.00  0.00    -0.026 A 
HETATM   13  C19 UNL     1      28.149  -0.776  53.576  1.00  0.00     0.051 C 
ENDROOT
BRANCH   4  14
HETATM   14  N1  UNL     1      23.153   3.045  51.946  1.00  0.00    -0.353 N 
HETATM   15  H5  UNL     1      22.868   3.499  52.855  1.00  0.00     0.166 HD
BRANCH  14  16
HETATM   16  C6  UNL     1      23.228   3.789  50.762  1.00  0.00     0.057 A 
HETATM   17  C7  UNL     1      23.743   5.055  51.071  1.00  0.00     0.069 A 
HETATM   18  C8  UNL     1      23.929   6.029  50.084  1.00  0.00     0.092 A 
HETATM   19  C10 UNL     1      23.579   5.676  48.799  1.00  0.00     0.069 A 
HETATM   20 CL1  UNL     1      23.774   6.832  47.495  1.00  0.00    -0.081 Cl
HETATM   21  C11 UNL     1      23.069   4.448  48.442  1.00  0.00     0.052 A 
HETATM   22  C12 UNL     1      22.906   3.528  49.450  1.00  0.00     0.062 A 
HETATM   23 CL2  UNL     1      22.267   1.933  49.185  1.00  0.00    -0.082 Cl
BRANCH  18  24
HETATM   24  O2  UNL     1      24.431   7.300  50.312  1.00  0.00    -0.354 OA
HETATM   25  C9  UNL     1      25.798   7.594  50.333  1.00  0.00     0.210 C 
ENDBRANCH  18  24
ENDBRANCH  14  16
ENDBRANCH   4  14
BRANCH   1  26
HETATM   26  O1  UNL     1      28.063   1.786  52.553  1.00  0.00    -0.355 OA
HETATM   27  C1  UNL     1      28.752   2.581  53.484  1.00  0.00     0.210 C 
ENDBRANCH   1  26
TORSDOF 4
ENDMDL
MODEL 7
REMARK VINA RESULT:      -8.0      1.907      2.550
REMARK  4 active torsions:
REMARK  status: ('A' for Active; 'I' for Inactive)
REMARK    1  A    between atoms: O1_2  and  C2_3 
REMARK    2  A    between atoms: C5_6  and  N1_7 
REMARK    3  A    between atoms: N1_7  and  C6_8 
REMARK    4  A    between atoms: C8_10  and  O2_11 
ROOT
HETATM    1  C2  UNL     1      24.477   3.406  50.717  1.00  0.00     0.075 A 
HETATM    2  C3  UNL     1      23.644   2.697  51.551  1.00  0.00     0.053 A 
HETATM    3  C4  UNL     1      24.107   1.564  52.181  1.00  0.00     0.024 A 
HETATM    4  C5  UNL     1      23.182   0.945  52.994  1.00  0.00     0.068 A 
HETATM    5  C13 UNL     1      23.617  -0.206  53.659  1.00  0.00     0.089 A 
HETATM    6  C14 UNL     1      22.767  -0.974  54.553  1.00  0.00     0.103 C 
HETATM    7  N2  UNL     1      22.104  -1.586  55.251  1.00  0.00    -0.191 NA
HETATM    8  C15 UNL     1      24.918  -0.700  53.508  1.00  0.00     0.142 A 
HETATM    9  N3  UNL     1      25.739  -0.026  52.695  1.00  0.00    -0.259 NA
HETATM   10  C16 UNL     1      25.387   1.079  52.030  1.00  0.00     0.069 A 
HETATM   11  C17 UNL     1      26.233   1.788  51.191  1.00  0.00     0.042 A 
HETATM   12  C18 UNL     1      25.769   2.933  50.551  1.00  0.00    -0.026 A 
HETATM   13  C19 UNL     1      26.695   3.676  49.658  1.00  0.00     0.051 C 
ENDROOT
BRANCH   4  14
HETATM   14  N1  UNL     1      21.848   1.265  53.251  1.00  0.00    -0.353 N 
HETATM   15  H5  UNL     1      21.991   1.468  54.276  1.00  0.00     0.166 HD
BRANCH  14  16
HETATM   16  C6  UNL     1      20.582   1.382  52.663  1.00  0.00     0.057 A 
HETATM   17  C7  UNL     1      19.942   0.138  52.748  1.00  0.00     0.069 A 
HETATM   18  C8  UNL     1      18.655  -0.058  52.235  1.00  0.00     0.092 A 
HETATM   19  C10 UNL     1      18.056   1.033  51.646  1.00  0.00     0.069 A 
HETATM   20 CL1  UNL     1      16.444   0.884  50.974  1.00  0.00    -0.081 Cl
HETATM   21  C11 UNL     1      18.639   2.276  51.537  1.00  0.00     0.052 A 
HETATM   22  C12 UNL     1      19.904   2.414  52.056  1.00  0.00     0.062 A 
HETATM   23 CL2  UNL     1      20.796   3.905  51.998  1.00  0.00    -0.082 Cl
BRANCH  18  24
HETATM   24  O2  UNL     1      17.960  -1.256  52.281  1.00  0.00    -0.354 OA
HETATM   25  C9  UNL     1      17.882  -2.057  53.424  1.00  0.00     0.210 C 
ENDBRANCH  18  24
ENDBRANCH  14  16
ENDBRANCH   4  14
BRANCH   1  26
HETATM   26  O1  UNL     1      24.104   4.540  50.049  1.00  0.00    -0.355 OA
HETATM   27  C1  UNL     1      23.127   4.601  49.042  1.00  0.00     0.210 C 
ENDBRANCH   1  26
TORSDOF 4
ENDMDL
MODEL 8
REMARK VINA RESULT:      -8.0      3.027      5.812
REMARK  4 active torsions:
REMARK  status: ('A' for Active; 'I' for Inactive)
REMARK    1  A    between atoms: O1_2  and  C2_3 
REMARK    2  A    between atoms: C5_6  and  N1_7 
REMARK    3  A    between atoms: N1_7  and  C6_8 
REMARK    4  A    between atoms: C8_10  and  O2_11 
ROOT
HETATM    1  C2  UNL     1      26.213   1.534  53.712  1.00  0.00     0.075 A 
HETATM    2  C3  UNL     1      25.488   2.031  52.654  1.00  0.00     0.053 A 
HETATM    3  C4  UNL     1      24.309   1.422  52.287  1.00  0.00     0.024 A 
HETATM    4  C5  UNL     1      23.671   2.014  51.217  1.00  0.00     0.068 A 
HETATM    5  C13 UNL     1      22.464   1.429  50.818  1.00  0.00     0.089 A 
HETATM    6  C14 UNL     1      21.668   1.932  49.711  1.00  0.00     0.103 C 
HETATM    7  N2  UNL     1      21.041   2.317  48.839  1.00  0.00    -0.191 NA
HETATM    8  C15 UNL     1      21.936   0.307  51.467  1.00  0.00     0.142 A 
HETATM    9  N3  UNL     1      22.633  -0.191  52.493  1.00  0.00    -0.259 NA
HETATM   10  C16 UNL     1      23.790   0.317  52.926  1.00  0.00     0.069 A 
HETATM   11  C17 UNL     1      24.516  -0.188  53.993  1.00  0.00     0.042 A 
HETATM   12  C18 UNL     1      25.708   0.423  54.368  1.00  0.00    -0.026 A 
HETATM   13  C19 UNL     1      26.468  -0.138  55.516  1.00  0.00     0.051 C 
ENDROOT
BRANCH   4  14
HETATM   14  N1  UNL     1      24.047   3.106  50.433  1.00  0.00    -0.353 N 
HETATM   15  H5  UNL     1      24.012   2.586  49.516  1.00  0.00     0.166 HD
BRANCH  14  16
HETATM   16  C6  UNL     1      24.398   4.461  50.480  1.00  0.00     0.057 A 
HETATM   17  C7  UNL     1      25.494   4.659  49.628  1.00  0.00     0.069 A 
HETATM   18  C8  UNL     1      26.077   5.921  49.470  1.00  0.00     0.092 A 
HETATM   19  C10 UNL     1      25.518   6.951  50.195  1.00  0.00     0.069 A 
HETATM   20 CL1  UNL     1      26.182   8.568  50.064  1.00  0.00    -0.081 Cl
HETATM   21  C11 UNL     1      24.444   6.810  51.045  1.00  0.00     0.052 A 
HETATM   22  C12 UNL     1      23.910   5.549  51.164  1.00  0.00     0.062 A 
HETATM   23 CL2  UNL     1      22.560   5.185  52.198  1.00  0.00    -0.082 Cl
BRANCH  18  24
HETATM   24  O2  UNL     1      27.158   6.196  48.649  1.00  0.00    -0.354 OA
HETATM   25  C9  UNL     1      28.199   5.290  48.420  1.00  0.00     0.210 C 
ENDBRANCH  18  24
ENDBRANCH  14  16
ENDBRANCH   4  14
BRANCH   1  26
HETATM   26  O1  UNL     1      27.393   2.072  54.147  1.00  0.00    -0.355 OA
HETATM   27  C1  UNL     1      28.522   2.305  53.343  1.00  0.00     0.210 C 
ENDBRANCH   1  26
TORSDOF 4
ENDMDL
MODEL 9
REMARK VINA RESULT:      -7.9      3.223      5.894
REMARK  4 active torsions:
REMARK  status: ('A' for Active; 'I' for Inactive)
REMARK    1  A    between atoms: O1_2  and  C2_3 
REMARK    2  A    between atoms: C5_6  and  N1_7 
REMARK    3  A    between atoms: N1_7  and  C6_8 
REMARK    4  A    between atoms: C8_10  and  O2_11 
ROOT
HETATM    1  C2  UNL     1      21.851   0.217  52.962  1.00  0.00     0.075 A 
HETATM    2  C3  UNL     1      22.490   1.094  52.116  1.00  0.00     0.053 A 
HETATM    3  C4  UNL     1      23.865   1.177  52.127  1.00  0.00     0.024 A 
HETATM    4  C5  UNL     1      24.388   2.086  51.232  1.00  0.00     0.068 A 
HETATM    5  C13 UNL     1      25.782   2.194  51.206  1.00  0.00     0.089 A 
HETATM    6  C14 UNL     1      26.490   3.103  50.321  1.00  0.00     0.103 C 
HETATM    7  N2  UNL     1      27.053   3.819  49.633  1.00  0.00    -0.191 NA
HETATM    8  C15 UNL     1      26.599   1.423  52.042  1.00  0.00     0.142 A 
HETATM    9  N3  UNL     1      25.993   0.571  52.875  1.00  0.00    -0.259 NA
HETATM   10  C16 UNL     1      24.667   0.419  52.950  1.00  0.00     0.069 A 
HETATM   11  C17 UNL     1      24.030  -0.467  53.805  1.00  0.00     0.042 A 
HETATM   12  C18 UNL     1      22.641  -0.554  53.799  1.00  0.00    -0.026 A 
HETATM   13  C19 UNL     1      21.982  -1.512  54.725  1.00  0.00     0.051 C 
ENDROOT
BRANCH   4  14
HETATM   14  N1  UNL     1      23.746   2.953  50.347  1.00  0.00    -0.353 N 
HETATM   15  H5  UNL     1      24.135   2.507  49.473  1.00  0.00     0.166 HD
BRANCH  14  16
HETATM   16  C6  UNL     1      22.883   4.054  50.271  1.00  0.00     0.057 A 
HETATM   17  C7  UNL     1      23.596   5.197  50.660  1.00  0.00     0.069 A 
HETATM   18  C8  UNL     1      22.993   6.459  50.691  1.00  0.00     0.092 A 
HETATM   19  C10 UNL     1      21.666   6.514  50.322  1.00  0.00     0.069 A 
HETATM   20 CL1  UNL     1      20.824   8.052  50.332  1.00  0.00    -0.081 Cl
HETATM   21  C11 UNL     1      20.921   5.424  49.933  1.00  0.00     0.052 A 
HETATM   22  C12 UNL     1      21.563   4.208  49.920  1.00  0.00     0.062 A 
HETATM   23 CL2  UNL     1      20.776   2.725  49.467  1.00  0.00    -0.082 Cl
BRANCH  18  24
HETATM   24  O2  UNL     1      23.629   7.631  51.064  1.00  0.00    -0.354 OA
HETATM   25  C9  UNL     1      24.551   8.298  50.249  1.00  0.00     0.210 C 
ENDBRANCH  18  24
ENDBRANCH  14  16
ENDBRANCH   4  14
BRANCH   1  26
HETATM   26  O1  UNL     1      20.493   0.067  53.021  1.00  0.00    -0.355 OA
HETATM   27  C1  UNL     1      19.609   0.270  51.948  1.00  0.00     0.210 C 
ENDBRANCH   1  26
TORSDOF 4
ENDMDL
