MODEL 1
REMARK VINA RESULT:      -8.8      0.000      0.000
REMARK  4 active torsions:
REMARK  status: ('A' for Active; 'I' for Inactive)
REMARK    1  A    between atoms: S1_2  and  N1_5 
REMARK    2  A    between atoms: N1_5  and  C2_6 
REMARK    3  A    between atoms: C8_15  and  N4_16 
REMARK    4  A    between atoms: N4_16  and  C9_17 
ROOT
HETATM    1  C2  UNL     1      17.531   0.600  50.112  1.00  0.00     0.055 A 
HETATM    2  C3  UNL     1      17.307  -0.256  51.180  1.00  0.00     0.034 A 
HETATM    3  C4  UNL     1      18.212  -0.537  52.163  1.00  0.00     0.040 A 
HETATM    4  C5  UNL     1      19.485  -0.048  52.288  1.00  0.00     0.087 A 
HETATM    5  O3  UNL     1      20.066  -0.602  53.447  1.00  0.00    -0.289 OA
HETATM    6  C6  UNL     1      21.441  -0.633  53.744  1.00  0.00     0.202 A 
HETATM    7  N2  UNL     1      21.580  -1.292  54.923  1.00  0.00    -0.215 NA
HETATM    8  C7  UNL     1      22.849  -1.410  55.353  1.00  0.00     0.238 A 
HETATM    9  N3  UNL     1      23.912  -0.929  54.702  1.00  0.00    -0.222 NA
HETATM   10  C8  UNL     1      23.808  -0.277  53.541  1.00  0.00     0.160 A 
HETATM   11  C15 UNL     1      22.546  -0.133  53.065  1.00  0.00     0.129 A 
HETATM   12  N5  UNL     1      22.475   0.559  51.800  1.00  0.00    -0.379 N 
HETATM   13  C16 UNL     1      21.430   1.484  51.369  1.00  0.00     0.163 C 
HETATM   14  C17 UNL     1      20.107   0.843  51.427  1.00  0.00     0.009 A 
HETATM   15  P1  UNL     1      19.116   1.350  50.069  1.00  0.00     0.009 P 
HETATM   16  H12 UNL     1      23.336   0.259  51.241  1.00  0.00     0.160 HD
ENDROOT
BRANCH  10  17
HETATM   17  N4  UNL     1      24.918   0.240  52.846  1.00  0.00    -0.339 N 
HETATM   18  H8  UNL     1      24.959   0.923  52.066  1.00  0.00     0.167 HD
BRANCH  17  19
HETATM   19  C9  UNL     1      26.289  -0.046  53.078  1.00  0.00     0.035 A 
HETATM   20  C10 UNL     1      26.976  -1.228  52.827  1.00  0.00     0.032 A 
HETATM   21  C11 UNL     1      28.304  -1.443  53.060  1.00  0.00     0.046 A 
HETATM   22  C12 UNL     1      29.062  -0.432  53.588  1.00  0.00     0.138 A 
HETATM   23  F1  UNL     1      30.366  -0.696  53.799  1.00  0.00    -0.204 F 
HETATM   24  C13 UNL     1      28.426   0.767  53.857  1.00  0.00     0.074 A 
HETATM   25 CL1  UNL     1      29.491   1.995  54.532  1.00  0.00    -0.081 Cl
HETATM   26  C14 UNL     1      27.093   0.940  53.608  1.00  0.00     0.056 A 
ENDBRANCH  17  19
ENDBRANCH  10  17
BRANCH   1  27
HETATM   27  N1  UNL     1      16.577   0.882  49.099  1.00  0.00    -0.284 N 
HETATM   28  H4  UNL     1      16.849   0.642  48.121  1.00  0.00     0.178 HD
BRANCH  27  29
HETATM   29  S1  UNL     1      15.049   1.580  49.430  1.00  0.00     0.227 S 
HETATM   30  C1  UNL     1      14.398   2.333  47.960  1.00  0.00     0.186 C 
HETATM   31  O1  UNL     1      15.126   2.576  50.566  1.00  0.00    -0.206 OA
HETATM   32  O2  UNL     1      14.089   0.529  49.865  1.00  0.00    -0.206 OA
ENDBRANCH  27  29
ENDBRANCH   1  27
TORSDOF 4
ENDMDL
MODEL 2
REMARK VINA RESULT:      -8.7      6.140     10.056
REMARK  4 active torsions:
REMARK  status: ('A' for Active; 'I' for Inactive)
REMARK    1  A    between atoms: S1_2  and  N1_5 
REMARK    2  A    between atoms: N1_5  and  C2_6 
REMARK    3  A    between atoms: C8_15  and  N4_16 
REMARK    4  A    between atoms: N4_16  and  C9_17 
ROOT
HETATM    1  C2  UNL     1      26.504   0.152  52.609  1.00  0.00     0.055 A 
HETATM    2  C3  UNL     1      26.030   1.144  51.764  1.00  0.00     0.034 A 
HETATM    3  C4  UNL     1      24.724   1.532  51.666  1.00  0.00     0.040 A 
HETATM    4  C5  UNL     1      23.653   1.034  52.359  1.00  0.00     0.087 A 
HETATM    5  O3  UNL     1      22.493   1.721  51.946  1.00  0.00    -0.289 OA
HETATM    6  C6  UNL     1      21.167   1.294  52.148  1.00  0.00     0.202 A 
HETATM    7  N2  UNL     1      20.359   2.213  51.559  1.00  0.00    -0.215 NA
HETATM    8  C7  UNL     1      19.044   1.950  51.663  1.00  0.00     0.238 A 
HETATM    9  N3  UNL     1      18.537   0.883  52.288  1.00  0.00    -0.222 NA
HETATM   10  C8  UNL     1      19.306  -0.038  52.876  1.00  0.00     0.160 A 
HETATM   11  C15 UNL     1      20.642   0.184  52.797  1.00  0.00     0.129 A 
HETATM   12  N5  UNL     1      21.441  -0.841  53.427  1.00  0.00    -0.379 N 
HETATM   13  C16 UNL     1      22.692  -0.647  54.155  1.00  0.00     0.163 C 
HETATM   14  C17 UNL     1      23.691   0.026  53.310  1.00  0.00     0.009 A 
HETATM   15  P1  UNL     1      25.291  -0.632  53.604  1.00  0.00     0.009 P 
HETATM   16  H12 UNL     1      20.938  -1.769  53.251  1.00  0.00     0.160 HD
ENDROOT
BRANCH  10  17
HETATM   17  N4  UNL     1      18.787  -1.164  53.543  1.00  0.00    -0.339 N 
HETATM   18  H8  UNL     1      19.125  -1.651  54.393  1.00  0.00     0.167 HD
BRANCH  17  19
HETATM   19  C9  UNL     1      17.623  -1.903  53.205  1.00  0.00     0.035 A 
HETATM   20  C10 UNL     1      16.535  -1.495  52.441  1.00  0.00     0.032 A 
HETATM   21  C11 UNL     1      15.444  -2.257  52.137  1.00  0.00     0.046 A 
HETATM   22  C12 UNL     1      15.374  -3.542  52.607  1.00  0.00     0.138 A 
HETATM   23  F1  UNL     1      14.277  -4.250  52.279  1.00  0.00    -0.204 F 
HETATM   24  C13 UNL     1      16.432  -3.997  53.373  1.00  0.00     0.074 A 
HETATM   25 CL1  UNL     1      16.240  -5.659  53.926  1.00  0.00    -0.081 Cl
HETATM   26  C14 UNL     1      17.507  -3.201  53.655  1.00  0.00     0.056 A 
ENDBRANCH  17  19
ENDBRANCH  10  17
BRANCH   1  27
HETATM   27  N1  UNL     1      27.867  -0.238  52.698  1.00  0.00    -0.284 N 
HETATM   28  H4  UNL     1      28.209  -0.908  51.976  1.00  0.00     0.178 HD
BRANCH  27  29
HETATM   29  S1  UNL     1      28.921   0.343  53.916  1.00  0.00     0.227 S 
HETATM   30  C1  UNL     1      28.901   2.118  53.935  1.00  0.00     0.186 C 
HETATM   31  O1  UNL     1      30.326  -0.185  53.736  1.00  0.00    -0.206 OA
HETATM   32  O2  UNL     1      28.468  -0.131  55.253  1.00  0.00    -0.206 OA
ENDBRANCH  27  29
ENDBRANCH   1  27
TORSDOF 4
ENDMDL
MODEL 3
REMARK VINA RESULT:      -8.6      7.102      9.177
REMARK  4 active torsions:
REMARK  status: ('A' for Active; 'I' for Inactive)
REMARK    1  A    between atoms: S1_2  and  N1_5 
REMARK    2  A    between atoms: N1_5  and  C2_6 
REMARK    3  A    between atoms: C8_15  and  N4_16 
REMARK    4  A    between atoms: N4_16  and  C9_17 
ROOT
HETATM    1  C2  UNL     1      26.414   6.922  48.208  1.00  0.00     0.055 A 
HETATM    2  C3  UNL     1      27.515   6.096  48.378  1.00  0.00     0.034 A 
HETATM    3  C4  UNL     1      27.492   4.876  48.992  1.00  0.00     0.040 A 
HETATM    4  C5  UNL     1      26.413   4.243  49.548  1.00  0.00     0.087 A 
HETATM    5  O3  UNL     1      26.840   3.006  50.072  1.00  0.00    -0.289 OA
HETATM    6  C6  UNL     1      26.140   2.222  51.008  1.00  0.00     0.202 A 
HETATM    7  N2  UNL     1      26.914   1.141  51.281  1.00  0.00    -0.215 NA
HETATM    8  C7  UNL     1      26.383   0.282  52.169  1.00  0.00     0.238 A 
HETATM    9  N3  UNL     1      25.192   0.444  52.754  1.00  0.00    -0.222 NA
HETATM   10  C8  UNL     1      24.408   1.497  52.505  1.00  0.00     0.160 A 
HETATM   11  C15 UNL     1      24.902   2.393  51.615  1.00  0.00     0.129 A 
HETATM   12  N5  UNL     1      24.036   3.526  51.387  1.00  0.00    -0.379 N 
HETATM   13  C16 UNL     1      23.835   4.230  50.123  1.00  0.00     0.163 C 
HETATM   14  C17 UNL     1      25.115   4.727  49.592  1.00  0.00     0.009 A 
HETATM   15  P1  UNL     1      24.903   6.304  48.851  1.00  0.00     0.009 P 
HETATM   16  H12 UNL     1      23.574   3.749  52.326  1.00  0.00     0.160 HD
ENDROOT
BRANCH  10  17
HETATM   17  N4  UNL     1      23.149   1.679  53.109  1.00  0.00    -0.339 N 
HETATM   18  H8  UNL     1      22.707   2.538  53.485  1.00  0.00     0.167 HD
BRANCH  17  19
HETATM   19  C9  UNL     1      22.149   0.696  53.328  1.00  0.00     0.035 A 
HETATM   20  C10 UNL     1      22.152  -0.345  54.249  1.00  0.00     0.032 A 
HETATM   21  C11 UNL     1      21.151  -1.257  54.424  1.00  0.00     0.046 A 
HETATM   22  C12 UNL     1      20.029  -1.177  53.644  1.00  0.00     0.138 A 
HETATM   23  F1  UNL     1      19.073  -2.101  53.856  1.00  0.00    -0.204 F 
HETATM   24  C13 UNL     1      19.975  -0.158  52.710  1.00  0.00     0.074 A 
HETATM   25 CL1  UNL     1      18.492  -0.146  51.762  1.00  0.00    -0.081 Cl
HETATM   26  C14 UNL     1      21.000   0.736  52.567  1.00  0.00     0.056 A 
ENDBRANCH  17  19
ENDBRANCH  10  17
BRANCH   1  27
HETATM   27  N1  UNL     1      26.456   8.188  47.566  1.00  0.00    -0.284 N 
HETATM   28  H4  UNL     1      26.112   8.224  46.582  1.00  0.00     0.178 HD
BRANCH  27  29
HETATM   29  S1  UNL     1      27.035   9.602  48.337  1.00  0.00     0.227 S 
HETATM   30  C1  UNL     1      27.330   9.273  50.057  1.00  0.00     0.186 C 
HETATM   31  O1  UNL     1      26.084  10.764  48.159  1.00  0.00    -0.206 OA
HETATM   32  O2  UNL     1      28.325  10.026  47.727  1.00  0.00    -0.206 OA
ENDBRANCH  27  29
ENDBRANCH   1  27
TORSDOF 4
ENDMDL
MODEL 4
REMARK VINA RESULT:      -8.3      7.286      9.499
REMARK  4 active torsions:
REMARK  status: ('A' for Active; 'I' for Inactive)
REMARK    1  A    between atoms: S1_2  and  N1_5 
REMARK    2  A    between atoms: N1_5  and  C2_6 
REMARK    3  A    between atoms: C8_15  and  N4_16 
REMARK    4  A    between atoms: N4_16  and  C9_17 
ROOT
HETATM    1  C2  UNL     1      24.685   1.696  52.724  1.00  0.00     0.055 A 
HETATM    2  C3  UNL     1      23.870   2.749  53.112  1.00  0.00     0.034 A 
HETATM    3  C4  UNL     1      23.782   3.951  52.469  1.00  0.00     0.040 A 
HETATM    4  C5  UNL     1      24.461   4.347  51.348  1.00  0.00     0.087 A 
HETATM    5  O3  UNL     1      24.068   5.663  51.028  1.00  0.00    -0.289 OA
HETATM    6  C6  UNL     1      24.761   6.545  50.179  1.00  0.00     0.202 A 
HETATM    7  N2  UNL     1      24.076   7.718  50.178  1.00  0.00    -0.215 NA
HETATM    8  C7  UNL     1      24.612   8.680  49.406  1.00  0.00     0.238 A 
HETATM    9  N3  UNL     1      25.727   8.530  48.684  1.00  0.00    -0.222 NA
HETATM   10  C8  UNL     1      26.423   7.390  48.664  1.00  0.00     0.160 A 
HETATM   11  C15 UNL     1      25.920   6.389  49.429  1.00  0.00     0.129 A 
HETATM   12  N5  UNL     1      26.709   5.180  49.398  1.00  0.00    -0.379 N 
HETATM   13  C16 UNL     1      26.206   3.809  49.440  1.00  0.00     0.163 C 
HETATM   14  C17 UNL     1      25.380   3.591  50.639  1.00  0.00     0.009 A 
HETATM   15  P1  UNL     1      25.656   1.985  51.292  1.00  0.00     0.009 P 
HETATM   16  H12 UNL     1      27.732   5.486  49.342  1.00  0.00     0.160 HD
ENDROOT
BRANCH  10  17
HETATM   17  N4  UNL     1      27.595   7.216  47.904  1.00  0.00    -0.339 N 
HETATM   18  H8  UNL     1      27.714   6.898  46.925  1.00  0.00     0.167 HD
BRANCH  17  19
HETATM   19  C9  UNL     1      28.931   7.469  48.312  1.00  0.00     0.035 A 
HETATM   20  C10 UNL     1      29.462   8.640  48.839  1.00  0.00     0.032 A 
HETATM   21  C11 UNL     1      30.759   8.823  49.227  1.00  0.00     0.046 A 
HETATM   22  C12 UNL     1      31.646   7.787  49.103  1.00  0.00     0.138 A 
HETATM   23  F1  UNL     1      32.912   8.019  49.500  1.00  0.00    -0.204 F 
HETATM   24  C13 UNL     1      31.167   6.598  48.584  1.00  0.00     0.074 A 
HETATM   25 CL1  UNL     1      32.389   5.335  48.467  1.00  0.00    -0.081 Cl
HETATM   26  C14 UNL     1      29.860   6.457  48.207  1.00  0.00     0.056 A 
ENDBRANCH  17  19
ENDBRANCH  10  17
BRANCH   1  27
HETATM   27  N1  UNL     1      24.762   0.452  53.405  1.00  0.00    -0.284 N 
HETATM   28  H4  UNL     1      23.944  -0.187  53.305  1.00  0.00     0.178 HD
BRANCH  27  29
HETATM   29  S1  UNL     1      26.114  -0.006  54.350  1.00  0.00     0.227 S 
HETATM   30  C1  UNL     1      27.320  -0.813  53.327  1.00  0.00     0.186 C 
HETATM   31  O1  UNL     1      25.710  -0.885  55.512  1.00  0.00    -0.206 OA
HETATM   32  O2  UNL     1      26.755   1.198  54.945  1.00  0.00    -0.206 OA
ENDBRANCH  27  29
ENDBRANCH   1  27
TORSDOF 4
ENDMDL
MODEL 5
REMARK VINA RESULT:      -8.2      8.104     10.323
REMARK  4 active torsions:
REMARK  status: ('A' for Active; 'I' for Inactive)
REMARK    1  A    between atoms: S1_2  and  N1_5 
REMARK    2  A    between atoms: N1_5  and  C2_6 
REMARK    3  A    between atoms: C8_15  and  N4_16 
REMARK    4  A    between atoms: N4_16  and  C9_17 
ROOT
HETATM    1  C2  UNL     1      25.547   1.552  52.402  1.00  0.00     0.055 A 
HETATM    2  C3  UNL     1      24.465   2.290  52.858  1.00  0.00     0.034 A 
HETATM    3  C4  UNL     1      24.040   3.472  52.323  1.00  0.00     0.040 A 
HETATM    4  C5  UNL     1      24.580   4.147  51.261  1.00  0.00     0.087 A 
HETATM    5  O3  UNL     1      23.829   5.321  51.048  1.00  0.00    -0.289 OA
HETATM    6  C6  UNL     1      24.243   6.439  50.300  1.00  0.00     0.202 A 
HETATM    7  N2  UNL     1      23.253   7.364  50.384  1.00  0.00    -0.215 NA
HETATM    8  C7  UNL     1      23.495   8.506  49.716  1.00  0.00     0.238 A 
HETATM    9  N3  UNL     1      24.607   8.747  49.015  1.00  0.00    -0.222 NA
HETATM   10  C8  UNL     1      25.599   7.857  48.914  1.00  0.00     0.160 A 
HETATM   11  C15 UNL     1      25.400   6.688  49.572  1.00  0.00     0.129 A 
HETATM   12  N5  UNL     1      26.501   5.760  49.456  1.00  0.00    -0.379 N 
HETATM   13  C16 UNL     1      26.409   4.306  49.362  1.00  0.00     0.163 C 
HETATM   14  C17 UNL     1      25.678   3.752  50.513  1.00  0.00     0.009 A 
HETATM   15  P1  UNL     1      26.399   2.237  51.029  1.00  0.00     0.009 P 
HETATM   16  H12 UNL     1      27.395   6.348  49.456  1.00  0.00     0.160 HD
ENDROOT
BRANCH  10  17
HETATM   17  N4  UNL     1      26.773   8.094  48.174  1.00  0.00    -0.339 N 
HETATM   18  H8  UNL     1      27.059   7.737  47.244  1.00  0.00     0.167 HD
BRANCH  17  19
HETATM   19  C9  UNL     1      27.864   8.926  48.536  1.00  0.00     0.035 A 
HETATM   20  C10 UNL     1      29.154   8.548  48.892  1.00  0.00     0.032 A 
HETATM   21  C11 UNL     1      30.172   9.398  49.218  1.00  0.00     0.046 A 
HETATM   22  C12 UNL     1      29.945  10.748  49.209  1.00  0.00     0.138 A 
HETATM   23  F1  UNL     1      30.981  11.542  49.539  1.00  0.00    -0.204 F 
HETATM   24  C13 UNL     1      28.677  11.178  48.860  1.00  0.00     0.074 A 
HETATM   25 CL1  UNL     1      28.494  12.929  48.880  1.00  0.00    -0.081 Cl
HETATM   26  C14 UNL     1      27.685  10.293  48.539  1.00  0.00     0.056 A 
ENDBRANCH  17  19
ENDBRANCH  10  17
BRANCH   1  27
HETATM   27  N1  UNL     1      25.975   0.323  52.971  1.00  0.00    -0.284 N 
HETATM   28  H4  UNL     1      25.492  -0.539  52.637  1.00  0.00     0.178 HD
BRANCH  27  29
HETATM   29  S1  UNL     1      27.215   0.227  54.147  1.00  0.00     0.227 S 
HETATM   30  C1  UNL     1      28.635  -0.587  53.461  1.00  0.00     0.186 C 
HETATM   31  O1  UNL     1      26.740  -0.471  55.402  1.00  0.00    -0.206 OA
HETATM   32  O2  UNL     1      27.631   1.593  54.565  1.00  0.00    -0.206 OA
ENDBRANCH  27  29
ENDBRANCH   1  27
TORSDOF 4
ENDMDL
MODEL 6
REMARK VINA RESULT:      -8.1      6.056     10.089
REMARK  4 active torsions:
REMARK  status: ('A' for Active; 'I' for Inactive)
REMARK    1  A    between atoms: S1_2  and  N1_5 
REMARK    2  A    between atoms: N1_5  and  C2_6 
REMARK    3  A    between atoms: C8_15  and  N4_16 
REMARK    4  A    between atoms: N4_16  and  C9_17 
ROOT
HETATM    1  C2  UNL     1      25.993   0.843  53.812  1.00  0.00     0.055 A 
HETATM    2  C3  UNL     1      25.809   2.202  53.611  1.00  0.00     0.034 A 
HETATM    3  C4  UNL     1      24.641   2.784  53.206  1.00  0.00     0.040 A 
HETATM    4  C5  UNL     1      23.454   2.161  52.925  1.00  0.00     0.087 A 
HETATM    5  O3  UNL     1      22.514   3.141  52.544  1.00  0.00    -0.289 OA
HETATM    6  C6  UNL     1      21.308   2.901  51.859  1.00  0.00     0.202 A 
HETATM    7  N2  UNL     1      20.725   4.109  51.645  1.00  0.00    -0.215 NA
HETATM    8  C7  UNL     1      19.550   4.056  50.993  1.00  0.00     0.238 A 
HETATM    9  N3  UNL     1      18.972   2.926  50.575  1.00  0.00    -0.222 NA
HETATM   10  C8  UNL     1      19.520   1.723  50.771  1.00  0.00     0.160 A 
HETATM   11  C15 UNL     1      20.708   1.726  51.425  1.00  0.00     0.129 A 
HETATM   12  N5  UNL     1      21.280   0.411  51.600  1.00  0.00    -0.379 N 
HETATM   13  C16 UNL     1      22.040  -0.063  52.753  1.00  0.00     0.163 C 
HETATM   14  C17 UNL     1      23.207   0.800  53.001  1.00  0.00     0.009 A 
HETATM   15  P1  UNL     1      24.586  -0.160  53.509  1.00  0.00     0.009 P 
HETATM   16  H12 UNL     1      21.039  -0.144  50.718  1.00  0.00     0.160 HD
ENDROOT
BRANCH  10  17
HETATM   17  N4  UNL     1      18.920   0.524  50.342  1.00  0.00    -0.339 N 
HETATM   18  H8  UNL     1      19.143  -0.080  49.530  1.00  0.00     0.167 HD
BRANCH  17  19
HETATM   19  C9  UNL     1      17.849  -0.172  50.961  1.00  0.00     0.035 A 
HETATM   20  C10 UNL     1      17.839  -0.816  52.193  1.00  0.00     0.032 A 
HETATM   21  C11 UNL     1      16.770  -1.462  52.746  1.00  0.00     0.046 A 
HETATM   22  C12 UNL     1      15.586  -1.502  52.060  1.00  0.00     0.138 A 
HETATM   23  F1  UNL     1      14.563  -2.151  52.649  1.00  0.00    -0.204 F 
HETATM   24  C13 UNL     1      15.542  -0.875  50.828  1.00  0.00     0.074 A 
HETATM   25 CL1  UNL     1      13.975  -0.987  50.033  1.00  0.00    -0.081 Cl
HETATM   26  C14 UNL     1      16.636  -0.239  50.310  1.00  0.00     0.056 A 
ENDBRANCH  17  19
ENDBRANCH  10  17
BRANCH   1  27
HETATM   27  N1  UNL     1      27.215   0.255  54.234  1.00  0.00    -0.284 N 
HETATM   28  H4  UNL     1      27.145  -0.652  54.745  1.00  0.00     0.178 HD
BRANCH  27  29
HETATM   29  S1  UNL     1      28.741   0.972  53.939  1.00  0.00     0.227 S 
HETATM   30  C1  UNL     1      29.931  -0.283  53.539  1.00  0.00     0.186 C 
HETATM   31  O1  UNL     1      29.202   1.807  55.112  1.00  0.00    -0.206 OA
HETATM   32  O2  UNL     1      28.654   1.901  52.779  1.00  0.00    -0.206 OA
ENDBRANCH  27  29
ENDBRANCH   1  27
TORSDOF 4
ENDMDL
MODEL 7
REMARK VINA RESULT:      -7.9      7.574     10.068
REMARK  4 active torsions:
REMARK  status: ('A' for Active; 'I' for Inactive)
REMARK    1  A    between atoms: S1_2  and  N1_5 
REMARK    2  A    between atoms: N1_5  and  C2_6 
REMARK    3  A    between atoms: C8_15  and  N4_16 
REMARK    4  A    between atoms: N4_16  and  C9_17 
ROOT
HETATM    1  C2  UNL     1      25.854   1.139  52.357  1.00  0.00     0.055 A 
HETATM    2  C3  UNL     1      24.572   1.391  52.821  1.00  0.00     0.034 A 
HETATM    3  C4  UNL     1      23.804   2.461  52.462  1.00  0.00     0.040 A 
HETATM    4  C5  UNL     1      24.134   3.470  51.598  1.00  0.00     0.087 A 
HETATM    5  O3  UNL     1      23.047   4.365  51.518  1.00  0.00    -0.289 OA
HETATM    6  C6  UNL     1      23.100   5.683  51.027  1.00  0.00     0.202 A 
HETATM    7  N2  UNL     1      21.858   6.212  51.170  1.00  0.00    -0.215 NA
HETATM    8  C7  UNL     1      21.737   7.482  50.742  1.00  0.00     0.238 A 
HETATM    9  N3  UNL     1      22.736   8.196  50.214  1.00  0.00    -0.222 NA
HETATM   10  C8  UNL     1      23.968   7.704  50.061  1.00  0.00     0.160 A 
HETATM   11  C15 UNL     1      24.139   6.425  50.479  1.00  0.00     0.129 A 
HETATM   12  N5  UNL     1      25.488   5.934  50.316  1.00  0.00    -0.379 N 
HETATM   13  C16 UNL     1      25.884   4.575  49.957  1.00  0.00     0.163 C 
HETATM   14  C17 UNL     1      25.330   3.599  50.910  1.00  0.00     0.009 A 
HETATM   15  P1  UNL     1      26.488   2.318  51.222  1.00  0.00     0.009 P 
HETATM   16  H12 UNL     1      26.137   6.761  50.512  1.00  0.00     0.160 HD
ENDROOT
BRANCH  10  17
HETATM   17  N4  UNL     1      25.028   8.442  49.501  1.00  0.00    -0.339 N 
HETATM   18  H8  UNL     1      25.708   9.080  49.952  1.00  0.00     0.167 HD
BRANCH  17  19
HETATM   19  C9  UNL     1      25.439   8.462  48.142  1.00  0.00     0.035 A 
HETATM   20  C10 UNL     1      24.665   8.696  47.012  1.00  0.00     0.032 A 
HETATM   21  C11 UNL     1      25.119   8.716  45.725  1.00  0.00     0.046 A 
HETATM   22  C12 UNL     1      26.448   8.490  45.481  1.00  0.00     0.138 A 
HETATM   23  F1  UNL     1      26.844   8.521  44.194  1.00  0.00    -0.204 F 
HETATM   24  C13 UNL     1      27.263   8.253  46.573  1.00  0.00     0.074 A 
HETATM   25 CL1  UNL     1      28.949   7.976  46.148  1.00  0.00    -0.081 Cl
HETATM   26  C14 UNL     1      26.767   8.241  47.847  1.00  0.00     0.056 A 
ENDBRANCH  17  19
ENDBRANCH  10  17
BRANCH   1  27
HETATM   27  N1  UNL     1      26.639   0.020  52.741  1.00  0.00    -0.284 N 
HETATM   28  H4  UNL     1      26.559  -0.834  52.146  1.00  0.00     0.178 HD
BRANCH  27  29
HETATM   29  S1  UNL     1      27.673   0.035  54.106  1.00  0.00     0.227 S 
HETATM   30  C1  UNL     1      29.149  -0.887  53.755  1.00  0.00     0.186 C 
HETATM   31  O1  UNL     1      26.978  -0.496  55.339  1.00  0.00    -0.206 OA
HETATM   32  O2  UNL     1      28.075   1.432  54.427  1.00  0.00    -0.206 OA
ENDBRANCH  27  29
ENDBRANCH   1  27
TORSDOF 4
ENDMDL
MODEL 8
REMARK VINA RESULT:      -7.9      6.507      8.744
REMARK  4 active torsions:
REMARK  status: ('A' for Active; 'I' for Inactive)
REMARK    1  A    between atoms: S1_2  and  N1_5 
REMARK    2  A    between atoms: N1_5  and  C2_6 
REMARK    3  A    between atoms: C8_15  and  N4_16 
REMARK    4  A    between atoms: N4_16  and  C9_17 
ROOT
HETATM    1  C2  UNL     1      25.839   6.006  48.624  1.00  0.00     0.055 A 
HETATM    2  C3  UNL     1      26.893   5.182  48.989  1.00  0.00     0.034 A 
HETATM    3  C4  UNL     1      26.770   4.015  49.689  1.00  0.00     0.040 A 
HETATM    4  C5  UNL     1      25.618   3.442  50.157  1.00  0.00     0.087 A 
HETATM    5  O3  UNL     1      25.952   2.244  50.822  1.00  0.00    -0.289 OA
HETATM    6  C6  UNL     1      25.128   1.546  51.724  1.00  0.00     0.202 A 
HETATM    7  N2  UNL     1      25.840   0.481  52.172  1.00  0.00    -0.215 NA
HETATM    8  C7  UNL     1      25.187  -0.299  53.053  1.00  0.00     0.238 A 
HETATM    9  N3  UNL     1      23.939  -0.075  53.475  1.00  0.00    -0.222 NA
HETATM   10  C8  UNL     1      23.213   0.964  53.053  1.00  0.00     0.160 A 
HETATM   11  C15 UNL     1      23.830   1.780  52.163  1.00  0.00     0.129 A 
HETATM   12  N5  UNL     1      23.023   2.902  51.744  1.00  0.00    -0.379 N 
HETATM   13  C16 UNL     1      22.990   3.506  50.415  1.00  0.00     0.163 C 
HETATM   14  C17 UNL     1      24.335   3.943  50.006  1.00  0.00     0.009 A 
HETATM   15  P1  UNL     1      24.249   5.459  49.125  1.00  0.00     0.009 P 
HETATM   16  H12 UNL     1      22.457   3.205  52.600  1.00  0.00     0.160 HD
ENDROOT
BRANCH  10  17
HETATM   17  N4  UNL     1      21.896   1.209  53.483  1.00  0.00    -0.339 N 
HETATM   18  H8  UNL     1      21.546   1.810  54.252  1.00  0.00     0.167 HD
BRANCH  17  19
HETATM   19  C9  UNL     1      20.697   0.690  52.927  1.00  0.00     0.035 A 
HETATM   20  C10 UNL     1      20.022   1.114  51.789  1.00  0.00     0.032 A 
HETATM   21  C11 UNL     1      18.875   0.566  51.291  1.00  0.00     0.046 A 
HETATM   22  C12 UNL     1      18.305  -0.496  51.941  1.00  0.00     0.138 A 
HETATM   23  F1  UNL     1      17.175  -1.000  51.410  1.00  0.00    -0.204 F 
HETATM   24  C13 UNL     1      18.939  -0.959  53.081  1.00  0.00     0.074 A 
HETATM   25 CL1  UNL     1      18.124  -2.325  53.837  1.00  0.00    -0.081 Cl
HETATM   26  C14 UNL     1      20.087  -0.380  53.545  1.00  0.00     0.056 A 
ENDBRANCH  17  19
ENDBRANCH  10  17
BRANCH   1  27
HETATM   27  N1  UNL     1      25.985   7.216  47.896  1.00  0.00    -0.284 N 
HETATM   28  H4  UNL     1      26.279   7.128  46.899  1.00  0.00     0.178 HD
BRANCH  27  29
HETATM   29  S1  UNL     1      25.702   8.756  48.588  1.00  0.00     0.227 S 
HETATM   30  C1  UNL     1      26.722   9.972  47.791  1.00  0.00     0.186 C 
HETATM   31  O1  UNL     1      25.931   8.746  50.083  1.00  0.00    -0.206 OA
HETATM   32  O2  UNL     1      24.281   9.153  48.389  1.00  0.00    -0.206 OA
ENDBRANCH  27  29
ENDBRANCH   1  27
TORSDOF 4
ENDMDL
MODEL 9
REMARK VINA RESULT:      -7.9      7.438      9.830
REMARK  4 active torsions:
REMARK  status: ('A' for Active; 'I' for Inactive)
REMARK    1  A    between atoms: S1_2  and  N1_5 
REMARK    2  A    between atoms: N1_5  and  C2_6 
REMARK    3  A    between atoms: C8_15  and  N4_16 
REMARK    4  A    between atoms: N4_16  and  C9_17 
ROOT
HETATM    1  C2  UNL     1      28.164   6.709  47.915  1.00  0.00     0.055 A 
HETATM    2  C3  UNL     1      27.149   7.628  48.136  1.00  0.00     0.034 A 
HETATM    3  C4  UNL     1      25.996   7.374  48.823  1.00  0.00     0.040 A 
HETATM    4  C5  UNL     1      25.622   6.197  49.414  1.00  0.00     0.087 A 
HETATM    5  O3  UNL     1      24.358   6.378  50.012  1.00  0.00    -0.289 OA
HETATM    6  C6  UNL     1      23.482   5.353  50.413  1.00  0.00     0.202 A 
HETATM    7  N2  UNL     1      22.362   5.951  50.894  1.00  0.00    -0.215 NA
HETATM    8  C7  UNL     1      21.413   5.100  51.323  1.00  0.00     0.238 A 
HETATM    9  N3  UNL     1      21.527   3.768  51.295  1.00  0.00    -0.222 NA
HETATM   10  C8  UNL     1      22.616   3.151  50.828  1.00  0.00     0.160 A 
HETATM   11  C15 UNL     1      23.602   3.969  50.382  1.00  0.00     0.129 A 
HETATM   12  N5  UNL     1      24.753   3.266  49.866  1.00  0.00    -0.379 N 
HETATM   13  C16 UNL     1      26.151   3.674  49.988  1.00  0.00     0.163 C 
HETATM   14  C17 UNL     1      26.354   5.020  49.429  1.00  0.00     0.009 A 
HETATM   15  P1  UNL     1      27.894   5.114  48.593  1.00  0.00     0.009 P 
HETATM   16  H12 UNL     1      24.381   2.392  49.376  1.00  0.00     0.160 HD
ENDROOT
BRANCH  10  17
HETATM   17  N4  UNL     1      22.754   1.750  50.797  1.00  0.00    -0.339 N 
HETATM   18  H8  UNL     1      22.931   1.114  49.998  1.00  0.00     0.167 HD
BRANCH  17  19
HETATM   19  C9  UNL     1      22.704   0.856  51.899  1.00  0.00     0.035 A 
HETATM   20  C10 UNL     1      21.613   0.137  52.375  1.00  0.00     0.032 A 
HETATM   21  C11 UNL     1      21.627  -0.722  53.436  1.00  0.00     0.046 A 
HETATM   22  C12 UNL     1      22.797  -0.921  54.120  1.00  0.00     0.138 A 
HETATM   23  F1  UNL     1      22.756  -1.778  55.158  1.00  0.00    -0.204 F 
HETATM   24  C13 UNL     1      23.913  -0.229  53.686  1.00  0.00     0.074 A 
HETATM   25 CL1  UNL     1      25.360  -0.557  54.634  1.00  0.00    -0.081 Cl
HETATM   26  C14 UNL     1      23.856   0.623  52.618  1.00  0.00     0.056 A 
ENDBRANCH  17  19
ENDBRANCH  10  17
BRANCH   1  27
HETATM   27  N1  UNL     1      29.357   6.992  47.198  1.00  0.00    -0.284 N 
HETATM   28  H4  UNL     1      29.375   6.713  46.194  1.00  0.00     0.178 HD
BRANCH  27  29
HETATM   29  S1  UNL     1      30.715   7.748  47.916  1.00  0.00     0.227 S 
HETATM   30  C1  UNL     1      31.402   6.693  49.168  1.00  0.00     0.186 C 
HETATM   31  O1  UNL     1      30.363   9.107  48.480  1.00  0.00    -0.206 OA
HETATM   32  O2  UNL     1      31.769   7.985  46.893  1.00  0.00    -0.206 OA
ENDBRANCH  27  29
ENDBRANCH   1  27
TORSDOF 4
ENDMDL
