MODEL 1
REMARK VINA RESULT:      -8.4      0.000      0.000
REMARK  8 active torsions:
REMARK  status: ('A' for Active; 'I' for Inactive)
REMARK    1  A    between atoms: C2_2  and  O1_3 
REMARK    2  A    between atoms: O1_3  and  C3_4 
REMARK    3  A    between atoms: C4_5  and  N1_6 
REMARK       I    between atoms: N1_6  and  C5_7 
REMARK    4  A    between atoms: C5_7  and  C6_9 
REMARK    5  A    between atoms: C7_10  and  C8_11 
REMARK    6  A    between atoms: C8_11  and  N2_12 
REMARK    7  A    between atoms: C11_15  and  N3_16 
REMARK    8  A    between atoms: N5_24  and  C18_25 
ROOT
HETATM    1  C3  UNL     1      23.296   2.900  50.055  1.00  0.00     0.184 C 
HETATM    2  C4  UNL     1      24.688   3.680  49.844  1.00  0.00     0.071 C 
HETATM    3  C11 UNL     1      25.379   2.930  50.787  1.00  0.00     0.078 C 
HETATM    4  C12 UNL     1      24.577   3.236  52.119  1.00  0.00     0.066 C 
HETATM    5  C13 UNL     1      23.640   4.136  51.881  1.00  0.00     0.017 C 
HETATM    6  C14 UNL     1      22.724   3.106  51.367  1.00  0.00     0.071 C 
HETATM    7  C15 UNL     1      22.642   2.207  52.576  1.00  0.00     0.026 C 
HETATM    8  C16 UNL     1      23.565   1.269  52.956  1.00  0.00     0.118 C 
HETATM    9  C17 UNL     1      23.268   0.013  53.562  1.00  0.00     0.118 C 
HETATM   10  N4  UNL     1      23.051  -0.986  54.047  1.00  0.00    -0.190 NA
HETATM   11  N5  UNL     1      24.901   1.874  52.628  1.00  0.00    -0.301 N 
ENDROOT
BRANCH  11  12
HETATM   12  C18 UNL     1      25.963   1.033  52.837  1.00  0.00     0.042 A 
HETATM   13  C19 UNL     1      26.104  -0.245  52.407  1.00  0.00     0.033 A 
HETATM   14  C20 UNL     1      27.258  -0.892  52.699  1.00  0.00     0.046 A 
HETATM   15  C21 UNL     1      28.248  -0.289  53.403  1.00  0.00     0.138 A 
HETATM   16  F1  UNL     1      29.372  -0.999  53.656  1.00  0.00    -0.204 F 
HETATM   17  C22 UNL     1      28.170   1.016  53.875  1.00  0.00     0.074 A 
HETATM   18 CL1  UNL     1      29.470   1.761  54.780  1.00  0.00    -0.081 Cl
HETATM   19  C23 UNL     1      26.984   1.666  53.568  1.00  0.00     0.057 A 
ENDBRANCH  11  12
BRANCH   1  20
HETATM   20  O1  UNL     1      22.489   3.700  49.174  1.00  0.00    -0.379 OA
BRANCH  20  21
HETATM   21  C2  UNL     1      22.359   3.058  47.947  1.00  0.00     0.164 C 
HETATM   22  C1  UNL     1      21.951   1.626  48.202  1.00  0.00     0.033 C 
ENDBRANCH  20  21
ENDBRANCH   1  20
BRANCH   3  23
HETATM   23  N3  UNL     1      26.642   2.258  50.472  1.00  0.00    -0.396 N 
HETATM   24  H18 UNL     1      26.927   2.851  49.635  1.00  0.00     0.156 HD
HETATM   25  H19 UNL     1      27.145   1.476  50.878  1.00  0.00     0.156 HD
ENDBRANCH   3  23
BRANCH   2  26
HETATM   26  N1  UNL     1      25.425   4.659  49.112  1.00  0.00    -0.323 N 
HETATM   27  C5  UNL     1      25.705   5.983  49.434  1.00  0.00     0.245 C 
HETATM   28  O2  UNL     1      25.275   6.423  50.510  1.00  0.00    -0.268 OA
HETATM   29  H7  UNL     1      25.818   4.409  48.185  1.00  0.00     0.169 HD
BRANCH  27  30
HETATM   30  C6  UNL     1      26.463   6.883  48.602  1.00  0.00     0.072 C 
HETATM   31  C7  UNL     1      27.679   6.641  48.162  1.00  0.00     0.008 C 
BRANCH  31  32
HETATM   32  C8  UNL     1      28.716   5.594  48.230  1.00  0.00     0.299 C 
BRANCH  32  33
HETATM   33  N2  UNL     1      30.022   6.184  48.527  1.00  0.00     0.083 N 
HETATM   34  C9  UNL     1      31.035   5.367  47.850  1.00  0.00     0.309 C 
HETATM   35  C10 UNL     1      30.069   7.551  48.046  1.00  0.00     0.309 C 
ENDBRANCH  32  33
ENDBRANCH  31  32
ENDBRANCH  27  30
ENDBRANCH   2  26
TORSDOF 8
ENDMDL
MODEL 2
REMARK VINA RESULT:      -8.2      4.402      6.964
REMARK  8 active torsions:
REMARK  status: ('A' for Active; 'I' for Inactive)
REMARK    1  A    between atoms: C2_2  and  O1_3 
REMARK    2  A    between atoms: O1_3  and  C3_4 
REMARK    3  A    between atoms: C4_5  and  N1_6 
REMARK       I    between atoms: N1_6  and  C5_7 
REMARK    4  A    between atoms: C5_7  and  C6_9 
REMARK    5  A    between atoms: C7_10  and  C8_11 
REMARK    6  A    between atoms: C8_11  and  N2_12 
REMARK    7  A    between atoms: C11_15  and  N3_16 
REMARK    8  A    between atoms: N5_24  and  C18_25 
ROOT
HETATM    1  C3  UNL     1      23.017   1.759  52.805  1.00  0.00     0.184 C 
HETATM    2  C4  UNL     1      24.440   2.511  52.852  1.00  0.00     0.071 C 
HETATM    3  C11 UNL     1      24.040   3.554  52.028  1.00  0.00     0.078 C 
HETATM    4  C12 UNL     1      23.667   2.802  50.683  1.00  0.00     0.066 C 
HETATM    5  C13 UNL     1      23.955   1.518  50.795  1.00  0.00     0.017 C 
HETATM    6  C14 UNL     1      22.686   1.253  51.493  1.00  0.00     0.071 C 
HETATM    7  C15 UNL     1      21.711   1.739  50.448  1.00  0.00     0.026 C 
HETATM    8  C16 UNL     1      21.364   3.041  50.204  1.00  0.00     0.118 C 
HETATM    9  C17 UNL     1      20.068   3.493  49.818  1.00  0.00     0.118 C 
HETATM   10  N4  UNL     1      19.047   3.870  49.508  1.00  0.00    -0.190 NA
HETATM   11  N5  UNL     1      22.628   3.830  50.395  1.00  0.00    -0.301 N 
ENDROOT
BRANCH  11  12
HETATM   12  C18 UNL     1      22.461   5.187  50.300  1.00  0.00     0.042 A 
HETATM   13  C19 UNL     1      21.692   5.983  51.084  1.00  0.00     0.033 A 
HETATM   14  C20 UNL     1      21.696   7.315  50.835  1.00  0.00     0.046 A 
HETATM   15  C21 UNL     1      22.440   7.846  49.833  1.00  0.00     0.138 A 
HETATM   16  F1  UNL     1      22.392   9.185  49.646  1.00  0.00    -0.204 F 
HETATM   17  C22 UNL     1      23.248   7.090  48.993  1.00  0.00     0.074 A 
HETATM   18 CL1  UNL     1      24.196   7.811  47.710  1.00  0.00    -0.081 Cl
HETATM   19  C23 UNL     1      23.236   5.729  49.259  1.00  0.00     0.057 A 
ENDBRANCH  11  12
BRANCH   1  20
HETATM   20  O1  UNL     1      23.387   0.595  53.564  1.00  0.00    -0.379 OA
BRANCH  20  21
HETATM   21  C2  UNL     1      22.386  -0.365  53.468  1.00  0.00     0.164 C 
HETATM   22  C1  UNL     1      21.567  -0.324  54.736  1.00  0.00     0.033 C 
ENDBRANCH  20  21
ENDBRANCH   1  20
BRANCH   3  23
HETATM   23  N3  UNL     1      24.200   4.958  52.417  1.00  0.00    -0.396 N 
HETATM   24  H18 UNL     1      23.375   5.361  51.880  1.00  0.00     0.156 HD
HETATM   25  H19 UNL     1      24.861   5.455  53.006  1.00  0.00     0.156 HD
ENDBRANCH   3  23
BRANCH   2  26
HETATM   26  N1  UNL     1      25.758   2.568  53.396  1.00  0.00    -0.323 N 
HETATM   27  C5  UNL     1      26.985   2.364  52.774  1.00  0.00     0.245 C 
HETATM   28  O2  UNL     1      26.985   2.093  51.564  1.00  0.00    -0.268 OA
HETATM   29  H7  UNL     1      25.881   2.769  54.406  1.00  0.00     0.169 HD
BRANCH  27  30
HETATM   30  C6  UNL     1      28.262   2.446  53.438  1.00  0.00     0.072 C 
HETATM   31  C7  UNL     1      28.831   1.448  54.079  1.00  0.00     0.008 C 
BRANCH  31  32
HETATM   32  C8  UNL     1      28.581   0.034  54.414  1.00  0.00     0.299 C 
BRANCH  32  33
HETATM   33  N2  UNL     1      28.506  -0.776  53.199  1.00  0.00     0.083 N 
HETATM   34  C9  UNL     1      29.435  -1.900  53.363  1.00  0.00     0.309 C 
HETATM   35  C10 UNL     1      27.153  -1.262  53.009  1.00  0.00     0.309 C 
ENDBRANCH  32  33
ENDBRANCH  31  32
ENDBRANCH  27  30
ENDBRANCH   2  26
TORSDOF 8
ENDMDL
MODEL 3
REMARK VINA RESULT:      -8.0      3.524      6.816
REMARK  8 active torsions:
REMARK  status: ('A' for Active; 'I' for Inactive)
REMARK    1  A    between atoms: C2_2  and  O1_3 
REMARK    2  A    between atoms: O1_3  and  C3_4 
REMARK    3  A    between atoms: C4_5  and  N1_6 
REMARK       I    between atoms: N1_6  and  C5_7 
REMARK    4  A    between atoms: C5_7  and  C6_9 
REMARK    5  A    between atoms: C7_10  and  C8_11 
REMARK    6  A    between atoms: C8_11  and  N2_12 
REMARK    7  A    between atoms: C11_15  and  N3_16 
REMARK    8  A    between atoms: N5_24  and  C18_25 
ROOT
HETATM    1  C3  UNL     1      21.106   2.536  51.681  1.00  0.00     0.184 C 
HETATM    2  C4  UNL     1      22.503   2.090  52.344  1.00  0.00     0.071 C 
HETATM    3  C11 UNL     1      23.257   3.031  51.656  1.00  0.00     0.078 C 
HETATM    4  C12 UNL     1      23.015   2.623  50.144  1.00  0.00     0.066 C 
HETATM    5  C13 UNL     1      22.293   1.518  50.090  1.00  0.00     0.017 C 
HETATM    6  C14 UNL     1      21.043   2.277  50.260  1.00  0.00     0.071 C 
HETATM    7  C15 UNL     1      21.137   3.198  49.069  1.00  0.00     0.026 C 
HETATM    8  C16 UNL     1      21.883   4.344  48.984  1.00  0.00     0.118 C 
HETATM    9  C17 UNL     1      21.502   5.529  48.287  1.00  0.00     0.118 C 
HETATM   10  N4  UNL     1      21.220   6.476  47.737  1.00  0.00    -0.190 NA
HETATM   11  N5  UNL     1      23.150   4.048  49.736  1.00  0.00    -0.301 N 
ENDROOT
BRANCH  11  12
HETATM   12  C18 UNL     1      23.991   5.123  49.859  1.00  0.00     0.042 A 
HETATM   13  C19 UNL     1      23.763   6.281  50.527  1.00  0.00     0.033 A 
HETATM   14  C20 UNL     1      24.751   7.207  50.550  1.00  0.00     0.046 A 
HETATM   15  C21 UNL     1      25.936   6.995  49.926  1.00  0.00     0.138 A 
HETATM   16  F1  UNL     1      26.874   7.968  49.994  1.00  0.00    -0.204 F 
HETATM   17  C22 UNL     1      26.236   5.834  49.223  1.00  0.00     0.074 A 
HETATM   18 CL1  UNL     1      27.778   5.595  48.429  1.00  0.00    -0.081 Cl
HETATM   19  C23 UNL     1      25.216   4.895  49.208  1.00  0.00     0.057 A 
ENDBRANCH  11  12
BRANCH   1  20
HETATM   20  O1  UNL     1      20.277   1.523  52.275  1.00  0.00    -0.379 OA
BRANCH  20  21
HETATM   21  C2  UNL     1      19.045   1.488  51.630  1.00  0.00     0.164 C 
HETATM   22  C1  UNL     1      18.487   0.089  51.753  1.00  0.00     0.033 C 
ENDBRANCH  20  21
ENDBRANCH   1  20
BRANCH   3  23
HETATM   23  N3  UNL     1      24.159   3.959  52.344  1.00  0.00    -0.396 N 
HETATM   24  H18 UNL     1      23.755   4.870  51.971  1.00  0.00     0.156 HD
HETATM   25  H19 UNL     1      24.937   3.841  52.984  1.00  0.00     0.156 HD
ENDBRANCH   3  23
BRANCH   2  26
HETATM   26  N1  UNL     1      23.181   1.268  53.294  1.00  0.00    -0.323 N 
HETATM   27  C5  UNL     1      23.123  -0.108  53.480  1.00  0.00     0.245 C 
HETATM   28  O2  UNL     1      22.388  -0.765  52.728  1.00  0.00    -0.268 OA
HETATM   29  H7  UNL     1      23.812   1.712  53.989  1.00  0.00     0.169 HD
BRANCH  27  30
HETATM   30  C6  UNL     1      23.859  -0.829  54.487  1.00  0.00     0.072 C 
HETATM   31  C7  UNL     1      25.172  -0.908  54.534  1.00  0.00     0.008 C 
BRANCH  31  32
HETATM   32  C8  UNL     1      26.357  -0.437  53.794  1.00  0.00     0.299 C 
BRANCH  32  33
HETATM   33  N2  UNL     1      26.967   0.705  54.474  1.00  0.00     0.083 N 
HETATM   34  C9  UNL     1      28.386   0.391  54.673  1.00  0.00     0.309 C 
HETATM   35  C10 UNL     1      26.823   1.899  53.664  1.00  0.00     0.309 C 
ENDBRANCH  32  33
ENDBRANCH  31  32
ENDBRANCH  27  30
ENDBRANCH   2  26
TORSDOF 8
ENDMDL
MODEL 4
REMARK VINA RESULT:      -7.8      1.471      2.330
REMARK  8 active torsions:
REMARK  status: ('A' for Active; 'I' for Inactive)
REMARK    1  A    between atoms: C2_2  and  O1_3 
REMARK    2  A    between atoms: O1_3  and  C3_4 
REMARK    3  A    between atoms: C4_5  and  N1_6 
REMARK       I    between atoms: N1_6  and  C5_7 
REMARK    4  A    between atoms: C5_7  and  C6_9 
REMARK    5  A    between atoms: C7_10  and  C8_11 
REMARK    6  A    between atoms: C8_11  and  N2_12 
REMARK    7  A    between atoms: C11_15  and  N3_16 
REMARK    8  A    between atoms: N5_24  and  C18_25 
ROOT
HETATM    1  C3  UNL     1      23.365   2.979  50.007  1.00  0.00     0.184 C 
HETATM    2  C4  UNL     1      24.765   3.750  49.813  1.00  0.00     0.071 C 
HETATM    3  C11 UNL     1      25.441   2.992  50.759  1.00  0.00     0.078 C 
HETATM    4  C12 UNL     1      24.628   3.298  52.085  1.00  0.00     0.066 C 
HETATM    5  C13 UNL     1      23.700   4.205  51.840  1.00  0.00     0.017 C 
HETATM    6  C14 UNL     1      22.782   3.184  51.313  1.00  0.00     0.071 C 
HETATM    7  C15 UNL     1      22.682   2.281  52.518  1.00  0.00     0.026 C 
HETATM    8  C16 UNL     1      23.595   1.335  52.903  1.00  0.00     0.118 C 
HETATM    9  C17 UNL     1      23.283   0.079  53.502  1.00  0.00     0.118 C 
HETATM   10  N4  UNL     1      23.055  -0.920  53.981  1.00  0.00    -0.190 NA
HETATM   11  N5  UNL     1      24.938   1.932  52.591  1.00  0.00    -0.301 N 
ENDROOT
BRANCH  11  12
HETATM   12  C18 UNL     1      25.992   1.083  52.808  1.00  0.00     0.042 A 
HETATM   13  C19 UNL     1      26.128  -0.195  52.375  1.00  0.00     0.033 A 
HETATM   14  C20 UNL     1      27.274  -0.850  52.676  1.00  0.00     0.046 A 
HETATM   15  C21 UNL     1      28.263  -0.256  53.390  1.00  0.00     0.138 A 
HETATM   16  F1  UNL     1      29.379  -0.975  53.651  1.00  0.00    -0.204 F 
HETATM   17  C22 UNL     1      28.190   1.048  53.865  1.00  0.00     0.074 A 
HETATM   18 CL1  UNL     1      29.487   1.781  54.783  1.00  0.00    -0.081 Cl
HETATM   19  C23 UNL     1      27.011   1.706  53.549  1.00  0.00     0.057 A 
ENDBRANCH  11  12
BRANCH   1  20
HETATM   20  O1  UNL     1      22.573   3.788  49.121  1.00  0.00    -0.379 OA
BRANCH  20  21
HETATM   21  C2  UNL     1      21.568   3.013  48.552  1.00  0.00     0.164 C 
HETATM   22  C1  UNL     1      22.213   1.827  47.872  1.00  0.00     0.033 C 
ENDBRANCH  20  21
ENDBRANCH   1  20
BRANCH   3  23
HETATM   23  N3  UNL     1      26.703   2.313  50.454  1.00  0.00    -0.396 N 
HETATM   24  H18 UNL     1      26.843   1.822  51.387  1.00  0.00     0.156 HD
HETATM   25  H19 UNL     1      27.304   2.276  49.637  1.00  0.00     0.156 HD
ENDBRANCH   3  23
BRANCH   2  26
HETATM   26  N1  UNL     1      25.516   4.728  49.092  1.00  0.00    -0.323 N 
HETATM   27  C5  UNL     1      25.743   6.068  49.387  1.00  0.00     0.245 C 
HETATM   28  O2  UNL     1      25.241   6.527  50.424  1.00  0.00    -0.268 OA
HETATM   29  H7  UNL     1      25.967   4.461  48.197  1.00  0.00     0.169 HD
BRANCH  27  30
HETATM   30  C6  UNL     1      26.522   6.963  48.570  1.00  0.00     0.072 C 
HETATM   31  C7  UNL     1      26.036   7.677  47.578  1.00  0.00     0.008 C 
BRANCH  31  32
HETATM   32  C8  UNL     1      24.756   7.926  46.889  1.00  0.00     0.299 C 
BRANCH  32  33
HETATM   33  N2  UNL     1      24.245   9.256  47.222  1.00  0.00     0.083 N 
HETATM   34  C9  UNL     1      23.544   9.147  48.507  1.00  0.00     0.309 C 
HETATM   35  C10 UNL     1      25.342  10.198  47.322  1.00  0.00     0.309 C 
ENDBRANCH  32  33
ENDBRANCH  31  32
ENDBRANCH  27  30
ENDBRANCH   2  26
TORSDOF 8
ENDMDL
MODEL 5
REMARK VINA RESULT:      -7.7      3.788      6.882
REMARK  8 active torsions:
REMARK  status: ('A' for Active; 'I' for Inactive)
REMARK    1  A    between atoms: C2_2  and  O1_3 
REMARK    2  A    between atoms: O1_3  and  C3_4 
REMARK    3  A    between atoms: C4_5  and  N1_6 
REMARK       I    between atoms: N1_6  and  C5_7 
REMARK    4  A    between atoms: C5_7  and  C6_9 
REMARK    5  A    between atoms: C7_10  and  C8_11 
REMARK    6  A    between atoms: C8_11  and  N2_12 
REMARK    7  A    between atoms: C11_15  and  N3_16 
REMARK    8  A    between atoms: N5_24  and  C18_25 
ROOT
HETATM    1  C3  UNL     1      21.578   2.312  51.774  1.00  0.00     0.184 C 
HETATM    2  C4  UNL     1      23.087   2.203  52.324  1.00  0.00     0.071 C 
HETATM    3  C11 UNL     1      23.523   3.354  51.682  1.00  0.00     0.078 C 
HETATM    4  C12 UNL     1      23.286   3.003  50.155  1.00  0.00     0.066 C 
HETATM    5  C13 UNL     1      22.871   1.754  50.043  1.00  0.00     0.017 C 
HETATM    6  C14 UNL     1      21.484   2.146  50.341  1.00  0.00     0.071 C 
HETATM    7  C15 UNL     1      21.252   3.140  49.230  1.00  0.00     0.026 C 
HETATM    8  C16 UNL     1      21.669   4.444  49.206  1.00  0.00     0.118 C 
HETATM    9  C17 UNL     1      20.948   5.534  48.634  1.00  0.00     0.118 C 
HETATM   10  N4  UNL     1      20.393   6.409  48.182  1.00  0.00    -0.190 NA
HETATM   11  N5  UNL     1      23.020   4.439  49.864  1.00  0.00    -0.301 N 
ENDROOT
BRANCH  11  12
HETATM   12  C18 UNL     1      23.564   5.686  50.036  1.00  0.00     0.042 A 
HETATM   13  C19 UNL     1      23.055   6.718  50.753  1.00  0.00     0.033 A 
HETATM   14  C20 UNL     1      23.777   7.863  50.820  1.00  0.00     0.046 A 
HETATM   15  C21 UNL     1      24.972   7.984  50.190  1.00  0.00     0.138 A 
HETATM   16  F1  UNL     1      25.634   9.159  50.303  1.00  0.00    -0.204 F 
HETATM   17  C22 UNL     1      25.550   6.968  49.439  1.00  0.00     0.074 A 
HETATM   18 CL1  UNL     1      27.096   7.161  48.641  1.00  0.00    -0.081 Cl
HETATM   19  C23 UNL     1      24.801   5.803  49.380  1.00  0.00     0.057 A 
ENDBRANCH  11  12
BRANCH   1  20
HETATM   20  O1  UNL     1      21.082   1.079  52.320  1.00  0.00    -0.379 OA
BRANCH  20  21
HETATM   21  C2  UNL     1      20.381   1.334  53.493  1.00  0.00     0.164 C 
HETATM   22  C1  UNL     1      20.724   0.256  54.494  1.00  0.00     0.033 C 
ENDBRANCH  20  21
ENDBRANCH   1  20
BRANCH   3  23
HETATM   23  N3  UNL     1      24.202   4.436  52.401  1.00  0.00    -0.396 N 
HETATM   24  H18 UNL     1      23.453   4.629  53.130  1.00  0.00     0.156 HD
HETATM   25  H19 UNL     1      25.098   4.900  52.292  1.00  0.00     0.156 HD
ENDBRANCH   3  23
BRANCH   2  26
HETATM   26  N1  UNL     1      24.020   1.524  53.165  1.00  0.00    -0.323 N 
HETATM   27  C5  UNL     1      24.242   0.161  53.326  1.00  0.00     0.245 C 
HETATM   28  O2  UNL     1      23.552  -0.623  52.656  1.00  0.00    -0.268 OA
HETATM   29  H7  UNL     1      24.640   2.078  53.786  1.00  0.00     0.169 HD
BRANCH  27  30
HETATM   30  C6  UNL     1      25.219  -0.409  54.218  1.00  0.00     0.072 C 
HETATM   31  C7  UNL     1      26.503  -0.508  53.947  1.00  0.00     0.008 C 
BRANCH  31  32
HETATM   32  C8  UNL     1      27.457  -0.187  52.869  1.00  0.00     0.299 C 
BRANCH  32  33
HETATM   33  N2  UNL     1      28.457   0.772  53.338  1.00  0.00     0.083 N 
HETATM   34  C9  UNL     1      27.864   2.110  53.232  1.00  0.00     0.309 C 
HETATM   35  C10 UNL     1      28.813   0.484  54.713  1.00  0.00     0.309 C 
ENDBRANCH  32  33
ENDBRANCH  31  32
ENDBRANCH  27  30
ENDBRANCH   2  26
TORSDOF 8
ENDMDL
MODEL 6
REMARK VINA RESULT:      -7.5      3.373      7.751
REMARK  8 active torsions:
REMARK  status: ('A' for Active; 'I' for Inactive)
REMARK    1  A    between atoms: C2_2  and  O1_3 
REMARK    2  A    between atoms: O1_3  and  C3_4 
REMARK    3  A    between atoms: C4_5  and  N1_6 
REMARK       I    between atoms: N1_6  and  C5_7 
REMARK    4  A    between atoms: C5_7  and  C6_9 
REMARK    5  A    between atoms: C7_10  and  C8_11 
REMARK    6  A    between atoms: C8_11  and  N2_12 
REMARK    7  A    between atoms: C11_15  and  N3_16 
REMARK    8  A    between atoms: N5_24  and  C18_25 
ROOT
HETATM    1  C3  UNL     1      22.003   4.462  50.371  1.00  0.00     0.184 C 
HETATM    2  C4  UNL     1      23.316   3.580  50.669  1.00  0.00     0.071 C 
HETATM    3  C11 UNL     1      24.201   4.526  50.170  1.00  0.00     0.078 C 
HETATM    4  C12 UNL     1      23.746   4.652  48.656  1.00  0.00     0.066 C 
HETATM    5  C13 UNL     1      22.794   3.773  48.402  1.00  0.00     0.017 C 
HETATM    6  C14 UNL     1      21.765   4.665  48.959  1.00  0.00     0.071 C 
HETATM    7  C15 UNL     1      21.962   5.871  48.074  1.00  0.00     0.026 C 
HETATM    8  C16 UNL     1      22.935   6.826  48.206  1.00  0.00     0.118 C 
HETATM    9  C17 UNL     1      22.773   8.217  47.932  1.00  0.00     0.118 C 
HETATM   10  N4  UNL     1      22.664   9.322  47.717  1.00  0.00    -0.190 NA
HETATM   11  N5  UNL     1      24.162   6.081  48.649  1.00  0.00    -0.301 N 
ENDROOT
BRANCH  11  12
HETATM   12  C18 UNL     1      25.231   6.888  48.944  1.00  0.00     0.042 A 
HETATM   13  C19 UNL     1      25.302   7.852  49.896  1.00  0.00     0.033 A 
HETATM   14  C20 UNL     1      26.474   8.515  50.043  1.00  0.00     0.046 A 
HETATM   15  C21 UNL     1      27.550   8.233  49.265  1.00  0.00     0.138 A 
HETATM   16  F1  UNL     1      28.686   8.938  49.472  1.00  0.00    -0.204 F 
HETATM   17  C22 UNL     1      27.546   7.261  48.273  1.00  0.00     0.074 A 
HETATM   18 CL1  UNL     1      28.954   6.925  47.289  1.00  0.00    -0.081 Cl
HETATM   19  C23 UNL     1      26.340   6.590  48.134  1.00  0.00     0.057 A 
ENDBRANCH  11  12
BRANCH   1  20
HETATM   20  O1  UNL     1      21.021   3.492  50.772  1.00  0.00    -0.379 OA
BRANCH  20  21
HETATM   21  C2  UNL     1      20.800   3.588  52.142  1.00  0.00     0.164 C 
HETATM   22  C1  UNL     1      20.389   2.226  52.651  1.00  0.00     0.033 C 
ENDBRANCH  20  21
ENDBRANCH   1  20
BRANCH   3  23
HETATM   23  N3  UNL     1      25.341   5.012  50.950  1.00  0.00    -0.396 N 
HETATM   24  H18 UNL     1      24.835   5.186  51.870  1.00  0.00     0.156 HD
HETATM   25  H19 UNL     1      26.324   5.159  50.745  1.00  0.00     0.156 HD
ENDBRANCH   3  23
BRANCH   2  26
HETATM   26  N1  UNL     1      23.870   2.395  51.241  1.00  0.00    -0.323 N 
HETATM   27  C5  UNL     1      24.324   2.162  52.535  1.00  0.00     0.245 C 
HETATM   28  O2  UNL     1      24.254   3.092  53.351  1.00  0.00    -0.268 OA
HETATM   29  H7  UNL     1      23.994   1.555  50.645  1.00  0.00     0.169 HD
BRANCH  27  30
HETATM   30  C6  UNL     1      24.873   0.912  52.995  1.00  0.00     0.072 C 
HETATM   31  C7  UNL     1      24.163  -0.175  53.212  1.00  0.00     0.008 C 
BRANCH  31  32
HETATM   32  C8  UNL     1      22.768  -0.646  53.135  1.00  0.00     0.299 C 
BRANCH  32  33
HETATM   33  N2  UNL     1      22.169  -0.696  54.469  1.00  0.00     0.083 N 
HETATM   34  C9  UNL     1      20.915  -1.449  54.359  1.00  0.00     0.309 C 
HETATM   35  C10 UNL     1      23.073  -1.351  55.394  1.00  0.00     0.309 C 
ENDBRANCH  32  33
ENDBRANCH  31  32
ENDBRANCH  27  30
ENDBRANCH   2  26
TORSDOF 8
ENDMDL
MODEL 7
REMARK VINA RESULT:      -7.5      3.534      4.469
REMARK  8 active torsions:
REMARK  status: ('A' for Active; 'I' for Inactive)
REMARK    1  A    between atoms: C2_2  and  O1_3 
REMARK    2  A    between atoms: O1_3  and  C3_4 
REMARK    3  A    between atoms: C4_5  and  N1_6 
REMARK       I    between atoms: N1_6  and  C5_7 
REMARK    4  A    between atoms: C5_7  and  C6_9 
REMARK    5  A    between atoms: C7_10  and  C8_11 
REMARK    6  A    between atoms: C8_11  and  N2_12 
REMARK    7  A    between atoms: C11_15  and  N3_16 
REMARK    8  A    between atoms: N5_24  and  C18_25 
ROOT
HETATM    1  C3  UNL     1      20.582   0.738  50.853  1.00  0.00     0.184 C 
HETATM    2  C4  UNL     1      21.298   2.010  50.173  1.00  0.00     0.071 C 
HETATM    3  C11 UNL     1      22.384   2.002  51.039  1.00  0.00     0.078 C 
HETATM    4  C12 UNL     1      21.697   2.232  52.448  1.00  0.00     0.066 C 
HETATM    5  C13 UNL     1      20.403   2.440  52.286  1.00  0.00     0.017 C 
HETATM    6  C14 UNL     1      20.138   0.994  52.205  1.00  0.00     0.071 C 
HETATM    7  C15 UNL     1      20.690   0.557  53.540  1.00  0.00     0.026 C 
HETATM    8  C16 UNL     1      22.009   0.351  53.847  1.00  0.00     0.118 C 
HETATM    9  C17 UNL     1      22.507  -0.657  54.724  1.00  0.00     0.118 C 
HETATM   10  N4  UNL     1      22.920  -1.448  55.419  1.00  0.00    -0.190 NA
HETATM   11  N5  UNL     1      22.759   1.417  53.100  1.00  0.00    -0.301 N 
ENDROOT
BRANCH  11  12
HETATM   12  C18 UNL     1      24.123   1.311  53.194  1.00  0.00     0.042 A 
HETATM   13  C19 UNL     1      24.998   2.250  53.631  1.00  0.00     0.033 A 
HETATM   14  C20 UNL     1      26.312   1.925  53.673  1.00  0.00     0.046 A 
HETATM   15  C21 UNL     1      26.750   0.700  53.290  1.00  0.00     0.138 A 
HETATM   16  F1  UNL     1      28.078   0.449  53.362  1.00  0.00    -0.204 F 
HETATM   17  C22 UNL     1      25.910  -0.308  52.832  1.00  0.00     0.074 A 
HETATM   18 CL1  UNL     1      26.513  -1.878  52.346  1.00  0.00    -0.081 Cl
HETATM   19  C23 UNL     1      24.568   0.039  52.794  1.00  0.00     0.057 A 
ENDBRANCH  11  12
BRANCH   1  20
HETATM   20  O1  UNL     1      19.380   0.747  50.065  1.00  0.00    -0.379 OA
BRANCH  20  21
HETATM   21  C2  UNL     1      18.397  -0.002  50.701  1.00  0.00     0.164 C 
HETATM   22  C1  UNL     1      17.090   0.216  49.974  1.00  0.00     0.033 C 
ENDBRANCH  20  21
ENDBRANCH   1  20
BRANCH   3  23
HETATM   23  N3  UNL     1      23.766   1.987  50.552  1.00  0.00    -0.396 N 
HETATM   24  H18 UNL     1      24.252   2.236  51.465  1.00  0.00     0.156 HD
HETATM   25  H19 UNL     1      24.194   1.805  49.650  1.00  0.00     0.156 HD
ENDBRANCH   3  23
BRANCH   2  26
HETATM   26  N1  UNL     1      21.302   2.973  49.119  1.00  0.00    -0.323 N 
HETATM   27  C5  UNL     1      21.908   2.919  47.868  1.00  0.00     0.245 C 
HETATM   28  O2  UNL     1      22.549   1.898  47.578  1.00  0.00    -0.268 OA
HETATM   29  H7  UNL     1      20.811   3.877  49.257  1.00  0.00     0.169 HD
BRANCH  27  30
HETATM   30  C6  UNL     1      21.843   3.967  46.883  1.00  0.00     0.072 C 
HETATM   31  C7  UNL     1      22.343   5.173  47.047  1.00  0.00     0.008 C 
BRANCH  31  32
HETATM   32  C8  UNL     1      23.073   5.964  48.055  1.00  0.00     0.299 C 
BRANCH  32  33
HETATM   33  N2  UNL     1      22.167   6.406  49.115  1.00  0.00     0.083 N 
HETATM   34  C9  UNL     1      22.769   6.019  50.396  1.00  0.00     0.309 C 
HETATM   35  C10 UNL     1      21.995   7.844  49.051  1.00  0.00     0.309 C 
ENDBRANCH  32  33
ENDBRANCH  31  32
ENDBRANCH  27  30
ENDBRANCH   2  26
TORSDOF 8
ENDMDL
MODEL 8
REMARK VINA RESULT:      -7.4      3.359      6.947
REMARK  8 active torsions:
REMARK  status: ('A' for Active; 'I' for Inactive)
REMARK    1  A    between atoms: C2_2  and  O1_3 
REMARK    2  A    between atoms: O1_3  and  C3_4 
REMARK    3  A    between atoms: C4_5  and  N1_6 
REMARK       I    between atoms: N1_6  and  C5_7 
REMARK    4  A    between atoms: C5_7  and  C6_9 
REMARK    5  A    between atoms: C7_10  and  C8_11 
REMARK    6  A    between atoms: C8_11  and  N2_12 
REMARK    7  A    between atoms: C11_15  and  N3_16 
REMARK    8  A    between atoms: N5_24  and  C18_25 
ROOT
HETATM    1  C3  UNL     1      21.688   4.391  49.929  1.00  0.00     0.184 C 
HETATM    2  C4  UNL     1      22.878   3.793  50.834  1.00  0.00     0.071 C 
HETATM    3  C11 UNL     1      23.820   4.717  50.402  1.00  0.00     0.078 C 
HETATM    4  C12 UNL     1      23.888   4.432  48.845  1.00  0.00     0.066 C 
HETATM    5  C13 UNL     1      23.128   3.393  48.548  1.00  0.00     0.017 C 
HETATM    6  C14 UNL     1      21.921   4.234  48.511  1.00  0.00     0.071 C 
HETATM    7  C15 UNL     1      22.328   5.223  47.447  1.00  0.00     0.026 C 
HETATM    8  C16 UNL     1      23.143   6.311  47.618  1.00  0.00     0.118 C 
HETATM    9  C17 UNL     1      22.998   7.566  46.956  1.00  0.00     0.118 C 
HETATM   10  N4  UNL     1      22.900   8.567  46.438  1.00  0.00    -0.190 NA
HETATM   11  N5  UNL     1      24.196   5.867  48.594  1.00  0.00    -0.301 N 
ENDROOT
BRANCH  11  12
HETATM   12  C18 UNL     1      25.055   6.862  48.982  1.00  0.00     0.042 A 
HETATM   13  C19 UNL     1      24.763   7.975  49.700  1.00  0.00     0.033 A 
HETATM   14  C20 UNL     1      25.777   8.820  50.004  1.00  0.00     0.046 A 
HETATM   15  C21 UNL     1      27.049   8.571  49.606  1.00  0.00     0.138 A 
HETATM   16  F1  UNL     1      28.008   9.462  49.949  1.00  0.00    -0.204 F 
HETATM   17  C22 UNL     1      27.418   7.453  48.868  1.00  0.00     0.074 A 
HETATM   18 CL1  UNL     1      29.073   7.166  48.373  1.00  0.00    -0.081 Cl
HETATM   19  C23 UNL     1      26.371   6.597  48.564  1.00  0.00     0.057 A 
ENDBRANCH  11  12
BRANCH   1  20
HETATM   20  O1  UNL     1      20.689   3.408  50.248  1.00  0.00    -0.379 OA
BRANCH  20  21
HETATM   21  C2  UNL     1      19.911   3.858  51.309  1.00  0.00     0.164 C 
HETATM   22  C1  UNL     1      19.630   2.686  52.220  1.00  0.00     0.033 C 
ENDBRANCH  20  21
ENDBRANCH   1  20
BRANCH   3  23
HETATM   23  N3  UNL     1      24.606   5.523  51.340  1.00  0.00    -0.396 N 
HETATM   24  H18 UNL     1      23.828   6.165  51.679  1.00  0.00     0.156 HD
HETATM   25  H19 UNL     1      25.580   5.524  51.625  1.00  0.00     0.156 HD
ENDBRANCH   3  23
BRANCH   2  26
HETATM   26  N1  UNL     1      23.281   2.859  51.836  1.00  0.00    -0.323 N 
HETATM   27  C5  UNL     1      23.132   1.477  51.873  1.00  0.00     0.245 C 
HETATM   28  O2  UNL     1      22.575   0.928  50.912  1.00  0.00    -0.268 OA
HETATM   29  H7  UNL     1      23.743   3.208  52.698  1.00  0.00     0.169 HD
BRANCH  27  30
HETATM   30  C6  UNL     1      23.582   0.635  52.953  1.00  0.00     0.072 C 
HETATM   31  C7  UNL     1      24.826   0.243  53.120  1.00  0.00     0.008 C 
BRANCH  31  32
HETATM   32  C8  UNL     1      26.149   0.387  52.485  1.00  0.00     0.299 C 
BRANCH  32  33
HETATM   33  N2  UNL     1      26.622   1.767  52.589  1.00  0.00     0.083 N 
HETATM   34  C9  UNL     1      27.956   1.728  53.200  1.00  0.00     0.309 C 
HETATM   35  C10 UNL     1      26.686   2.371  51.272  1.00  0.00     0.309 C 
ENDBRANCH  32  33
ENDBRANCH  31  32
ENDBRANCH  27  30
ENDBRANCH   2  26
TORSDOF 8
ENDMDL
MODEL 9
REMARK VINA RESULT:      -7.4      4.590      7.655
REMARK  8 active torsions:
REMARK  status: ('A' for Active; 'I' for Inactive)
REMARK    1  A    between atoms: C2_2  and  O1_3 
REMARK    2  A    between atoms: O1_3  and  C3_4 
REMARK    3  A    between atoms: C4_5  and  N1_6 
REMARK       I    between atoms: N1_6  and  C5_7 
REMARK    4  A    between atoms: C5_7  and  C6_9 
REMARK    5  A    between atoms: C7_10  and  C8_11 
REMARK    6  A    between atoms: C8_11  and  N2_12 
REMARK    7  A    between atoms: C11_15  and  N3_16 
REMARK    8  A    between atoms: N5_24  and  C18_25 
ROOT
HETATM    1  C3  UNL     1      24.213   3.998  50.585  1.00  0.00     0.184 C 
HETATM    2  C4  UNL     1      23.700   2.625  51.252  1.00  0.00     0.071 C 
HETATM    3  C11 UNL     1      22.355   2.898  51.043  1.00  0.00     0.078 C 
HETATM    4  C12 UNL     1      22.142   4.228  51.879  1.00  0.00     0.066 C 
HETATM    5  C13 UNL     1      23.253   4.529  52.528  1.00  0.00     0.017 C 
HETATM    6  C14 UNL     1      23.825   5.172  51.333  1.00  0.00     0.071 C 
HETATM    7  C15 UNL     1      22.770   6.220  51.075  1.00  0.00     0.026 C 
HETATM    8  C16 UNL     1      21.564   6.025  50.456  1.00  0.00     0.118 C 
HETATM    9  C17 UNL     1      20.915   6.960  49.597  1.00  0.00     0.118 C 
HETATM   10  N4  UNL     1      20.383   7.690  48.916  1.00  0.00    -0.190 NA
HETATM   11  N5  UNL     1      21.101   4.671  50.911  1.00  0.00    -0.301 N 
ENDROOT
BRANCH  11  12
HETATM   12  C18 UNL     1      19.947   4.242  50.308  1.00  0.00     0.042 A 
HETATM   13  C19 UNL     1      19.749   3.981  48.992  1.00  0.00     0.033 A 
HETATM   14  C20 UNL     1      18.530   3.532  48.609  1.00  0.00     0.046 A 
HETATM   15  C21 UNL     1      17.529   3.347  49.506  1.00  0.00     0.138 A 
HETATM   16  F1  UNL     1      16.339   2.895  49.047  1.00  0.00    -0.204 F 
HETATM   17  C22 UNL     1      17.663   3.595  50.866  1.00  0.00     0.074 A 
HETATM   18 CL1  UNL     1      16.348   3.343  51.995  1.00  0.00    -0.081 Cl
HETATM   19  C23 UNL     1      18.916   4.053  51.244  1.00  0.00     0.057 A 
ENDBRANCH  11  12
BRANCH   1  20
HETATM   20  O1  UNL     1      25.615   3.835  50.861  1.00  0.00    -0.379 OA
BRANCH  20  21
HETATM   21  C2  UNL     1      26.266   3.375  49.721  1.00  0.00     0.164 C 
HETATM   22  C1  UNL     1      26.897   4.559  49.026  1.00  0.00     0.033 C 
ENDBRANCH  20  21
ENDBRANCH   1  20
BRANCH   3  23
HETATM   23  N3  UNL     1      21.466   1.951  50.363  1.00  0.00    -0.396 N 
HETATM   24  H18 UNL     1      20.903   1.635  51.208  1.00  0.00     0.156 HD
HETATM   25  H19 UNL     1      21.365   1.647  49.400  1.00  0.00     0.156 HD
ENDBRANCH   3  23
BRANCH   2  26
HETATM   26  N1  UNL     1      24.036   1.364  51.829  1.00  0.00    -0.323 N 
HETATM   27  C5  UNL     1      24.809   1.077  52.949  1.00  0.00     0.245 C 
HETATM   28  O2  UNL     1      25.299   2.029  53.575  1.00  0.00    -0.268 OA
HETATM   29  H7  UNL     1      23.695   0.493  51.379  1.00  0.00     0.169 HD
BRANCH  27  30
HETATM   30  C6  UNL     1      25.082  -0.251  53.435  1.00  0.00     0.072 C 
HETATM   31  C7  UNL     1      26.245  -0.858  53.326  1.00  0.00     0.008 C 
BRANCH  31  32
HETATM   32  C8  UNL     1      27.597  -0.616  52.791  1.00  0.00     0.299 C 
BRANCH  32  33
HETATM   33  N2  UNL     1      28.507  -0.207  53.861  1.00  0.00     0.083 N 
HETATM   34  C9  UNL     1      29.744  -0.981  53.705  1.00  0.00     0.309 C 
HETATM   35  C10 UNL     1      28.782   1.213  53.762  1.00  0.00     0.309 C 
ENDBRANCH  32  33
ENDBRANCH  31  32
ENDBRANCH  27  30
ENDBRANCH   2  26
TORSDOF 8
ENDMDL
