MODEL 1
REMARK VINA RESULT:      -9.8      0.000      0.000
REMARK  4 active torsions:
REMARK  status: ('A' for Active; 'I' for Inactive)
REMARK    1  A    between atoms: N1_5  and  C5_6 
REMARK    2  A    between atoms: C10_13  and  N4_14 
REMARK       I    between atoms: N4_14  and  C11_15 
REMARK    3  A    between atoms: C11_15  and  O2_17 
REMARK    4  A    between atoms: O2_17  and  C12_18 
ROOT
HETATM    1  C5  UNL     1      24.030  -0.373  54.003  1.00  0.00     0.143 A 
HETATM    2  N2  UNL     1      23.695  -1.281  54.945  1.00  0.00    -0.223 NA
HETATM    3  C6  UNL     1      22.416  -1.443  55.347  1.00  0.00     0.236 A 
HETATM    4  N3  UNL     1      21.413  -0.695  54.817  1.00  0.00    -0.241 NA
HETATM    5  C7  UNL     1      21.714   0.218  53.878  1.00  0.00     0.072 A 
HETATM    6  C8  UNL     1      20.767   1.025  53.291  1.00  0.00     0.035 A 
HETATM    7  C9  UNL     1      21.156   1.945  52.338  1.00  0.00     0.032 A 
HETATM    8  C10 UNL     1      22.452   2.123  51.919  1.00  0.00     0.037 A 
HETATM    9  C18 UNL     1      23.380   1.303  52.522  1.00  0.00     0.047 A 
HETATM   10  C19 UNL     1      23.019   0.385  53.467  1.00  0.00     0.041 A 
ENDROOT
BRANCH   8  11
HETATM   11  N4  UNL     1      22.887   3.047  50.954  1.00  0.00    -0.302 N 
HETATM   12  C11 UNL     1      23.401   4.351  51.095  1.00  0.00     0.370 C 
HETATM   13  O1  UNL     1      23.512   4.812  52.246  1.00  0.00    -0.238 OA
HETATM   14  H10 UNL     1      22.850   2.790  49.931  1.00  0.00     0.171 HD
BRANCH  12  15
HETATM   15  O2  UNL     1      23.803   5.184  50.077  1.00  0.00    -0.261 OA
BRANCH  15  16
HETATM   16  C12 UNL     1      25.108   5.082  49.592  1.00  0.00     0.081 A 
HETATM   17  C13 UNL     1      25.865   3.932  49.617  1.00  0.00     0.040 A 
HETATM   18  C14 UNL     1      27.150   3.967  49.101  1.00  0.00     0.045 A 
HETATM   19  C15 UNL     1      27.732   5.094  48.556  1.00  0.00     0.116 A 
HETATM   20  F1  UNL     1      28.979   5.124  48.057  1.00  0.00    -0.206 F 
HETATM   21  C16 UNL     1      26.945   6.245  48.542  1.00  0.00     0.045 A 
HETATM   22  C17 UNL     1      25.665   6.227  49.051  1.00  0.00     0.040 A 
ENDBRANCH  15  16
ENDBRANCH  12  15
ENDBRANCH   8  11
BRANCH   1  23
HETATM   23  N1  UNL     1      25.413  -0.356  53.680  1.00  0.00    -0.338 N 
HETATM   24  C4  UNL     1      26.077  -0.675  52.435  1.00  0.00     0.158 A 
HETATM   25  C3  UNL     1      27.535  -0.469  52.601  1.00  0.00    -0.000 A 
HETATM   26  C2  UNL     1      28.274  -0.089  53.629  1.00  0.00    -0.063 A 
HETATM   27  C1  UNL     1      29.749   0.065  53.620  1.00  0.00     0.048 C 
HETATM   28  C21 UNL     1      27.484   0.186  54.821  1.00  0.00     0.024 A 
HETATM   29  C20 UNL     1      26.146   0.063  54.852  1.00  0.00     0.093 A 
ENDBRANCH   1  23
TORSDOF 4
ENDMDL
MODEL 2
REMARK VINA RESULT:      -9.2      1.554      1.908
REMARK  4 active torsions:
REMARK  status: ('A' for Active; 'I' for Inactive)
REMARK    1  A    between atoms: N1_5  and  C5_6 
REMARK    2  A    between atoms: C10_13  and  N4_14 
REMARK       I    between atoms: N4_14  and  C11_15 
REMARK    3  A    between atoms: C11_15  and  O2_17 
REMARK    4  A    between atoms: O2_17  and  C12_18 
ROOT
HETATM    1  C5  UNL     1      24.428  -0.323  53.770  1.00  0.00     0.143 A 
HETATM    2  N2  UNL     1      23.842  -1.022  54.766  1.00  0.00    -0.223 NA
HETATM    3  C6  UNL     1      22.524  -0.901  55.034  1.00  0.00     0.236 A 
HETATM    4  N3  UNL     1      21.733  -0.067  54.309  1.00  0.00    -0.241 NA
HETATM    5  C7  UNL     1      22.286   0.643  53.311  1.00  0.00     0.072 A 
HETATM    6  C8  UNL     1      21.567   1.516  52.528  1.00  0.00     0.035 A 
HETATM    7  C9  UNL     1      22.209   2.216  51.525  1.00  0.00     0.032 A 
HETATM    8  C10 UNL     1      23.548   2.104  51.241  1.00  0.00     0.037 A 
HETATM    9  C18 UNL     1      24.245   1.224  52.038  1.00  0.00     0.047 A 
HETATM   10  C19 UNL     1      23.631   0.521  53.036  1.00  0.00     0.041 A 
ENDROOT
BRANCH   8  11
HETATM   11  N4  UNL     1      24.236   2.798  50.232  1.00  0.00    -0.302 N 
HETATM   12  C11 UNL     1      25.584   3.202  50.146  1.00  0.00     0.370 C 
HETATM   13  O1  UNL     1      26.337   2.922  51.098  1.00  0.00    -0.238 OA
HETATM   14  H10 UNL     1      23.721   3.100  49.361  1.00  0.00     0.171 HD
BRANCH  12  15
HETATM   15  O2  UNL     1      26.167   3.884  49.105  1.00  0.00    -0.261 OA
BRANCH  15  16
HETATM   16  C12 UNL     1      26.353   5.263  49.216  1.00  0.00     0.081 A 
HETATM   17  C13 UNL     1      25.572   6.098  49.985  1.00  0.00     0.040 A 
HETATM   18  C14 UNL     1      25.866   7.452  50.007  1.00  0.00     0.045 A 
HETATM   19  C15 UNL     1      26.902   8.028  49.301  1.00  0.00     0.116 A 
HETATM   20  F1  UNL     1      27.183   9.342  49.326  1.00  0.00    -0.206 F 
HETATM   21  C16 UNL     1      27.677   7.162  48.532  1.00  0.00     0.045 A 
HETATM   22  C17 UNL     1      27.399   5.813  48.499  1.00  0.00     0.040 A 
ENDBRANCH  15  16
ENDBRANCH  12  15
ENDBRANCH   8  11
BRANCH   1  23
HETATM   23  N1  UNL     1      25.813  -0.594  53.609  1.00  0.00    -0.338 N 
HETATM   24  C4  UNL     1      26.482  -1.472  52.673  1.00  0.00     0.158 A 
HETATM   25  C3  UNL     1      27.945  -1.376  52.888  1.00  0.00    -0.000 A 
HETATM   26  C2  UNL     1      28.682  -0.687  53.742  1.00  0.00    -0.063 A 
HETATM   27  C1  UNL     1      30.163  -0.713  53.819  1.00  0.00     0.048 C 
HETATM   28  C21 UNL     1      27.885   0.143  54.634  1.00  0.00     0.024 A 
HETATM   29  C20 UNL     1      26.543   0.191  54.577  1.00  0.00     0.093 A 
ENDBRANCH   1  23
TORSDOF 4
ENDMDL
MODEL 3
REMARK VINA RESULT:      -8.9      2.605      6.558
REMARK  4 active torsions:
REMARK  status: ('A' for Active; 'I' for Inactive)
REMARK    1  A    between atoms: N1_5  and  C5_6 
REMARK    2  A    between atoms: C10_13  and  N4_14 
REMARK       I    between atoms: N4_14  and  C11_15 
REMARK    3  A    between atoms: C11_15  and  O2_17 
REMARK    4  A    between atoms: O2_17  and  C12_18 
ROOT
HETATM    1  C5  UNL     1      23.270   4.714  49.633  1.00  0.00     0.143 A 
HETATM    2  N2  UNL     1      22.594   5.555  48.821  1.00  0.00    -0.223 NA
HETATM    3  C6  UNL     1      21.261   5.730  48.935  1.00  0.00     0.236 A 
HETATM    4  N3  UNL     1      20.542   5.062  49.876  1.00  0.00    -0.241 NA
HETATM    5  C7  UNL     1      21.185   4.215  50.699  1.00  0.00     0.072 A 
HETATM    6  C8  UNL     1      20.542   3.490  51.675  1.00  0.00     0.035 A 
HETATM    7  C9  UNL     1      21.271   2.635  52.478  1.00  0.00     0.032 A 
HETATM    8  C10 UNL     1      22.628   2.446  52.373  1.00  0.00     0.037 A 
HETATM    9  C18 UNL     1      23.247   3.183  51.389  1.00  0.00     0.047 A 
HETATM   10  C19 UNL     1      22.547   4.036  50.583  1.00  0.00     0.041 A 
ENDROOT
BRANCH   8  11
HETATM   11  N4  UNL     1      23.403   1.587  53.169  1.00  0.00    -0.302 N 
HETATM   12  C11 UNL     1      23.363   0.186  53.320  1.00  0.00     0.370 C 
HETATM   13  O1  UNL     1      22.517  -0.446  52.661  1.00  0.00    -0.238 OA
HETATM   14  H10 UNL     1      24.163   1.987  53.783  1.00  0.00     0.171 HD
BRANCH  12  15
HETATM   15  O2  UNL     1      24.174  -0.570  54.133  1.00  0.00    -0.261 OA
BRANCH  15  16
HETATM   16  C12 UNL     1      25.560  -0.456  54.004  1.00  0.00     0.081 A 
HETATM   17  C13 UNL     1      26.378   0.190  54.903  1.00  0.00     0.040 A 
HETATM   18  C14 UNL     1      27.741   0.230  54.655  1.00  0.00     0.045 A 
HETATM   19  C15 UNL     1      28.341  -0.343  53.552  1.00  0.00     0.116 A 
HETATM   20  F1  UNL     1      29.664  -0.301  53.316  1.00  0.00    -0.206 F 
HETATM   21  C16 UNL     1      27.491  -0.991  52.658  1.00  0.00     0.045 A 
HETATM   22  C17 UNL     1      26.134  -1.040  52.890  1.00  0.00     0.040 A 
ENDBRANCH  15  16
ENDBRANCH  12  15
ENDBRANCH   8  11
BRANCH   1  23
HETATM   23  N1  UNL     1      24.669   4.674  49.392  1.00  0.00    -0.338 N 
HETATM   24  C4  UNL     1      25.605   3.582  49.551  1.00  0.00     0.158 A 
HETATM   25  C3  UNL     1      26.951   4.040  49.135  1.00  0.00    -0.000 A 
HETATM   26  C2  UNL     1      27.406   5.200  48.693  1.00  0.00    -0.063 A 
HETATM   27  C1  UNL     1      28.812   5.488  48.317  1.00  0.00     0.048 C 
HETATM   28  C21 UNL     1      26.366   6.214  48.595  1.00  0.00     0.024 A 
HETATM   29  C20 UNL     1      25.084   5.974  48.920  1.00  0.00     0.093 A 
ENDBRANCH   1  23
TORSDOF 4
ENDMDL
MODEL 4
REMARK VINA RESULT:      -8.7      2.147      2.614
REMARK  4 active torsions:
REMARK  status: ('A' for Active; 'I' for Inactive)
REMARK    1  A    between atoms: N1_5  and  C5_6 
REMARK    2  A    between atoms: C10_13  and  N4_14 
REMARK       I    between atoms: N4_14  and  C11_15 
REMARK    3  A    between atoms: C11_15  and  O2_17 
REMARK    4  A    between atoms: O2_17  and  C12_18 
ROOT
HETATM    1  C5  UNL     1      24.441  -0.497  53.944  1.00  0.00     0.143 A 
HETATM    2  N2  UNL     1      23.948  -1.235  54.961  1.00  0.00    -0.223 NA
HETATM    3  C6  UNL     1      22.639  -1.205  55.287  1.00  0.00     0.236 A 
HETATM    4  N3  UNL     1      21.762  -0.426  54.601  1.00  0.00    -0.241 NA
HETATM    5  C7  UNL     1      22.222   0.322  53.583  1.00  0.00     0.072 A 
HETATM    6  C8  UNL     1      21.411   1.146  52.837  1.00  0.00     0.035 A 
HETATM    7  C9  UNL     1      21.960   1.890  51.810  1.00  0.00     0.032 A 
HETATM    8  C10 UNL     1      23.290   1.870  51.468  1.00  0.00     0.037 A 
HETATM    9  C18 UNL     1      24.078   1.038  52.229  1.00  0.00     0.047 A 
HETATM   10  C19 UNL     1      23.558   0.292  53.249  1.00  0.00     0.041 A 
ENDROOT
BRANCH   8  11
HETATM   11  N4  UNL     1      23.884   2.611  50.433  1.00  0.00    -0.302 N 
HETATM   12  C11 UNL     1      24.335   3.946  50.398  1.00  0.00     0.370 C 
HETATM   13  O1  UNL     1      24.211   4.630  51.431  1.00  0.00    -0.238 OA
HETATM   14  H10 UNL     1      24.052   2.157  49.495  1.00  0.00     0.171 HD
BRANCH  12  15
HETATM   15  O2  UNL     1      24.909   4.585  49.325  1.00  0.00    -0.261 OA
BRANCH  15  16
HETATM   16  C12 UNL     1      24.132   5.457  48.559  1.00  0.00     0.081 A 
HETATM   17  C13 UNL     1      24.492   6.745  48.232  1.00  0.00     0.040 A 
HETATM   18  C14 UNL     1      23.625   7.505  47.464  1.00  0.00     0.045 A 
HETATM   19  C15 UNL     1      22.408   7.052  46.997  1.00  0.00     0.116 A 
HETATM   20  F1  UNL     1      21.570   7.794  46.253  1.00  0.00    -0.206 F 
HETATM   21  C16 UNL     1      22.067   5.745  47.342  1.00  0.00     0.045 A 
HETATM   22  C17 UNL     1      22.917   4.976  48.105  1.00  0.00     0.040 A 
ENDBRANCH  15  16
ENDBRANCH  12  15
ENDBRANCH   8  11
BRANCH   1  23
HETATM   23  N1  UNL     1      25.833  -0.672  53.721  1.00  0.00    -0.338 N 
HETATM   24  C4  UNL     1      26.519  -1.489  52.743  1.00  0.00     0.158 A 
HETATM   25  C3  UNL     1      27.980  -1.300  52.900  1.00  0.00    -0.000 A 
HETATM   26  C2  UNL     1      28.706  -0.577  53.735  1.00  0.00    -0.063 A 
HETATM   27  C1  UNL     1      30.187  -0.506  53.751  1.00  0.00     0.048 C 
HETATM   28  C21 UNL     1      27.893   0.185  54.674  1.00  0.00     0.024 A 
HETATM   29  C20 UNL     1      26.550   0.144  54.673  1.00  0.00     0.093 A 
ENDBRANCH   1  23
TORSDOF 4
ENDMDL
MODEL 5
REMARK VINA RESULT:      -8.7      1.732      4.476
REMARK  4 active torsions:
REMARK  status: ('A' for Active; 'I' for Inactive)
REMARK    1  A    between atoms: N1_5  and  C5_6 
REMARK    2  A    between atoms: C10_13  and  N4_14 
REMARK       I    between atoms: N4_14  and  C11_15 
REMARK    3  A    between atoms: C11_15  and  O2_17 
REMARK    4  A    between atoms: O2_17  and  C12_18 
ROOT
HETATM    1  C5  UNL     1      23.663  -0.211  53.694  1.00  0.00     0.143 A 
HETATM    2  N2  UNL     1      23.630  -0.989  54.797  1.00  0.00    -0.223 NA
HETATM    3  C6  UNL     1      24.737  -1.217  55.536  1.00  0.00     0.236 A 
HETATM    4  N3  UNL     1      25.934  -0.669  55.195  1.00  0.00    -0.241 NA
HETATM    5  C7  UNL     1      26.000   0.110  54.101  1.00  0.00     0.072 A 
HETATM    6  C8  UNL     1      27.167   0.700  53.675  1.00  0.00     0.035 A 
HETATM    7  C9  UNL     1      27.156   1.482  52.537  1.00  0.00     0.032 A 
HETATM    8  C10 UNL     1      26.038   1.722  51.775  1.00  0.00     0.037 A 
HETATM    9  C18 UNL     1      24.884   1.120  52.224  1.00  0.00     0.047 A 
HETATM   10  C19 UNL     1      24.870   0.343  53.347  1.00  0.00     0.041 A 
ENDROOT
BRANCH   8  11
HETATM   11  N4  UNL     1      25.987   2.509  50.613  1.00  0.00    -0.302 N 
HETATM   12  C11 UNL     1      25.381   3.759  50.374  1.00  0.00     0.370 C 
HETATM   13  O1  UNL     1      24.775   4.302  51.316  1.00  0.00    -0.238 OA
HETATM   14  H10 UNL     1      26.461   2.172  49.732  1.00  0.00     0.171 HD
BRANCH  12  15
HETATM   15  O2  UNL     1      25.388   4.455  49.188  1.00  0.00    -0.261 OA
BRANCH  15  16
HETATM   16  C12 UNL     1      26.495   5.246  48.873  1.00  0.00     0.081 A 
HETATM   17  C13 UNL     1      27.764   4.762  48.649  1.00  0.00     0.040 A 
HETATM   18  C14 UNL     1      28.776   5.658  48.343  1.00  0.00     0.045 A 
HETATM   19  C15 UNL     1      28.594   7.023  48.247  1.00  0.00     0.116 A 
HETATM   20  F1  UNL     1      29.579   7.888  47.950  1.00  0.00    -0.206 F 
HETATM   21  C16 UNL     1      27.300   7.487  48.478  1.00  0.00     0.045 A 
HETATM   22  C17 UNL     1      26.283   6.610  48.782  1.00  0.00     0.040 A 
ENDBRANCH  15  16
ENDBRANCH  12  15
ENDBRANCH   8  11
BRANCH   1  23
HETATM   23  N1  UNL     1      22.403  -0.056  53.057  1.00  0.00    -0.338 N 
HETATM   24  C4  UNL     1      22.094   0.375  51.710  1.00  0.00     0.158 A 
HETATM   25  C3  UNL     1      20.626   0.337  51.519  1.00  0.00    -0.000 A 
HETATM   26  C2  UNL     1      19.626   0.016  52.322  1.00  0.00    -0.063 A 
HETATM   27  C1  UNL     1      18.189   0.036  51.959  1.00  0.00     0.048 C 
HETATM   28  C21 UNL     1      20.074  -0.384  53.648  1.00  0.00     0.024 A 
HETATM   29  C20 UNL     1      21.371  -0.420  53.998  1.00  0.00     0.093 A 
ENDBRANCH   1  23
TORSDOF 4
ENDMDL
MODEL 6
REMARK VINA RESULT:      -8.4      4.800      8.395
REMARK  4 active torsions:
REMARK  status: ('A' for Active; 'I' for Inactive)
REMARK    1  A    between atoms: N1_5  and  C5_6 
REMARK    2  A    between atoms: C10_13  and  N4_14 
REMARK       I    between atoms: N4_14  and  C11_15 
REMARK    3  A    between atoms: C11_15  and  O2_17 
REMARK    4  A    between atoms: O2_17  and  C12_18 
ROOT
HETATM    1  C5  UNL     1      24.608   1.196  53.020  1.00  0.00     0.143 A 
HETATM    2  N2  UNL     1      25.959   1.200  53.035  1.00  0.00    -0.223 NA
HETATM    3  C6  UNL     1      26.661   0.320  53.780  1.00  0.00     0.236 A 
HETATM    4  N3  UNL     1      26.032  -0.608  54.549  1.00  0.00    -0.241 NA
HETATM    5  C7  UNL     1      24.688  -0.637  54.557  1.00  0.00     0.072 A 
HETATM    6  C8  UNL     1      23.965  -1.534  55.309  1.00  0.00     0.035 A 
HETATM    7  C9  UNL     1      22.585  -1.497  55.270  1.00  0.00     0.032 A 
HETATM    8  C10 UNL     1      21.858  -0.607  54.518  1.00  0.00     0.037 A 
HETATM    9  C18 UNL     1      22.605   0.279  53.775  1.00  0.00     0.047 A 
HETATM   10  C19 UNL     1      23.970   0.261  53.797  1.00  0.00     0.041 A 
ENDROOT
BRANCH   8  11
HETATM   11  N4  UNL     1      20.456  -0.537  54.452  1.00  0.00    -0.302 N 
HETATM   12  C11 UNL     1      19.587  -0.500  53.343  1.00  0.00     0.370 C 
HETATM   13  O1  UNL     1      20.093  -0.531  52.206  1.00  0.00    -0.238 OA
HETATM   14  H10 UNL     1      19.893  -0.504  55.344  1.00  0.00     0.171 HD
BRANCH  12  15
HETATM   15  O2  UNL     1      18.215  -0.431  53.384  1.00  0.00    -0.261 OA
BRANCH  15  16
HETATM   16  C12 UNL     1      17.472  -1.603  53.228  1.00  0.00     0.081 A 
HETATM   17  C13 UNL     1      17.813  -2.823  53.769  1.00  0.00     0.040 A 
HETATM   18  C14 UNL     1      16.985  -3.910  53.536  1.00  0.00     0.045 A 
HETATM   19  C15 UNL     1      15.827  -3.852  52.788  1.00  0.00     0.116 A 
HETATM   20  F1  UNL     1      15.028  -4.909  52.566  1.00  0.00    -0.206 F 
HETATM   21  C16 UNL     1      15.505  -2.606  52.252  1.00  0.00     0.045 A 
HETATM   22  C17 UNL     1      16.316  -1.515  52.474  1.00  0.00     0.040 A 
ENDBRANCH  15  16
ENDBRANCH  12  15
ENDBRANCH   8  11
BRANCH   1  23
HETATM   23  N1  UNL     1      24.035   2.170  52.160  1.00  0.00    -0.338 N 
HETATM   24  C4  UNL     1      23.548   2.036  50.804  1.00  0.00     0.158 A 
HETATM   25  C3  UNL     1      23.012   3.341  50.355  1.00  0.00    -0.000 A 
HETATM   26  C2  UNL     1      22.929   4.525  50.938  1.00  0.00    -0.063 A 
HETATM   27  C1  UNL     1      22.353   5.748  50.329  1.00  0.00     0.048 C 
HETATM   28  C21 UNL     1      23.468   4.525  52.292  1.00  0.00     0.024 A 
HETATM   29  C20 UNL     1      23.986   3.428  52.868  1.00  0.00     0.093 A 
ENDBRANCH   1  23
TORSDOF 4
ENDMDL
MODEL 7
REMARK VINA RESULT:      -8.4      2.903      6.450
REMARK  4 active torsions:
REMARK  status: ('A' for Active; 'I' for Inactive)
REMARK    1  A    between atoms: N1_5  and  C5_6 
REMARK    2  A    between atoms: C10_13  and  N4_14 
REMARK       I    between atoms: N4_14  and  C11_15 
REMARK    3  A    between atoms: C11_15  and  O2_17 
REMARK    4  A    between atoms: O2_17  and  C12_18 
ROOT
HETATM    1  C5  UNL     1      21.846   2.627  50.721  1.00  0.00     0.143 A 
HETATM    2  N2  UNL     1      20.783   2.962  49.959  1.00  0.00    -0.223 NA
HETATM    3  C6  UNL     1      20.909   3.774  48.887  1.00  0.00     0.236 A 
HETATM    4  N3  UNL     1      22.116   4.287  48.533  1.00  0.00    -0.241 NA
HETATM    5  C7  UNL     1      23.194   3.973  49.272  1.00  0.00     0.072 A 
HETATM    6  C8  UNL     1      24.454   4.450  48.994  1.00  0.00     0.035 A 
HETATM    7  C9  UNL     1      25.511   4.087  49.805  1.00  0.00     0.032 A 
HETATM    8  C10 UNL     1      25.398   3.264  50.899  1.00  0.00     0.037 A 
HETATM    9  C18 UNL     1      24.128   2.800  51.154  1.00  0.00     0.047 A 
HETATM   10  C19 UNL     1      23.067   3.145  50.366  1.00  0.00     0.041 A 
ENDROOT
BRANCH   8  11
HETATM   11  N4  UNL     1      26.448   2.872  51.747  1.00  0.00    -0.302 N 
HETATM   12  C11 UNL     1      26.453   2.552  53.119  1.00  0.00     0.370 C 
HETATM   13  O1  UNL     1      25.371   2.607  53.733  1.00  0.00    -0.238 OA
HETATM   14  H10 UNL     1      27.426   2.783  51.360  1.00  0.00     0.171 HD
BRANCH  12  15
HETATM   15  O2  UNL     1      27.544   2.177  53.866  1.00  0.00    -0.261 OA
BRANCH  15  16
HETATM   16  C12 UNL     1      28.072   0.895  53.699  1.00  0.00     0.081 A 
HETATM   17  C13 UNL     1      29.389   0.556  53.918  1.00  0.00     0.040 A 
HETATM   18  C14 UNL     1      29.783  -0.756  53.714  1.00  0.00     0.045 A 
HETATM   19  C15 UNL     1      28.933  -1.762  53.299  1.00  0.00     0.116 A 
HETATM   20  F1  UNL     1      29.321  -3.033  53.102  1.00  0.00    -0.206 F 
HETATM   21  C16 UNL     1      27.606  -1.393  53.085  1.00  0.00     0.045 A 
HETATM   22  C17 UNL     1      27.198  -0.093  53.283  1.00  0.00     0.040 A 
ENDBRANCH  15  16
ENDBRANCH  12  15
ENDBRANCH   8  11
BRANCH   1  23
HETATM   23  N1  UNL     1      21.537   1.743  51.789  1.00  0.00    -0.338 N 
HETATM   24  C4  UNL     1      20.577   1.887  52.862  1.00  0.00     0.158 A 
HETATM   25  C3  UNL     1      20.612   0.669  53.704  1.00  0.00    -0.000 A 
HETATM   26  C2  UNL     1      21.336  -0.436  53.652  1.00  0.00    -0.063 A 
HETATM   27  C1  UNL     1      21.239  -1.575  54.596  1.00  0.00     0.048 C 
HETATM   28  C21 UNL     1      22.270  -0.446  52.535  1.00  0.00     0.024 A 
HETATM   29  C20 UNL     1      22.369   0.570  51.661  1.00  0.00     0.093 A 
ENDBRANCH   1  23
TORSDOF 4
ENDMDL
MODEL 8
REMARK VINA RESULT:      -8.2      3.461      6.894
REMARK  4 active torsions:
REMARK  status: ('A' for Active; 'I' for Inactive)
REMARK    1  A    between atoms: N1_5  and  C5_6 
REMARK    2  A    between atoms: C10_13  and  N4_14 
REMARK       I    between atoms: N4_14  and  C11_15 
REMARK    3  A    between atoms: C11_15  and  O2_17 
REMARK    4  A    between atoms: O2_17  and  C12_18 
ROOT
HETATM    1  C5  UNL     1      26.512   2.073  52.527  1.00  0.00     0.143 A 
HETATM    2  N2  UNL     1      27.763   2.480  52.831  1.00  0.00    -0.223 NA
HETATM    3  C6  UNL     1      28.465   1.919  53.838  1.00  0.00     0.236 A 
HETATM    4  N3  UNL     1      27.937   0.917  54.590  1.00  0.00    -0.241 NA
HETATM    5  C7  UNL     1      26.693   0.489  54.313  1.00  0.00     0.072 A 
HETATM    6  C8  UNL     1      26.073  -0.512  55.023  1.00  0.00     0.035 A 
HETATM    7  C9  UNL     1      24.790  -0.892  54.683  1.00  0.00     0.032 A 
HETATM    8  C10 UNL     1      24.063  -0.330  53.662  1.00  0.00     0.037 A 
HETATM    9  C18 UNL     1      24.706   0.670  52.967  1.00  0.00     0.047 A 
HETATM   10  C19 UNL     1      25.975   1.062  53.285  1.00  0.00     0.041 A 
ENDROOT
BRANCH   8  11
HETATM   11  N4  UNL     1      22.757  -0.688  53.286  1.00  0.00    -0.302 N 
HETATM   12  C11 UNL     1      21.522  -0.466  53.926  1.00  0.00     0.370 C 
HETATM   13  O1  UNL     1      21.530   0.147  55.010  1.00  0.00    -0.238 OA
HETATM   14  H10 UNL     1      22.599  -1.214  52.385  1.00  0.00     0.171 HD
BRANCH  12  15
HETATM   15  O2  UNL     1      20.285  -0.860  53.472  1.00  0.00    -0.261 OA
BRANCH  15  16
HETATM   16  C12 UNL     1      19.702  -0.171  52.406  1.00  0.00     0.081 A 
HETATM   17  C13 UNL     1      20.323   0.824  51.685  1.00  0.00     0.040 A 
HETATM   18  C14 UNL     1      19.630   1.428  50.648  1.00  0.00     0.045 A 
HETATM   19  C15 UNL     1      18.341   1.094  50.285  1.00  0.00     0.116 A 
HETATM   20  F1  UNL     1      17.672   1.682  49.278  1.00  0.00    -0.206 F 
HETATM   21  C16 UNL     1      17.736   0.083  51.030  1.00  0.00     0.045 A 
HETATM   22  C17 UNL     1      18.411  -0.527  52.064  1.00  0.00     0.040 A 
ENDBRANCH  15  16
ENDBRANCH  12  15
ENDBRANCH   8  11
BRANCH   1  23
HETATM   23  N1  UNL     1      25.934   2.751  51.421  1.00  0.00    -0.338 N 
HETATM   24  C4  UNL     1      26.415   2.886  50.063  1.00  0.00     0.158 A 
HETATM   25  C3  UNL     1      25.428   3.664  49.279  1.00  0.00    -0.000 A 
HETATM   26  C2  UNL     1      24.275   4.229  49.598  1.00  0.00    -0.063 A 
HETATM   27  C1  UNL     1      23.401   4.985  48.670  1.00  0.00     0.048 C 
HETATM   28  C21 UNL     1      23.917   4.030  50.995  1.00  0.00     0.024 A 
HETATM   29  C20 UNL     1      24.688   3.340  51.853  1.00  0.00     0.093 A 
ENDBRANCH   1  23
TORSDOF 4
ENDMDL
MODEL 9
REMARK VINA RESULT:      -8.1      4.224      7.772
REMARK  4 active torsions:
REMARK  status: ('A' for Active; 'I' for Inactive)
REMARK    1  A    between atoms: N1_5  and  C5_6 
REMARK    2  A    between atoms: C10_13  and  N4_14 
REMARK       I    between atoms: N4_14  and  C11_15 
REMARK    3  A    between atoms: C11_15  and  O2_17 
REMARK    4  A    between atoms: O2_17  and  C12_18 
ROOT
HETATM    1  C5  UNL     1      25.931   2.300  51.912  1.00  0.00     0.143 A 
HETATM    2  N2  UNL     1      27.265   2.127  52.029  1.00  0.00    -0.223 NA
HETATM    3  C6  UNL     1      27.786   1.098  52.731  1.00  0.00     0.236 A 
HETATM    4  N3  UNL     1      26.984   0.192  53.350  1.00  0.00    -0.241 NA
HETATM    5  C7  UNL     1      25.651   0.337  53.253  1.00  0.00     0.072 A 
HETATM    6  C8  UNL     1      24.762  -0.525  53.851  1.00  0.00     0.035 A 
HETATM    7  C9  UNL     1      23.405  -0.306  53.711  1.00  0.00     0.032 A 
HETATM    8  C10 UNL     1      22.861   0.737  53.002  1.00  0.00     0.037 A 
HETATM    9  C18 UNL     1      23.772   1.584  52.413  1.00  0.00     0.047 A 
HETATM   10  C19 UNL     1      25.118   1.387  52.537  1.00  0.00     0.041 A 
ENDROOT
BRANCH   8  11
HETATM   11  N4  UNL     1      21.489   0.993  52.837  1.00  0.00    -0.302 N 
HETATM   12  C11 UNL     1      20.614   0.678  51.779  1.00  0.00     0.370 C 
HETATM   13  O1  UNL     1      21.082   0.069  50.798  1.00  0.00    -0.238 OA
HETATM   14  H10 UNL     1      20.959   1.504  53.594  1.00  0.00     0.171 HD
BRANCH  12  15
HETATM   15  O2  UNL     1      19.273   0.975  51.712  1.00  0.00    -0.261 OA
BRANCH  15  16
HETATM   16  C12 UNL     1      18.342  -0.019  52.019  1.00  0.00     0.081 A 
HETATM   17  C13 UNL     1      18.465  -0.912  53.060  1.00  0.00     0.040 A 
HETATM   18  C14 UNL     1      17.465  -1.851  53.255  1.00  0.00     0.045 A 
HETATM   19  C15 UNL     1      16.339  -1.954  52.464  1.00  0.00     0.116 A 
HETATM   20  F1  UNL     1      15.372  -2.867  52.657  1.00  0.00    -0.206 F 
HETATM   21  C16 UNL     1      16.238  -1.039  51.418  1.00  0.00     0.045 A 
HETATM   22  C17 UNL     1      17.223  -0.099  51.210  1.00  0.00     0.040 A 
ENDBRANCH  15  16
ENDBRANCH  12  15
ENDBRANCH   8  11
BRANCH   1  23
HETATM   23  N1  UNL     1      25.559   3.415  51.115  1.00  0.00    -0.338 N 
HETATM   24  C4  UNL     1      24.428   4.310  51.246  1.00  0.00     0.158 A 
HETATM   25  C3  UNL     1      24.505   5.338  50.183  1.00  0.00    -0.000 A 
HETATM   26  C2  UNL     1      25.361   5.546  49.197  1.00  0.00    -0.063 A 
HETATM   27  C1  UNL     1      25.283   6.644  48.204  1.00  0.00     0.048 C 
HETATM   28  C21 UNL     1      26.440   4.567  49.171  1.00  0.00     0.024 A 
HETATM   29  C20 UNL     1      26.537   3.569  50.065  1.00  0.00     0.093 A 
ENDBRANCH   1  23
TORSDOF 4
ENDMDL
