MODEL 1
REMARK VINA RESULT:      -6.8      0.000      0.000
REMARK  4 active torsions:
REMARK  status: ('A' for Active; 'I' for Inactive)
REMARK    1  A    between atoms: N1_1  and  C1_2 
REMARK    2  A    between atoms: C1_2  and  C2_3 
REMARK    3  A    between atoms: C5_6  and  N2_7 
REMARK    4  A    between atoms: N3_13  and  C10_14 
ROOT
HETATM    1  N2  UNL     1      27.078  -1.211  53.410  1.00  0.00    -0.234 NA
HETATM    2  C6  UNL     1      28.279  -0.813  53.559  1.00  0.00     0.163 C 
HETATM    3  S1  UNL     1      29.790  -0.238  53.630  1.00  0.00    -0.055 SA
ENDROOT
BRANCH   1   4
HETATM    4  C5  UNL     1      25.982  -0.321  53.567  1.00  0.00     0.058 C 
HETATM    5  C4  UNL     1      24.841  -0.944  53.402  1.00  0.00     0.033 C 
HETATM    6  C3  UNL     1      23.466  -0.396  53.478  1.00  0.00     0.029 C 
HETATM    7  C2  UNL     1      22.800   0.753  53.323  1.00  0.00     0.040 C 
HETATM    8  N3  UNL     1      23.355   2.040  52.966  1.00  0.00    -0.345 N 
HETATM    9  C9  UNL     1      24.486   2.837  53.321  1.00  0.00     0.156 C 
HETATM   10  C8  UNL     1      25.709   2.169  53.712  1.00  0.00    -0.005 C 
HETATM   11  C7  UNL     1      26.430   1.057  53.872  1.00  0.00     0.029 C 
BRANCH   7  12
HETATM   12  C1  UNL     1      21.321   0.784  53.529  1.00  0.00     0.323 C 
BRANCH  12  13
HETATM   13  N1  UNL     1      20.898   0.169  54.746  1.00  0.00     0.083 N 
HETATM   14  H1  UNL     1      21.453   0.337  55.584  1.00  0.00     0.313 HD
HETATM   15  H2  UNL     1      19.894   0.313  54.962  1.00  0.00     0.313 HD
ENDBRANCH  12  13
ENDBRANCH   7  12
BRANCH   8  16
HETATM   16  C10 UNL     1      22.514   2.689  51.982  1.00  0.00     0.036 A 
HETATM   17  C11 UNL     1      21.557   3.705  52.107  1.00  0.00     0.029 A 
HETATM   18  C12 UNL     1      20.900   4.148  50.984  1.00  0.00     0.004 A 
HETATM   19  C13 UNL     1      21.129   3.644  49.723  1.00  0.00     0.019 A 
HETATM   20  C14 UNL     1      22.061   2.650  49.589  1.00  0.00     0.013 A 
HETATM   21 BR1  UNL     1      22.339   1.987  47.824  1.00  0.00    -0.051 Br
HETATM   22  C15 UNL     1      22.734   2.189  50.701  1.00  0.00     0.048 A 
ENDBRANCH   8  16
ENDBRANCH   1   4
TORSDOF 4
ENDMDL
MODEL 2
REMARK VINA RESULT:      -6.8      1.409      1.739
REMARK  4 active torsions:
REMARK  status: ('A' for Active; 'I' for Inactive)
REMARK    1  A    between atoms: N1_1  and  C1_2 
REMARK    2  A    between atoms: C1_2  and  C2_3 
REMARK    3  A    between atoms: C5_6  and  N2_7 
REMARK    4  A    between atoms: N3_13  and  C10_14 
ROOT
HETATM    1  N2  UNL     1      26.857  -0.567  54.460  1.00  0.00    -0.234 NA
HETATM    2  C6  UNL     1      28.001  -0.075  54.195  1.00  0.00     0.163 C 
HETATM    3  S1  UNL     1      29.426   0.533  53.725  1.00  0.00    -0.055 SA
ENDROOT
BRANCH   1   4
HETATM    4  C5  UNL     1      25.664   0.154  54.187  1.00  0.00     0.058 C 
HETATM    5  C4  UNL     1      24.615  -0.632  54.240  1.00  0.00     0.033 C 
HETATM    6  C3  UNL     1      23.190  -0.291  54.021  1.00  0.00     0.029 C 
HETATM    7  C2  UNL     1      22.426   0.597  53.378  1.00  0.00     0.040 C 
HETATM    8  N3  UNL     1      22.874   1.694  52.549  1.00  0.00    -0.345 N 
HETATM    9  C9  UNL     1      23.875   2.712  52.597  1.00  0.00     0.156 C 
HETATM   10  C8  UNL     1      25.118   2.430  53.283  1.00  0.00    -0.005 C 
HETATM   11  C7  UNL     1      25.932   1.585  53.918  1.00  0.00     0.029 C 
BRANCH   7  12
HETATM   12  C1  UNL     1      20.938   0.507  53.484  1.00  0.00     0.323 C 
BRANCH  12  13
HETATM   13  N1  UNL     1      20.482   0.007  54.742  1.00  0.00     0.083 N 
HETATM   14  H1  UNL     1      20.257  -0.984  54.809  1.00  0.00     0.313 HD
HETATM   15  H2  UNL     1      21.080   0.282  55.544  1.00  0.00     0.313 HD
ENDBRANCH  12  13
ENDBRANCH   7  12
BRANCH   8  16
HETATM   16  C10 UNL     1      22.069   1.772  51.348  1.00  0.00     0.036 A 
HETATM   17  C11 UNL     1      21.788   0.820  50.359  1.00  0.00     0.029 A 
HETATM   18  C12 UNL     1      20.968   1.165  49.311  1.00  0.00     0.004 A 
HETATM   19  C13 UNL     1      20.398   2.411  49.173  1.00  0.00     0.019 A 
HETATM   20  C14 UNL     1      20.667   3.349  50.133  1.00  0.00     0.013 A 
HETATM   21 BR1  UNL     1      19.854   5.056  49.893  1.00  0.00    -0.051 Br
HETATM   22  C15 UNL     1      21.486   3.027  51.194  1.00  0.00     0.048 A 
ENDBRANCH   8  16
ENDBRANCH   1   4
TORSDOF 4
ENDMDL
MODEL 3
REMARK VINA RESULT:      -6.5      2.498      3.064
REMARK  4 active torsions:
REMARK  status: ('A' for Active; 'I' for Inactive)
REMARK    1  A    between atoms: N1_1  and  C1_2 
REMARK    2  A    between atoms: C1_2  and  C2_3 
REMARK    3  A    between atoms: C5_6  and  N2_7 
REMARK    4  A    between atoms: N3_13  and  C10_14 
ROOT
HETATM    1  N2  UNL     1      27.196   1.372  54.404  1.00  0.00    -0.234 NA
HETATM    2  C6  UNL     1      28.265   0.761  54.082  1.00  0.00     0.163 C 
HETATM    3  S1  UNL     1      29.545  -0.108  53.607  1.00  0.00    -0.055 SA
ENDROOT
BRANCH   1   4
HETATM    4  C5  UNL     1      26.437   2.088  53.440  1.00  0.00     0.058 C 
HETATM    5  C4  UNL     1      25.259   2.415  53.913  1.00  0.00     0.033 C 
HETATM    6  C3  UNL     1      24.166   3.159  53.245  1.00  0.00     0.029 C 
HETATM    7  C2  UNL     1      23.689   3.423  52.024  1.00  0.00     0.040 C 
HETATM    8  N3  UNL     1      24.221   2.958  50.762  1.00  0.00    -0.345 N 
HETATM    9  C9  UNL     1      25.501   2.819  50.144  1.00  0.00     0.156 C 
HETATM   10  C8  UNL     1      26.650   2.546  50.982  1.00  0.00    -0.005 C 
HETATM   11  C7  UNL     1      27.183   2.265  52.173  1.00  0.00     0.029 C 
BRANCH   7  12
HETATM   12  C1  UNL     1      22.480   4.287  51.873  1.00  0.00     0.323 C 
BRANCH  12  13
HETATM   13  N1  UNL     1      22.739   5.677  52.074  1.00  0.00     0.083 N 
HETATM   14  H1  UNL     1      23.667   5.948  52.398  1.00  0.00     0.313 HD
HETATM   15  H2  UNL     1      22.463   6.275  51.273  1.00  0.00     0.313 HD
ENDBRANCH  12  13
ENDBRANCH   7  12
BRANCH   8  16
HETATM   16  C10 UNL     1      23.143   2.528  49.896  1.00  0.00     0.036 A 
HETATM   17  C11 UNL     1      22.218   1.483  50.019  1.00  0.00     0.029 A 
HETATM   18  C12 UNL     1      21.276   1.302  49.035  1.00  0.00     0.004 A 
HETATM   19  C13 UNL     1      21.187   2.100  47.916  1.00  0.00     0.019 A 
HETATM   20  C14 UNL     1      22.086   3.124  47.784  1.00  0.00     0.013 A 
HETATM   21 BR1  UNL     1      21.920   4.197  46.218  1.00  0.00    -0.051 Br
HETATM   22  C15 UNL     1      23.040   3.325  48.759  1.00  0.00     0.048 A 
ENDBRANCH   8  16
ENDBRANCH   1   4
TORSDOF 4
ENDMDL
MODEL 4
REMARK VINA RESULT:      -6.5      3.316      4.344
REMARK  4 active torsions:
REMARK  status: ('A' for Active; 'I' for Inactive)
REMARK    1  A    between atoms: N1_1  and  C1_2 
REMARK    2  A    between atoms: C1_2  and  C2_3 
REMARK    3  A    between atoms: C5_6  and  N2_7 
REMARK    4  A    between atoms: N3_13  and  C10_14 
ROOT
HETATM    1  N2  UNL     1      25.099   0.342  53.158  1.00  0.00    -0.234 NA
HETATM    2  C6  UNL     1      23.990  -0.262  53.315  1.00  0.00     0.163 C 
HETATM    3  S1  UNL     1      22.548  -0.935  53.611  1.00  0.00    -0.055 SA
ENDROOT
BRANCH   1   4
HETATM    4  C5  UNL     1      25.162   1.620  52.540  1.00  0.00     0.058 C 
HETATM    5  C4  UNL     1      24.154   2.373  52.909  1.00  0.00     0.033 C 
HETATM    6  C3  UNL     1      23.840   3.763  52.504  1.00  0.00     0.029 C 
HETATM    7  C2  UNL     1      24.041   4.618  51.497  1.00  0.00     0.040 C 
HETATM    8  N3  UNL     1      24.771   4.368  50.274  1.00  0.00    -0.345 N 
HETATM    9  C9  UNL     1      25.999   3.748  49.886  1.00  0.00     0.156 C 
HETATM   10  C8  UNL     1      26.492   2.636  50.671  1.00  0.00    -0.005 C 
HETATM   11  C7  UNL     1      26.341   1.746  51.654  1.00  0.00     0.029 C 
BRANCH   7  12
HETATM   12  C1  UNL     1      23.480   6.001  51.577  1.00  0.00     0.323 C 
BRANCH  12  13
HETATM   13  N1  UNL     1      24.404   6.966  52.083  1.00  0.00     0.083 N 
HETATM   14  H1  UNL     1      25.394   6.829  51.884  1.00  0.00     0.313 HD
HETATM   15  H2  UNL     1      24.141   7.947  51.874  1.00  0.00     0.313 HD
ENDBRANCH  12  13
ENDBRANCH   7  12
BRANCH   8  16
HETATM   16  C10 UNL     1      24.047   4.908  49.142  1.00  0.00     0.036 A 
HETATM   17  C11 UNL     1      24.234   6.081  48.398  1.00  0.00     0.029 A 
HETATM   18  C12 UNL     1      23.390   6.350  47.347  1.00  0.00     0.004 A 
HETATM   19  C13 UNL     1      22.355   5.520  46.976  1.00  0.00     0.019 A 
HETATM   20  C14 UNL     1      22.163   4.372  47.696  1.00  0.00     0.013 A 
HETATM   21 BR1  UNL     1      20.717   3.262  47.141  1.00  0.00    -0.051 Br
HETATM   22  C15 UNL     1      22.996   4.081  48.755  1.00  0.00     0.048 A 
ENDBRANCH   8  16
ENDBRANCH   1   4
TORSDOF 4
ENDMDL
MODEL 5
REMARK VINA RESULT:      -6.5      3.130      4.725
REMARK  4 active torsions:
REMARK  status: ('A' for Active; 'I' for Inactive)
REMARK    1  A    between atoms: N1_1  and  C1_2 
REMARK    2  A    between atoms: C1_2  and  C2_3 
REMARK    3  A    between atoms: C5_6  and  N2_7 
REMARK    4  A    between atoms: N3_13  and  C10_14 
ROOT
HETATM    1  N2  UNL     1      26.702   2.941  49.589  1.00  0.00    -0.234 NA
HETATM    2  C6  UNL     1      26.798   4.169  49.265  1.00  0.00     0.163 C 
HETATM    3  S1  UNL     1      26.783   5.729  48.833  1.00  0.00    -0.055 SA
ENDROOT
BRANCH   1   4
HETATM    4  C5  UNL     1      26.098   2.547  50.812  1.00  0.00     0.058 C 
HETATM    5  C4  UNL     1      26.545   1.379  51.205  1.00  0.00     0.033 C 
HETATM    6  C3  UNL     1      26.180   0.607  52.416  1.00  0.00     0.029 C 
HETATM    7  C2  UNL     1      25.173   0.452  53.280  1.00  0.00     0.040 C 
HETATM    8  N3  UNL     1      23.899   1.138  53.266  1.00  0.00    -0.345 N 
HETATM    9  C9  UNL     1      23.420   2.469  53.070  1.00  0.00     0.156 C 
HETATM   10  C8  UNL     1      24.155   3.347  52.184  1.00  0.00    -0.005 C 
HETATM   11  C7  UNL     1      25.135   3.559  51.303  1.00  0.00     0.029 C 
BRANCH   7  12
HETATM   12  C1  UNL     1      25.309  -0.516  54.410  1.00  0.00     0.323 C 
BRANCH  12  13
HETATM   13  N1  UNL     1      26.392  -0.220  55.292  1.00  0.00     0.083 N 
HETATM   14  H1  UNL     1      27.118  -0.926  55.410  1.00  0.00     0.313 HD
HETATM   15  H2  UNL     1      26.831   0.704  55.121  1.00  0.00     0.313 HD
ENDBRANCH  12  13
ENDBRANCH   7  12
BRANCH   8  16
HETATM   16  C10 UNL     1      22.827   0.202  53.533  1.00  0.00     0.036 A 
HETATM   17  C11 UNL     1      22.758  -0.908  54.385  1.00  0.00     0.029 A 
HETATM   18  C12 UNL     1      21.590  -1.629  54.454  1.00  0.00     0.004 A 
HETATM   19  C13 UNL     1      20.464  -1.319  53.723  1.00  0.00     0.019 A 
HETATM   20  C14 UNL     1      20.520  -0.237  52.887  1.00  0.00     0.013 A 
HETATM   21 BR1  UNL     1      18.937   0.147  51.899  1.00  0.00    -0.051 Br
HETATM   22  C15 UNL     1      21.681   0.502  52.801  1.00  0.00     0.048 A 
ENDBRANCH   8  16
ENDBRANCH   1   4
TORSDOF 4
ENDMDL
MODEL 6
REMARK VINA RESULT:      -6.4      4.201      6.374
REMARK  4 active torsions:
REMARK  status: ('A' for Active; 'I' for Inactive)
REMARK    1  A    between atoms: N1_1  and  C1_2 
REMARK    2  A    between atoms: C1_2  and  C2_3 
REMARK    3  A    between atoms: C5_6  and  N2_7 
REMARK    4  A    between atoms: N3_13  and  C10_14 
ROOT
HETATM    1  N2  UNL     1      24.741   7.354  49.948  1.00  0.00    -0.234 NA
HETATM    2  C6  UNL     1      25.811   8.043  49.936  1.00  0.00     0.163 C 
HETATM    3  S1  UNL     1      27.184   8.892  50.055  1.00  0.00    -0.055 SA
ENDROOT
BRANCH   1   4
HETATM    4  C5  UNL     1      24.774   5.943  50.109  1.00  0.00     0.058 C 
HETATM    5  C4  UNL     1      23.792   5.531  50.874  1.00  0.00     0.033 C 
HETATM    6  C3  UNL     1      23.463   4.149  51.295  1.00  0.00     0.029 C 
HETATM    7  C2  UNL     1      24.042   2.961  51.491  1.00  0.00     0.040 C 
HETATM    8  N3  UNL     1      25.439   2.631  51.307  1.00  0.00    -0.345 N 
HETATM    9  C9  UNL     1      26.463   2.883  50.344  1.00  0.00     0.156 C 
HETATM   10  C8  UNL     1      26.429   4.126  49.603  1.00  0.00    -0.005 C 
HETATM   11  C7  UNL     1      25.902   5.330  49.372  1.00  0.00     0.029 C 
BRANCH   7  12
HETATM   12  C1  UNL     1      23.217   1.802  51.947  1.00  0.00     0.323 C 
BRANCH  12  13
HETATM   13  N1  UNL     1      22.442   1.204  50.907  1.00  0.00     0.083 N 
HETATM   14  H1  UNL     1      22.881   0.480  50.340  1.00  0.00     0.313 HD
HETATM   15  H2  UNL     1      21.505   0.884  51.214  1.00  0.00     0.313 HD
ENDBRANCH  12  13
ENDBRANCH   7  12
BRANCH   8  16
HETATM   16  C10 UNL     1      25.907   1.815  52.407  1.00  0.00     0.036 A 
HETATM   17  C11 UNL     1      26.089   2.108  53.765  1.00  0.00     0.029 A 
HETATM   18  C12 UNL     1      26.545   1.123  54.608  1.00  0.00     0.004 A 
HETATM   19  C13 UNL     1      26.840  -0.156  54.189  1.00  0.00     0.019 A 
HETATM   20  C14 UNL     1      26.667  -0.453  52.864  1.00  0.00     0.013 A 
HETATM   21 BR1  UNL     1      27.090  -2.235  52.338  1.00  0.00    -0.051 Br
HETATM   22  C15 UNL     1      26.210   0.518  51.999  1.00  0.00     0.048 A 
ENDBRANCH   8  16
ENDBRANCH   1   4
TORSDOF 4
ENDMDL
MODEL 7
REMARK VINA RESULT:      -6.3     11.099     13.170
REMARK  4 active torsions:
REMARK  status: ('A' for Active; 'I' for Inactive)
REMARK    1  A    between atoms: N1_1  and  C1_2 
REMARK    2  A    between atoms: C1_2  and  C2_3 
REMARK    3  A    between atoms: C5_6  and  N2_7 
REMARK    4  A    between atoms: N3_13  and  C10_14 
ROOT
HETATM    1  N2  UNL     1      29.908   9.858  47.749  1.00  0.00    -0.234 NA
HETATM    2  C6  UNL     1      30.057  11.038  48.203  1.00  0.00     0.163 C 
HETATM    3  S1  UNL     1      30.207  12.489  48.904  1.00  0.00    -0.055 SA
ENDROOT
BRANCH   1   4
HETATM    4  C5  UNL     1      30.804   8.814  48.103  1.00  0.00     0.058 C 
HETATM    5  C4  UNL     1      32.051   9.195  47.968  1.00  0.00     0.033 C 
HETATM    6  C3  UNL     1      33.289   8.423  48.227  1.00  0.00     0.029 C 
HETATM    7  C2  UNL     1      33.735   7.164  48.265  1.00  0.00     0.040 C 
HETATM    8  N3  UNL     1      32.972   5.962  48.011  1.00  0.00    -0.345 N 
HETATM    9  C9  UNL     1      31.690   5.434  48.355  1.00  0.00     0.156 C 
HETATM   10  C8  UNL     1      30.592   6.355  48.557  1.00  0.00    -0.005 C 
HETATM   11  C7  UNL     1      30.086   7.590  48.524  1.00  0.00     0.029 C 
BRANCH   7  12
HETATM   12  C1  UNL     1      35.165   6.895  48.601  1.00  0.00     0.323 C 
BRANCH  12  13
HETATM   13  N1  UNL     1      35.984   8.065  48.603  1.00  0.00     0.083 N 
HETATM   14  H1  UNL     1      35.649   8.883  48.095  1.00  0.00     0.313 HD
HETATM   15  H2  UNL     1      36.305   8.351  49.547  1.00  0.00     0.313 HD
ENDBRANCH  12  13
ENDBRANCH   7  12
BRANCH   8  16
HETATM   16  C10 UNL     1      33.737   5.051  47.186  1.00  0.00     0.036 A 
HETATM   17  C11 UNL     1      34.450   3.888  47.506  1.00  0.00     0.029 A 
HETATM   18  C12 UNL     1      35.089   3.197  46.505  1.00  0.00     0.004 A 
HETATM   19  C13 UNL     1      35.072   3.587  45.184  1.00  0.00     0.019 A 
HETATM   20  C14 UNL     1      34.380   4.723  44.860  1.00  0.00     0.013 A 
HETATM   21 BR1  UNL     1      34.389   5.218  43.020  1.00  0.00    -0.051 Br
HETATM   22  C15 UNL     1      33.729   5.433  45.846  1.00  0.00     0.048 A 
ENDBRANCH   8  16
ENDBRANCH   1   4
TORSDOF 4
ENDMDL
MODEL 8
REMARK VINA RESULT:      -6.2      3.871      5.435
REMARK  4 active torsions:
REMARK  status: ('A' for Active; 'I' for Inactive)
REMARK    1  A    between atoms: N1_1  and  C1_2 
REMARK    2  A    between atoms: C1_2  and  C2_3 
REMARK    3  A    between atoms: C5_6  and  N2_7 
REMARK    4  A    between atoms: N3_13  and  C10_14 
ROOT
HETATM    1  N2  UNL     1      20.334   0.012  53.020  1.00  0.00    -0.234 NA
HETATM    2  C6  UNL     1      21.136  -0.535  53.843  1.00  0.00     0.163 C 
HETATM    3  S1  UNL     1      22.210  -1.299  54.783  1.00  0.00    -0.055 SA
ENDROOT
BRANCH   1   4
HETATM    4  C5  UNL     1      20.785   0.986  52.089  1.00  0.00     0.058 C 
HETATM    5  C4  UNL     1      21.206   0.422  50.983  1.00  0.00     0.033 C 
HETATM    6  C3  UNL     1      21.754   1.066  49.766  1.00  0.00     0.029 C 
HETATM    7  C2  UNL     1      22.390   2.176  49.379  1.00  0.00     0.040 C 
HETATM    8  N3  UNL     1      22.802   3.281  50.217  1.00  0.00    -0.345 N 
HETATM    9  C9  UNL     1      22.251   4.062  51.278  1.00  0.00     0.156 C 
HETATM   10  C8  UNL     1      21.308   3.438  52.182  1.00  0.00    -0.005 C 
HETATM   11  C7  UNL     1      20.656   2.361  52.623  1.00  0.00     0.029 C 
BRANCH   7  12
HETATM   12  C1  UNL     1      22.743   2.363  47.939  1.00  0.00     0.323 C 
BRANCH  12  13
HETATM   13  N1  UNL     1      21.763   3.092  47.199  1.00  0.00     0.083 N 
HETATM   14  H1  UNL     1      21.112   3.679  47.718  1.00  0.00     0.313 HD
HETATM   15  H2  UNL     1      22.154   3.628  46.402  1.00  0.00     0.313 HD
ENDBRANCH  12  13
ENDBRANCH   7  12
BRANCH   8  16
HETATM   16  C10 UNL     1      24.141   3.702  49.862  1.00  0.00     0.036 A 
HETATM   17  C11 UNL     1      25.377   3.052  49.976  1.00  0.00     0.029 A 
HETATM   18  C12 UNL     1      26.514   3.692  49.543  1.00  0.00     0.004 A 
HETATM   19  C13 UNL     1      26.509   4.955  48.994  1.00  0.00     0.019 A 
HETATM   20  C14 UNL     1      25.307   5.600  48.879  1.00  0.00     0.013 A 
HETATM   21 BR1  UNL     1      25.358   7.345  48.114  1.00  0.00    -0.051 Br
HETATM   22  C15 UNL     1      24.153   4.979  49.306  1.00  0.00     0.048 A 
ENDBRANCH   8  16
ENDBRANCH   1   4
TORSDOF 4
ENDMDL
MODEL 9
REMARK VINA RESULT:      -6.2      4.331      5.868
REMARK  4 active torsions:
REMARK  status: ('A' for Active; 'I' for Inactive)
REMARK    1  A    between atoms: N1_1  and  C1_2 
REMARK    2  A    between atoms: C1_2  and  C2_3 
REMARK    3  A    between atoms: C5_6  and  N2_7 
REMARK    4  A    between atoms: N3_13  and  C10_14 
ROOT
HETATM    1  N2  UNL     1      26.084   6.859  48.857  1.00  0.00    -0.234 NA
HETATM    2  C6  UNL     1      26.772   7.870  49.209  1.00  0.00     0.163 C 
HETATM    3  S1  UNL     1      27.534   9.206  49.716  1.00  0.00    -0.055 SA
ENDROOT
BRANCH   1   4
HETATM    4  C5  UNL     1      25.642   5.901  49.809  1.00  0.00     0.058 C 
HETATM    5  C4  UNL     1      26.221   4.740  49.613  1.00  0.00     0.033 C 
HETATM    6  C3  UNL     1      26.047   3.479  50.371  1.00  0.00     0.029 C 
HETATM    7  C2  UNL     1      25.150   2.844  51.131  1.00  0.00     0.040 C 
HETATM    8  N3  UNL     1      23.830   3.311  51.496  1.00  0.00    -0.345 N 
HETATM    9  C9  UNL     1      23.228   4.527  51.943  1.00  0.00     0.156 C 
HETATM   10  C8  UNL     1      23.794   5.784  51.501  1.00  0.00    -0.005 C 
HETATM   11  C7  UNL     1      24.657   6.474  50.753  1.00  0.00     0.029 C 
BRANCH   7  12
HETATM   12  C1  UNL     1      25.479   1.502  51.700  1.00  0.00     0.323 C 
BRANCH  12  13
HETATM   13  N1  UNL     1      26.864   1.164  51.607  1.00  0.00     0.083 N 
HETATM   14  H1  UNL     1      27.206   0.793  50.722  1.00  0.00     0.313 HD
HETATM   15  H2  UNL     1      27.501   1.912  51.939  1.00  0.00     0.313 HD
ENDBRANCH  12  13
ENDBRANCH   7  12
BRANCH   8  16
HETATM   16  C10 UNL     1      22.870   2.233  51.379  1.00  0.00     0.036 A 
HETATM   17  C11 UNL     1      22.314   1.607  50.256  1.00  0.00     0.029 A 
HETATM   18  C12 UNL     1      21.416   0.582  50.435  1.00  0.00     0.004 A 
HETATM   19  C13 UNL     1      21.023   0.128  51.675  1.00  0.00     0.019 A 
HETATM   20  C14 UNL     1      21.560   0.732  52.779  1.00  0.00     0.013 A 
HETATM   21 BR1  UNL     1      20.983   0.066  54.469  1.00  0.00    -0.051 Br
HETATM   22  C15 UNL     1      22.463   1.762  52.625  1.00  0.00     0.048 A 
ENDBRANCH   8  16
ENDBRANCH   1   4
TORSDOF 4
ENDMDL
