MODEL 1
REMARK VINA RESULT:      -6.5      0.000      0.000
REMARK  7 active torsions:
REMARK  status: ('A' for Active; 'I' for Inactive)
REMARK    1  A    between atoms: C2_3  and  C3_4 
REMARK    2  A    between atoms: C8_11  and  C9_12 
REMARK    3  A    between atoms: C9_12  and  C10_13 
REMARK    4  A    between atoms: C11_14  and  O1_15 
REMARK    5  A    between atoms: O1_15  and  C12_16 
REMARK    6  A    between atoms: C12_16  and  C13_17 
REMARK    7  A    between atoms: C18_23  and  C19_24 
ROOT
HETATM    1  N1  UNL     1      32.132   1.103  46.745  1.00  0.00    -0.197 NA
HETATM    2  C1  UNL     1      32.928   1.937  46.982  1.00  0.00     0.063 C 
HETATM    3  C2  UNL     1      33.905   2.937  47.275  1.00  0.00     0.158 C 
ENDROOT
BRANCH   3   4
HETATM    4  C3  UNL     1      33.502   4.356  46.892  1.00  0.00    -0.059 C 
HETATM    5  C4  UNL     1      33.449   4.177  45.642  1.00  0.00     0.017 C 
HETATM    6  C5  UNL     1      33.131   4.899  44.373  1.00  0.00     0.206 C 
HETATM    7  N2  UNL     1      32.576   6.120  44.112  1.00  0.00    -0.315 NA
HETATM    8  C6  UNL     1      32.267   6.721  45.327  1.00  0.00     0.102 C 
HETATM    9  C7  UNL     1      31.210   7.598  45.805  1.00  0.00     0.133 C 
HETATM   10  N3  UNL     1      31.515   7.545  47.292  1.00  0.00    -0.392 N 
HETATM   11  C8  UNL     1      31.346   6.273  48.049  1.00  0.00     0.005 C 
HETATM   12  H9  UNL     1      31.808   7.992  48.147  1.00  0.00     0.159 HD
HETATM   13  C17 UNL     1      32.320   5.462  48.814  1.00  0.00     0.068 C 
HETATM   14  C18 UNL     1      33.619   5.087  48.127  1.00  0.00     0.055 C 
BRANCH  11  15
HETATM   15  C9  UNL     1      30.105   5.863  47.973  1.00  0.00     0.026 C 
BRANCH  15  16
HETATM   16  C10 UNL     1      28.706   5.616  48.237  1.00  0.00     0.026 C 
HETATM   17  C11 UNL     1      27.474   5.956  48.524  1.00  0.00     0.135 C 
BRANCH  17  18
HETATM   18  O1  UNL     1      26.401   5.255  48.679  1.00  0.00    -0.358 OA
BRANCH  18  19
HETATM   19  C12 UNL     1      25.327   4.932  49.418  1.00  0.00     0.220 C 
BRANCH  19  20
HETATM   20  C13 UNL     1      25.484   3.725  50.277  1.00  0.00     0.006 A 
HETATM   21  C14 UNL     1      26.636   2.993  50.632  1.00  0.00     0.017 A 
HETATM   22  C15 UNL     1      26.370   1.913  51.435  1.00  0.00     0.008 A 
HETATM   23  C16 UNL     1      25.137   1.533  51.878  1.00  0.00     0.050 A 
HETATM   24  S1  UNL     1      24.088   2.916  51.051  1.00  0.00    -0.104 SA
ENDBRANCH  19  20
ENDBRANCH  18  19
ENDBRANCH  17  18
ENDBRANCH  15  16
ENDBRANCH  11  15
BRANCH  14  25
HETATM   25  C19 UNL     1      34.218   6.460  47.786  1.00  0.00     0.400 C 
HETATM   26  O2  UNL     1      34.423   7.226  48.745  1.00  0.00    -0.429 OA
ENDBRANCH  14  25
ENDBRANCH   3   4
TORSDOF 7
ENDMDL
MODEL 2
REMARK VINA RESULT:      -6.4      7.795     10.399
REMARK  7 active torsions:
REMARK  status: ('A' for Active; 'I' for Inactive)
REMARK    1  A    between atoms: C2_3  and  C3_4 
REMARK    2  A    between atoms: C8_11  and  C9_12 
REMARK    3  A    between atoms: C9_12  and  C10_13 
REMARK    4  A    between atoms: C11_14  and  O1_15 
REMARK    5  A    between atoms: O1_15  and  C12_16 
REMARK    6  A    between atoms: C12_16  and  C13_17 
REMARK    7  A    between atoms: C18_23  and  C19_24 
ROOT
HETATM    1  N1  UNL     1      23.520   8.094  50.227  1.00  0.00    -0.197 NA
HETATM    2  C1  UNL     1      23.502   7.067  50.803  1.00  0.00     0.063 C 
HETATM    3  C2  UNL     1      23.489   5.830  51.516  1.00  0.00     0.158 C 
ENDROOT
BRANCH   3   4
HETATM    4  C3  UNL     1      22.691   4.716  50.847  1.00  0.00    -0.059 C 
HETATM    5  C4  UNL     1      23.473   4.520  49.874  1.00  0.00     0.017 C 
HETATM    6  C5  UNL     1      23.640   3.653  48.669  1.00  0.00     0.206 C 
HETATM    7  N2  UNL     1      22.992   2.532  48.233  1.00  0.00    -0.315 NA
HETATM    8  C6  UNL     1      22.018   2.207  49.170  1.00  0.00     0.102 C 
HETATM    9  C7  UNL     1      21.450   0.969  49.682  1.00  0.00     0.133 C 
HETATM   10  N3  UNL     1      20.648   1.538  50.838  1.00  0.00    -0.392 N 
HETATM   11  C8  UNL     1      21.342   2.164  51.998  1.00  0.00     0.005 C 
HETATM   12  H9  UNL     1      19.766   1.731  51.287  1.00  0.00     0.159 HD
HETATM   13  C17 UNL     1      21.268   3.537  52.548  1.00  0.00     0.068 C 
HETATM   14  C18 UNL     1      21.456   4.693  51.587  1.00  0.00     0.055 C 
BRANCH  11  15
HETATM   15  C9  UNL     1      22.137   1.296  52.572  1.00  0.00     0.026 C 
BRANCH  15  16
HETATM   16  C10 UNL     1      23.274   0.481  52.930  1.00  0.00     0.026 C 
HETATM   17  C11 UNL     1      23.873  -0.543  53.486  1.00  0.00     0.135 C 
BRANCH  17  18
HETATM   18  O1  UNL     1      25.116  -0.888  53.542  1.00  0.00    -0.358 OA
BRANCH  18  19
HETATM   19  C12 UNL     1      26.331  -0.935  52.971  1.00  0.00     0.220 C 
BRANCH  19  20
HETATM   20  C13 UNL     1      27.239   0.196  53.310  1.00  0.00     0.006 A 
HETATM   21  C14 UNL     1      27.178   1.561  52.959  1.00  0.00     0.017 A 
HETATM   22  C15 UNL     1      28.225   2.298  53.451  1.00  0.00     0.008 A 
HETATM   23  C16 UNL     1      29.252   1.818  54.209  1.00  0.00     0.050 A 
HETATM   24  S1  UNL     1      28.714  -0.027  54.297  1.00  0.00    -0.104 SA
ENDBRANCH  19  20
ENDBRANCH  18  19
ENDBRANCH  17  18
ENDBRANCH  15  16
ENDBRANCH  11  15
BRANCH  14  25
HETATM   25  C19 UNL     1      20.325   4.462  50.572  1.00  0.00     0.400 C 
HETATM   26  O2  UNL     1      19.176   4.363  51.040  1.00  0.00    -0.429 OA
ENDBRANCH  14  25
ENDBRANCH   3   4
TORSDOF 7
ENDMDL
MODEL 3
REMARK VINA RESULT:      -6.2      1.813      2.914
REMARK  7 active torsions:
REMARK  status: ('A' for Active; 'I' for Inactive)
REMARK    1  A    between atoms: C2_3  and  C3_4 
REMARK    2  A    between atoms: C8_11  and  C9_12 
REMARK    3  A    between atoms: C9_12  and  C10_13 
REMARK    4  A    between atoms: C11_14  and  O1_15 
REMARK    5  A    between atoms: O1_15  and  C12_16 
REMARK    6  A    between atoms: C12_16  and  C13_17 
REMARK    7  A    between atoms: C18_23  and  C19_24 
ROOT
HETATM    1  N1  UNL     1      32.415   6.840  42.506  1.00  0.00    -0.197 NA
HETATM    2  C1  UNL     1      32.957   6.071  43.215  1.00  0.00     0.063 C 
HETATM    3  C2  UNL     1      33.621   5.131  44.061  1.00  0.00     0.158 C 
ENDROOT
BRANCH   3   4
HETATM    4  C3  UNL     1      33.668   5.519  45.534  1.00  0.00    -0.059 C 
HETATM    5  C4  UNL     1      33.877   6.754  45.369  1.00  0.00     0.017 C 
HETATM    6  C5  UNL     1      34.054   8.020  46.141  1.00  0.00     0.206 C 
HETATM    7  N2  UNL     1      33.884   8.336  47.460  1.00  0.00    -0.315 NA
HETATM    8  C6  UNL     1      33.442   7.197  48.122  1.00  0.00     0.102 C 
HETATM    9  C7  UNL     1      32.540   6.932  49.231  1.00  0.00     0.133 C 
HETATM   10  N3  UNL     1      32.456   5.421  49.111  1.00  0.00    -0.392 N 
HETATM   11  C8  UNL     1      31.814   4.795  47.921  1.00  0.00     0.005 C 
HETATM   12  H9  UNL     1      32.632   4.497  49.476  1.00  0.00     0.159 HD
HETATM   13  C17 UNL     1      32.355   3.869  46.900  1.00  0.00     0.068 C 
HETATM   14  C18 UNL     1      33.654   4.252  46.219  1.00  0.00     0.055 C 
BRANCH  11  15
HETATM   15  C9  UNL     1      30.567   5.182  47.824  1.00  0.00     0.026 C 
BRANCH  15  16
HETATM   16  C10 UNL     1      29.158   5.398  48.061  1.00  0.00     0.026 C 
HETATM   17  C11 UNL     1      28.098   6.113  48.346  1.00  0.00     0.135 C 
BRANCH  17  18
HETATM   18  O1  UNL     1      26.851   5.798  48.461  1.00  0.00    -0.358 OA
BRANCH  18  19
HETATM   19  C12 UNL     1      25.737   5.741  49.208  1.00  0.00     0.220 C 
BRANCH  19  20
HETATM   20  C13 UNL     1      25.592   4.517  50.044  1.00  0.00     0.006 A 
HETATM   21  C14 UNL     1      26.420   3.381  50.161  1.00  0.00     0.017 A 
HETATM   22  C15 UNL     1      25.933   2.438  51.031  1.00  0.00     0.008 A 
HETATM   23  C16 UNL     1      24.772   2.532  51.741  1.00  0.00     0.050 A 
HETATM   24  S1  UNL     1      24.190   4.259  51.124  1.00  0.00    -0.104 SA
ENDBRANCH  19  20
ENDBRANCH  18  19
ENDBRANCH  17  18
ENDBRANCH  15  16
ENDBRANCH  11  15
BRANCH  14  25
HETATM   25  C19 UNL     1      34.625   4.367  47.404  1.00  0.00     0.400 C 
HETATM   26  O2  UNL     1      34.850   3.319  48.036  1.00  0.00    -0.429 OA
ENDBRANCH  14  25
ENDBRANCH   3   4
TORSDOF 7
ENDMDL
MODEL 4
REMARK VINA RESULT:      -6.2      7.315      9.456
REMARK  7 active torsions:
REMARK  status: ('A' for Active; 'I' for Inactive)
REMARK    1  A    between atoms: C2_3  and  C3_4 
REMARK    2  A    between atoms: C8_11  and  C9_12 
REMARK    3  A    between atoms: C9_12  and  C10_13 
REMARK    4  A    between atoms: C11_14  and  O1_15 
REMARK    5  A    between atoms: O1_15  and  C12_16 
REMARK    6  A    between atoms: C12_16  and  C13_17 
REMARK    7  A    between atoms: C18_23  and  C19_24 
ROOT
HETATM    1  N1  UNL     1      21.725   5.465  45.301  1.00  0.00    -0.197 NA
HETATM    2  C1  UNL     1      21.904   4.686  46.167  1.00  0.00     0.063 C 
HETATM    3  C2  UNL     1      22.124   3.729  47.204  1.00  0.00     0.158 C 
ENDROOT
BRANCH   3   4
HETATM    4  C3  UNL     1      22.344   4.327  48.588  1.00  0.00    -0.059 C 
HETATM    5  C4  UNL     1      21.256   3.945  49.104  1.00  0.00     0.017 C 
HETATM    6  C5  UNL     1      20.502   3.976  50.394  1.00  0.00     0.206 C 
HETATM    7  N2  UNL     1      20.844   4.355  51.661  1.00  0.00    -0.315 NA
HETATM    8  C6  UNL     1      22.176   4.755  51.647  1.00  0.00     0.102 C 
HETATM    9  C7  UNL     1      23.288   4.673  52.580  1.00  0.00     0.133 C 
HETATM   10  N3  UNL     1      24.405   5.121  51.654  1.00  0.00    -0.392 N 
HETATM   11  C8  UNL     1      24.801   4.279  50.491  1.00  0.00     0.005 C 
HETATM   12  H9  UNL     1      25.117   5.785  51.390  1.00  0.00     0.159 HD
HETATM   13  C17 UNL     1      24.804   4.567  49.039  1.00  0.00     0.068 C 
HETATM   14  C18 UNL     1      23.534   5.123  48.428  1.00  0.00     0.055 C 
BRANCH  11  15
HETATM   15  C9  UNL     1      25.195   3.099  50.901  1.00  0.00     0.026 C 
BRANCH  15  16
HETATM   16  C10 UNL     1      25.480   1.932  51.703  1.00  0.00     0.026 C 
HETATM   17  C11 UNL     1      26.247   1.003  52.218  1.00  0.00     0.135 C 
BRANCH  17  18
HETATM   18  O1  UNL     1      25.992   0.014  53.008  1.00  0.00    -0.358 OA
BRANCH  18  19
HETATM   19  C12 UNL     1      25.420  -0.452  54.130  1.00  0.00     0.220 C 
BRANCH  19  20
HETATM   20  C13 UNL     1      23.948  -0.669  54.051  1.00  0.00     0.006 A 
HETATM   21  C14 UNL     1      23.022  -0.334  53.041  1.00  0.00     0.017 A 
HETATM   22  C15 UNL     1      21.731  -0.682  53.348  1.00  0.00     0.008 A 
HETATM   23  C16 UNL     1      21.321  -1.292  54.497  1.00  0.00     0.050 A 
HETATM   24  S1  UNL     1      23.026  -1.445  55.373  1.00  0.00    -0.104 SA
ENDBRANCH  19  20
ENDBRANCH  18  19
ENDBRANCH  17  18
ENDBRANCH  15  16
ENDBRANCH  11  15
BRANCH  14  25
HETATM   25  C19 UNL     1      23.323   6.417  49.230  1.00  0.00     0.400 C 
HETATM   26  O2  UNL     1      24.238   7.258  49.170  1.00  0.00    -0.429 OA
ENDBRANCH  14  25
ENDBRANCH   3   4
TORSDOF 7
ENDMDL
MODEL 5
REMARK VINA RESULT:      -6.0      3.575      5.178
REMARK  7 active torsions:
REMARK  status: ('A' for Active; 'I' for Inactive)
REMARK    1  A    between atoms: C2_3  and  C3_4 
REMARK    2  A    between atoms: C8_11  and  C9_12 
REMARK    3  A    between atoms: C9_12  and  C10_13 
REMARK    4  A    between atoms: C11_14  and  O1_15 
REMARK    5  A    between atoms: O1_15  and  C12_16 
REMARK    6  A    between atoms: C12_16  and  C13_17 
REMARK    7  A    between atoms: C18_23  and  C19_24 
ROOT
HETATM    1  N1  UNL     1      34.459   4.555  41.810  1.00  0.00    -0.197 NA
HETATM    2  C1  UNL     1      33.727   5.109  42.548  1.00  0.00     0.063 C 
HETATM    3  C2  UNL     1      32.828   5.782  43.430  1.00  0.00     0.158 C 
ENDROOT
BRANCH   3   4
HETATM    4  C3  UNL     1      33.237   5.761  44.898  1.00  0.00    -0.059 C 
HETATM    5  C4  UNL     1      33.531   6.986  45.001  1.00  0.00     0.017 C 
HETATM    6  C5  UNL     1      34.003   7.992  45.999  1.00  0.00     0.206 C 
HETATM    7  N2  UNL     1      34.159   7.952  47.356  1.00  0.00    -0.315 NA
HETATM    8  C6  UNL     1      33.758   6.697  47.799  1.00  0.00     0.102 C 
HETATM    9  C7  UNL     1      33.098   6.185  48.989  1.00  0.00     0.133 C 
HETATM   10  N3  UNL     1      32.834   4.766  48.520  1.00  0.00    -0.392 N 
HETATM   11  C8  UNL     1      31.886   4.508  47.400  1.00  0.00     0.005 C 
HETATM   12  H9  UNL     1      32.989   3.771  48.591  1.00  0.00     0.159 HD
HETATM   13  C17 UNL     1      32.091   3.865  46.082  1.00  0.00     0.068 C 
HETATM   14  C18 UNL     1      33.241   4.360  45.228  1.00  0.00     0.055 C 
BRANCH  11  15
HETATM   15  C9  UNL     1      30.695   4.959  47.704  1.00  0.00     0.026 C 
BRANCH  15  16
HETATM   16  C10 UNL     1      29.594   5.780  48.154  1.00  0.00     0.026 C 
HETATM   17  C11 UNL     1      28.391   6.294  48.087  1.00  0.00     0.135 C 
BRANCH  17  18
HETATM   18  O1  UNL     1      27.762   7.118  48.856  1.00  0.00    -0.358 OA
BRANCH  18  19
HETATM   19  C12 UNL     1      27.485   8.381  49.217  1.00  0.00     0.220 C 
BRANCH  19  20
HETATM   20  C13 UNL     1      28.625   9.336  49.122  1.00  0.00     0.006 A 
HETATM   21  C14 UNL     1      30.002   9.149  49.364  1.00  0.00     0.017 A 
HETATM   22  C15 UNL     1      30.746  10.288  49.188  1.00  0.00     0.008 A 
HETATM   23  C16 UNL     1      30.261  11.508  48.818  1.00  0.00     0.050 A 
HETATM   24  S1  UNL     1      28.400  11.049  48.661  1.00  0.00    -0.104 SA
ENDBRANCH  19  20
ENDBRANCH  18  19
ENDBRANCH  17  18
ENDBRANCH  15  16
ENDBRANCH  11  15
BRANCH  14  25
HETATM   25  C19 UNL     1      34.455   4.113  46.138  1.00  0.00     0.400 C 
HETATM   26  O2  UNL     1      35.210   3.181  45.809  1.00  0.00    -0.429 OA
ENDBRANCH  14  25
ENDBRANCH   3   4
TORSDOF 7
ENDMDL
MODEL 6
REMARK VINA RESULT:      -6.0      6.323      8.789
REMARK  7 active torsions:
REMARK  status: ('A' for Active; 'I' for Inactive)
REMARK    1  A    between atoms: C2_3  and  C3_4 
REMARK    2  A    between atoms: C8_11  and  C9_12 
REMARK    3  A    between atoms: C9_12  and  C10_13 
REMARK    4  A    between atoms: C11_14  and  O1_15 
REMARK    5  A    between atoms: O1_15  and  C12_16 
REMARK    6  A    between atoms: C12_16  and  C13_17 
REMARK    7  A    between atoms: C18_23  and  C19_24 
ROOT
HETATM    1  N1  UNL     1      26.389   8.223  46.892  1.00  0.00    -0.197 NA
HETATM    2  C1  UNL     1      26.154   7.359  47.657  1.00  0.00     0.063 C 
HETATM    3  C2  UNL     1      25.885   6.307  48.585  1.00  0.00     0.158 C 
ENDROOT
BRANCH   3   4
HETATM    4  C3  UNL     1      24.462   6.283  49.130  1.00  0.00    -0.059 C 
HETATM    5  C4  UNL     1      23.928   5.676  48.159  1.00  0.00     0.017 C 
HETATM    6  C5  UNL     1      22.611   5.136  47.703  1.00  0.00     0.206 C 
HETATM    7  N2  UNL     1      21.409   4.967  48.330  1.00  0.00    -0.315 NA
HETATM    8  C6  UNL     1      21.546   5.393  49.646  1.00  0.00     0.102 C 
HETATM    9  C7  UNL     1      20.997   4.977  50.927  1.00  0.00     0.133 C 
HETATM   10  N3  UNL     1      21.872   5.816  51.841  1.00  0.00    -0.392 N 
HETATM   11  C8  UNL     1      23.335   5.552  51.933  1.00  0.00     0.005 C 
HETATM   12  H9  UNL     1      21.985   6.560  52.514  1.00  0.00     0.159 HD
HETATM   13  C17 UNL     1      24.499   6.419  51.638  1.00  0.00     0.068 C 
HETATM   14  C18 UNL     1      24.532   7.124  50.297  1.00  0.00     0.055 C 
BRANCH  11  15
HETATM   15  C9  UNL     1      23.548   4.326  52.342  1.00  0.00     0.026 C 
BRANCH  15  16
HETATM   16  C10 UNL     1      23.761   2.899  52.396  1.00  0.00     0.026 C 
HETATM   17  C11 UNL     1      23.404   1.641  52.319  1.00  0.00     0.135 C 
BRANCH  17  18
HETATM   18  O1  UNL     1      24.067   0.545  52.479  1.00  0.00    -0.358 OA
BRANCH  18  19
HETATM   19  C12 UNL     1      24.682  -0.326  53.295  1.00  0.00     0.220 C 
BRANCH  19  20
HETATM   20  C13 UNL     1      26.168  -0.224  53.333  1.00  0.00     0.006 A 
HETATM   21  C14 UNL     1      27.162  -1.183  53.050  1.00  0.00     0.017 A 
HETATM   22  C15 UNL     1      28.439  -0.712  53.221  1.00  0.00     0.008 A 
HETATM   23  C16 UNL     1      28.778   0.547  53.622  1.00  0.00     0.050 A 
HETATM   24  S1  UNL     1      27.009   1.279  53.815  1.00  0.00    -0.104 SA
ENDBRANCH  19  20
ENDBRANCH  18  19
ENDBRANCH  17  18
ENDBRANCH  15  16
ENDBRANCH  11  15
BRANCH  14  25
HETATM   25  C19 UNL     1      23.241   7.957  50.333  1.00  0.00     0.400 C 
HETATM   26  O2  UNL     1      23.095   8.787  49.419  1.00  0.00    -0.429 OA
ENDBRANCH  14  25
ENDBRANCH   3   4
TORSDOF 7
ENDMDL
MODEL 7
REMARK VINA RESULT:      -5.9      3.319      5.698
REMARK  7 active torsions:
REMARK  status: ('A' for Active; 'I' for Inactive)
REMARK    1  A    between atoms: C2_3  and  C3_4 
REMARK    2  A    between atoms: C8_11  and  C9_12 
REMARK    3  A    between atoms: C9_12  and  C10_13 
REMARK    4  A    between atoms: C11_14  and  O1_15 
REMARK    5  A    between atoms: O1_15  and  C12_16 
REMARK    6  A    between atoms: C12_16  and  C13_17 
REMARK    7  A    between atoms: C18_23  and  C19_24 
ROOT
HETATM    1  N1  UNL     1      25.913  10.877  48.810  1.00  0.00    -0.197 NA
HETATM    2  C1  UNL     1      26.745  10.855  47.976  1.00  0.00     0.063 C 
HETATM    3  C2  UNL     1      27.745  10.841  46.957  1.00  0.00     0.158 C 
ENDROOT
BRANCH   3   4
HETATM    4  C3  UNL     1      28.952   9.961  47.258  1.00  0.00    -0.059 C 
HETATM    5  C4  UNL     1      29.305  10.532  48.329  1.00  0.00     0.017 C 
HETATM    6  C5  UNL     1      30.326  10.445  49.416  1.00  0.00     0.206 C 
HETATM    7  N2  UNL     1      31.264   9.505  49.736  1.00  0.00    -0.315 NA
HETATM    8  C6  UNL     1      31.154   8.459  48.828  1.00  0.00     0.102 C 
HETATM    9  C7  UNL     1      31.319   7.015  48.891  1.00  0.00     0.133 C 
HETATM   10  N3  UNL     1      30.762   6.655  47.525  1.00  0.00    -0.392 N 
HETATM   11  C8  UNL     1      29.321   6.875  47.219  1.00  0.00     0.005 C 
HETATM   12  H9  UNL     1      30.883   6.288  46.593  1.00  0.00     0.159 HD
HETATM   13  C17 UNL     1      28.664   7.708  46.185  1.00  0.00     0.068 C 
HETATM   14  C18 UNL     1      29.091   9.157  46.071  1.00  0.00     0.055 C 
BRANCH  11  15
HETATM   15  C9  UNL     1      28.573   6.191  48.047  1.00  0.00     0.026 C 
BRANCH  15  16
HETATM   16  C10 UNL     1      27.948   5.126  48.797  1.00  0.00     0.026 C 
HETATM   17  C11 UNL     1      27.071   4.175  49.002  1.00  0.00     0.135 C 
BRANCH  17  18
HETATM   18  O1  UNL     1      26.888   3.371  49.996  1.00  0.00    -0.358 OA
BRANCH  18  19
HETATM   19  C12 UNL     1      26.246   3.070  51.137  1.00  0.00     0.220 C 
BRANCH  19  20
HETATM   20  C13 UNL     1      26.768   1.880  51.867  1.00  0.00     0.006 A 
HETATM   21  C14 UNL     1      26.467   0.510  51.726  1.00  0.00     0.017 A 
HETATM   22  C15 UNL     1      27.146  -0.292  52.607  1.00  0.00     0.008 A 
HETATM   23  C16 UNL     1      28.036   0.134  53.549  1.00  0.00     0.050 A 
HETATM   24  S1  UNL     1      27.965   2.022  53.189  1.00  0.00    -0.104 SA
ENDBRANCH  19  20
ENDBRANCH  18  19
ENDBRANCH  17  18
ENDBRANCH  15  16
ENDBRANCH  11  15
BRANCH  14  25
HETATM   25  C19 UNL     1      30.596   9.034  45.782  1.00  0.00     0.400 C 
HETATM   26  O2  UNL     1      30.911   8.376  44.774  1.00  0.00    -0.429 OA
ENDBRANCH  14  25
ENDBRANCH   3   4
TORSDOF 7
ENDMDL
MODEL 8
REMARK VINA RESULT:      -5.9      2.313      3.325
REMARK  7 active torsions:
REMARK  status: ('A' for Active; 'I' for Inactive)
REMARK    1  A    between atoms: C2_3  and  C3_4 
REMARK    2  A    between atoms: C8_11  and  C9_12 
REMARK    3  A    between atoms: C9_12  and  C10_13 
REMARK    4  A    between atoms: C11_14  and  O1_15 
REMARK    5  A    between atoms: O1_15  and  C12_16 
REMARK    6  A    between atoms: C12_16  and  C13_17 
REMARK    7  A    between atoms: C18_23  and  C19_24 
ROOT
HETATM    1  N1  UNL     1      34.402   7.736  43.381  1.00  0.00    -0.197 NA
HETATM    2  C1  UNL     1      33.459   7.276  43.916  1.00  0.00     0.063 C 
HETATM    3  C2  UNL     1      32.315   6.704  44.554  1.00  0.00     0.158 C 
ENDROOT
BRANCH   3   4
HETATM    4  C3  UNL     1      31.856   7.431  45.812  1.00  0.00    -0.059 C 
HETATM    5  C4  UNL     1      31.217   8.359  45.238  1.00  0.00     0.017 C 
HETATM    6  C5  UNL     1      30.384   9.561  45.541  1.00  0.00     0.206 C 
HETATM    7  N2  UNL     1      29.837  10.046  46.695  1.00  0.00    -0.315 NA
HETATM    8  C6  UNL     1      30.162   9.172  47.726  1.00  0.00     0.102 C 
HETATM    9  C7  UNL     1      29.498   8.709  48.934  1.00  0.00     0.133 C 
HETATM   10  N3  UNL     1      30.456   7.595  49.318  1.00  0.00    -0.392 N 
HETATM   11  C8  UNL     1      30.592   6.390  48.454  1.00  0.00     0.005 C 
HETATM   12  H9  UNL     1      31.138   7.197  49.946  1.00  0.00     0.159 HD
HETATM   13  C17 UNL     1      31.766   5.830  47.746  1.00  0.00     0.068 C 
HETATM   14  C18 UNL     1      32.573   6.766  46.869  1.00  0.00     0.055 C 
BRANCH  11  15
HETATM   15  C9  UNL     1      29.439   5.780  48.344  1.00  0.00     0.026 C 
BRANCH  15  16
HETATM   16  C10 UNL     1      28.080   5.332  48.546  1.00  0.00     0.026 C 
HETATM   17  C11 UNL     1      26.804   5.488  48.796  1.00  0.00     0.135 C 
BRANCH  17  18
HETATM   18  O1  UNL     1      25.834   4.641  48.889  1.00  0.00    -0.358 OA
BRANCH  18  19
HETATM   19  C12 UNL     1      24.863   4.069  49.620  1.00  0.00     0.220 C 
BRANCH  19  20
HETATM   20  C13 UNL     1      25.332   3.126  50.675  1.00  0.00     0.006 A 
HETATM   21  C14 UNL     1      26.559   2.449  50.822  1.00  0.00     0.017 A 
HETATM   22  C15 UNL     1      26.606   1.639  51.928  1.00  0.00     0.008 A 
HETATM   23  C16 UNL     1      25.599   1.464  52.832  1.00  0.00     0.050 A 
HETATM   24  S1  UNL     1      24.294   2.638  52.047  1.00  0.00    -0.104 SA
ENDBRANCH  19  20
ENDBRANCH  18  19
ENDBRANCH  17  18
ENDBRANCH  15  16
ENDBRANCH  11  15
BRANCH  14  25
HETATM   25  C19 UNL     1      33.017   7.848  47.866  1.00  0.00     0.400 C 
HETATM   26  O2  UNL     1      33.917   8.616  47.482  1.00  0.00    -0.429 OA
ENDBRANCH  14  25
ENDBRANCH   3   4
TORSDOF 7
ENDMDL
MODEL 9
REMARK VINA RESULT:      -5.8      4.349      5.901
REMARK  7 active torsions:
REMARK  status: ('A' for Active; 'I' for Inactive)
REMARK    1  A    between atoms: C2_3  and  C3_4 
REMARK    2  A    between atoms: C8_11  and  C9_12 
REMARK    3  A    between atoms: C9_12  and  C10_13 
REMARK    4  A    between atoms: C11_14  and  O1_15 
REMARK    5  A    between atoms: O1_15  and  C12_16 
REMARK    6  A    between atoms: C12_16  and  C13_17 
REMARK    7  A    between atoms: C18_23  and  C19_24 
ROOT
HETATM    1  N1  UNL     1      25.229   8.243  43.557  1.00  0.00    -0.197 NA
HETATM    2  C1  UNL     1      26.318   8.450  43.953  1.00  0.00     0.063 C 
HETATM    3  C2  UNL     1      27.646   8.701  44.418  1.00  0.00     0.158 C 
ENDROOT
BRANCH   3   4
HETATM    4  C3  UNL     1      27.751   9.031  45.902  1.00  0.00    -0.059 C 
HETATM    5  C4  UNL     1      26.812   9.875  45.947  1.00  0.00     0.017 C 
HETATM    6  C5  UNL     1      26.083  10.759  46.906  1.00  0.00     0.206 C 
HETATM    7  N2  UNL     1      26.093  10.859  48.268  1.00  0.00    -0.315 NA
HETATM    8  C6  UNL     1      26.968   9.900  48.764  1.00  0.00     0.102 C 
HETATM    9  C7  UNL     1      27.014   9.060  49.951  1.00  0.00     0.133 C 
HETATM   10  N3  UNL     1      28.165   8.153  49.553  1.00  0.00    -0.392 N 
HETATM   11  C8  UNL     1      28.020   7.212  48.408  1.00  0.00     0.005 C 
HETATM   12  H9  UNL     1      29.104   7.811  49.689  1.00  0.00     0.159 HD
HETATM   13  C17 UNL     1      28.778   7.101  47.140  1.00  0.00     0.068 C 
HETATM   14  C18 UNL     1      28.957   8.358  46.313  1.00  0.00     0.055 C 
BRANCH  11  15
HETATM   15  C9  UNL     1      27.034   6.380  48.628  1.00  0.00     0.026 C 
BRANCH  15  16
HETATM   16  C10 UNL     1      26.220   5.288  49.112  1.00  0.00     0.026 C 
HETATM   17  C11 UNL     1      25.756   4.464  50.019  1.00  0.00     0.135 C 
BRANCH  17  18
HETATM   18  O1  UNL     1      24.902   3.499  49.949  1.00  0.00    -0.358 OA
BRANCH  18  19
HETATM   19  C12 UNL     1      24.208   2.522  50.557  1.00  0.00     0.220 C 
BRANCH  19  20
HETATM   20  C13 UNL     1      24.971   1.730  51.562  1.00  0.00     0.006 A 
HETATM   21  C14 UNL     1      26.313   1.295  51.564  1.00  0.00     0.017 A 
HETATM   22  C15 UNL     1      26.646   0.558  52.672  1.00  0.00     0.008 A 
HETATM   23  C16 UNL     1      25.809   0.243  53.702  1.00  0.00     0.050 A 
HETATM   24  S1  UNL     1      24.220   1.122  53.068  1.00  0.00    -0.104 SA
ENDBRANCH  19  20
ENDBRANCH  18  19
ENDBRANCH  17  18
ENDBRANCH  15  16
ENDBRANCH  11  15
BRANCH  14  25
HETATM   25  C19 UNL     1      29.685   9.293  47.292  1.00  0.00     0.400 C 
HETATM   26  O2  UNL     1      30.779   8.891  47.727  1.00  0.00    -0.429 OA
ENDBRANCH  14  25
ENDBRANCH   3   4
TORSDOF 7
ENDMDL
