MODEL 1
REMARK VINA RESULT:      -7.6      0.000      0.000
REMARK  8 active torsions:
REMARK  status: ('A' for Active; 'I' for Inactive)
REMARK    1  A    between atoms: C2_2  and  N1_3 
REMARK    2  A    between atoms: N2_5  and  C4_6 
REMARK    3  A    between atoms: C8_11  and  N4_12 
REMARK    4  A    between atoms: C13_17  and  N5_18 
REMARK       I    between atoms: N5_18  and  C14_19 
REMARK    5  A    between atoms: C14_19  and  C15_21 
REMARK    6  A    between atoms: C15_21  and  C16_22 
REMARK    7  A    between atoms: N6_23  and  C17_24 
REMARK    8  A    between atoms: C17_24  and  C18_25 
ROOT
HETATM    1  N1  UNL     1      23.495   0.134  53.110  1.00  0.00    -0.281 N 
HETATM    2  C3  UNL     1      23.819   1.060  52.336  1.00  0.00     0.130 A 
HETATM    3  N2  UNL     1      24.761   1.040  53.333  1.00  0.00    -0.140 NA
HETATM    4  C9  UNL     1      23.385   1.693  51.115  1.00  0.00     0.008 A 
HETATM    5  C10 UNL     1      22.251   1.208  50.505  1.00  0.00     0.015 A 
HETATM    6  C11 UNL     1      21.945   1.857  49.334  1.00  0.00     0.003 A 
HETATM    7  C12 UNL     1      22.629   2.893  48.743  1.00  0.00     0.029 A 
HETATM    8  C13 UNL     1      23.741   3.310  49.419  1.00  0.00     0.035 A 
HETATM    9  C19 UNL     1      24.139   2.725  50.607  1.00  0.00     0.044 A 
ENDROOT
BRANCH   1  10
HETATM   10  C2  UNL     1      22.511  -0.828  53.249  1.00  0.00     0.129 C 
HETATM   11  C1  UNL     1      21.930   0.119  54.009  1.00  0.00     0.031 C 
ENDBRANCH   1  10
BRANCH   3  12
HETATM   12  C4  UNL     1      25.996   0.921  53.420  1.00  0.00     0.070 A 
HETATM   13  C5  UNL     1      26.624   2.153  52.910  1.00  0.00     0.140 A 
HETATM   14  N3  UNL     1      27.950   2.246  52.904  1.00  0.00    -0.272 NA
HETATM   15  C6  UNL     1      28.661   1.092  53.413  1.00  0.00     0.114 A 
HETATM   16  C7  UNL     1      28.160  -0.017  53.873  1.00  0.00     0.033 A 
HETATM   17  C8  UNL     1      26.673  -0.277  53.946  1.00  0.00     0.289 A 
BRANCH  17  18
HETATM   18  N4  UNL     1      26.379  -0.442  55.358  1.00  0.00     0.091 N 
HETATM   19  H8  UNL     1      25.517   0.047  55.673  1.00  0.00     0.314 HD
HETATM   20  H9  UNL     1      26.297  -1.476  55.616  1.00  0.00     0.314 HD
ENDBRANCH  17  18
ENDBRANCH   3  12
BRANCH   8  21
HETATM   21  N5  UNL     1      24.616   4.333  48.971  1.00  0.00    -0.327 N 
HETATM   22  C14 UNL     1      24.467   5.719  49.040  1.00  0.00     0.227 C 
HETATM   23  O1  UNL     1      23.410   6.215  49.563  1.00  0.00    -0.273 OA
HETATM   24  H13 UNL     1      25.530   4.150  48.501  1.00  0.00     0.169 HD
BRANCH  22  25
HETATM   25  C15 UNL     1      25.435   6.770  48.552  1.00  0.00     0.150 C 
BRANCH  25  26
HETATM   26  C16 UNL     1      26.792   6.192  48.500  1.00  0.00     0.098 C 
HETATM   27  N6  UNL     1      27.575   5.175  48.542  1.00  0.00    -0.275 NA
BRANCH  27  28
HETATM   28  C17 UNL     1      28.988   5.386  48.401  1.00  0.00     0.145 C 
BRANCH  28  29
HETATM   29  C18 UNL     1      30.190   5.510  47.825  1.00  0.00     0.207 C 
HETATM   30  F1  UNL     1      30.959   4.465  47.404  1.00  0.00    -0.218 F 
ENDBRANCH  28  29
ENDBRANCH  27  28
ENDBRANCH  25  26
ENDBRANCH  22  25
ENDBRANCH   8  21
TORSDOF 8
ENDMDL
MODEL 2
REMARK VINA RESULT:      -7.5      2.135      2.674
REMARK  8 active torsions:
REMARK  status: ('A' for Active; 'I' for Inactive)
REMARK    1  A    between atoms: C2_2  and  N1_3 
REMARK    2  A    between atoms: N2_5  and  C4_6 
REMARK    3  A    between atoms: C8_11  and  N4_12 
REMARK    4  A    between atoms: C13_17  and  N5_18 
REMARK       I    between atoms: N5_18  and  C14_19 
REMARK    5  A    between atoms: C14_19  and  C15_21 
REMARK    6  A    between atoms: C15_21  and  C16_22 
REMARK    7  A    between atoms: N6_23  and  C17_24 
REMARK    8  A    between atoms: C17_24  and  C18_25 
ROOT
HETATM    1  N1  UNL     1      23.372  -0.316  53.469  1.00  0.00    -0.281 N 
HETATM    2  C3  UNL     1      23.796   0.605  52.738  1.00  0.00     0.130 A 
HETATM    3  N2  UNL     1      24.725   0.443  53.734  1.00  0.00    -0.140 NA
HETATM    4  C9  UNL     1      23.437   1.334  51.546  1.00  0.00     0.008 A 
HETATM    5  C10 UNL     1      22.263   0.998  50.913  1.00  0.00     0.015 A 
HETATM    6  C11 UNL     1      22.033   1.728  49.772  1.00  0.00     0.003 A 
HETATM    7  C12 UNL     1      22.825   2.712  49.230  1.00  0.00     0.029 A 
HETATM    8  C13 UNL     1      23.970   2.980  49.926  1.00  0.00     0.035 A 
HETATM    9  C19 UNL     1      24.298   2.304  51.086  1.00  0.00     0.044 A 
ENDROOT
BRANCH   1  10
HETATM   10  C2  UNL     1      22.293  -1.176  53.562  1.00  0.00     0.129 C 
HETATM   11  C1  UNL     1      21.850  -0.252  54.436  1.00  0.00     0.031 C 
ENDBRANCH   1  10
BRANCH   3  12
HETATM   12  C4  UNL     1      25.940   0.191  53.817  1.00  0.00     0.070 A 
HETATM   13  C5  UNL     1      26.220  -1.034  53.047  1.00  0.00     0.140 A 
HETATM   14  N3  UNL     1      27.465  -1.495  52.999  1.00  0.00    -0.272 NA
HETATM   15  C6  UNL     1      28.447  -0.723  53.731  1.00  0.00     0.114 A 
HETATM   16  C7  UNL     1      28.257   0.361  54.424  1.00  0.00     0.033 A 
HETATM   17  C8  UNL     1      26.901   1.010  54.576  1.00  0.00     0.289 A 
BRANCH  17  18
HETATM   18  N4  UNL     1      27.032   2.323  53.972  1.00  0.00     0.091 N 
HETATM   19  H8  UNL     1      27.287   2.305  52.964  1.00  0.00     0.314 HD
HETATM   20  H9  UNL     1      26.133   2.890  54.084  1.00  0.00     0.314 HD
ENDBRANCH  17  18
ENDBRANCH   3  12
BRANCH   8  21
HETATM   21  N5  UNL     1      24.949   3.925  49.526  1.00  0.00    -0.327 N 
HETATM   22  C14 UNL     1      26.317   3.746  49.307  1.00  0.00     0.227 C 
HETATM   23  O1  UNL     1      26.837   2.590  49.481  1.00  0.00    -0.273 OA
HETATM   24  H13 UNL     1      24.744   4.932  49.343  1.00  0.00     0.169 HD
BRANCH  22  25
HETATM   25  C15 UNL     1      27.320   4.787  48.874  1.00  0.00     0.150 C 
BRANCH  25  26
HETATM   26  C16 UNL     1      26.745   6.130  49.083  1.00  0.00     0.098 C 
HETATM   27  N6  UNL     1      25.762   6.951  48.991  1.00  0.00    -0.275 NA
BRANCH  27  28
HETATM   28  C17 UNL     1      25.937   8.294  49.465  1.00  0.00     0.145 C 
BRANCH  28  29
HETATM   29  C18 UNL     1      26.547   9.414  49.875  1.00  0.00     0.207 C 
HETATM   30  F1  UNL     1      27.494   9.467  50.856  1.00  0.00    -0.218 F 
ENDBRANCH  28  29
ENDBRANCH  27  28
ENDBRANCH  25  26
ENDBRANCH  22  25
ENDBRANCH   8  21
TORSDOF 8
ENDMDL
MODEL 3
REMARK VINA RESULT:      -7.3      5.130      7.701
REMARK  8 active torsions:
REMARK  status: ('A' for Active; 'I' for Inactive)
REMARK    1  A    between atoms: C2_2  and  N1_3 
REMARK    2  A    between atoms: N2_5  and  C4_6 
REMARK    3  A    between atoms: C8_11  and  N4_12 
REMARK    4  A    between atoms: C13_17  and  N5_18 
REMARK       I    between atoms: N5_18  and  C14_19 
REMARK    5  A    between atoms: C14_19  and  C15_21 
REMARK    6  A    between atoms: C15_21  and  C16_22 
REMARK    7  A    between atoms: N6_23  and  C17_24 
REMARK    8  A    between atoms: C17_24  and  C18_25 
ROOT
HETATM    1  N1  UNL     1      25.060   0.603  53.643  1.00  0.00    -0.281 N 
HETATM    2  C3  UNL     1      23.923   0.983  53.290  1.00  0.00     0.130 A 
HETATM    3  N2  UNL     1      24.799   1.964  52.899  1.00  0.00    -0.140 NA
HETATM    4  C9  UNL     1      22.547   0.552  53.317  1.00  0.00     0.008 A 
HETATM    5  C10 UNL     1      22.262  -0.661  53.898  1.00  0.00     0.015 A 
HETATM    6  C11 UNL     1      20.931  -0.991  53.841  1.00  0.00     0.003 A 
HETATM    7  C12 UNL     1      19.906  -0.261  53.287  1.00  0.00     0.029 A 
HETATM    8  C13 UNL     1      20.281   0.931  52.735  1.00  0.00     0.035 A 
HETATM    9  C19 UNL     1      21.596   1.359  52.737  1.00  0.00     0.044 A 
ENDROOT
BRANCH   1  10
HETATM   10  C2  UNL     1      25.662  -0.466  54.282  1.00  0.00     0.129 C 
HETATM   11  C1  UNL     1      25.948  -0.840  53.020  1.00  0.00     0.031 C 
ENDBRANCH   1  10
BRANCH   3  12
HETATM   12  C4  UNL     1      25.122   2.531  51.840  1.00  0.00     0.070 A 
HETATM   13  C5  UNL     1      24.024   3.425  51.432  1.00  0.00     0.140 A 
HETATM   14  N3  UNL     1      24.152   4.135  50.316  1.00  0.00    -0.272 NA
HETATM   15  C6  UNL     1      25.393   3.949  49.594  1.00  0.00     0.114 A 
HETATM   16  C7  UNL     1      26.392   3.177  49.907  1.00  0.00     0.033 A 
HETATM   17  C8  UNL     1      26.401   2.307  51.143  1.00  0.00     0.289 A 
BRANCH  17  18
HETATM   18  N4  UNL     1      27.506   2.793  51.948  1.00  0.00     0.091 N 
HETATM   19  H8  UNL     1      27.548   2.384  52.904  1.00  0.00     0.314 HD
HETATM   20  H9  UNL     1      28.442   2.619  51.463  1.00  0.00     0.314 HD
ENDBRANCH  17  18
ENDBRANCH   3  12
BRANCH   8  21
HETATM   21  N5  UNL     1      19.397   1.822  52.073  1.00  0.00    -0.327 N 
HETATM   22  C14 UNL     1      18.786   1.699  50.824  1.00  0.00     0.227 C 
HETATM   23  O1  UNL     1      19.015   0.663  50.108  1.00  0.00    -0.273 OA
HETATM   24  H13 UNL     1      19.087   2.735  52.472  1.00  0.00     0.169 HD
BRANCH  22  25
HETATM   25  C15 UNL     1      17.844   2.678  50.165  1.00  0.00     0.150 C 
BRANCH  25  26
HETATM   26  C16 UNL     1      16.989   3.296  51.196  1.00  0.00     0.098 C 
HETATM   27  N6  UNL     1      16.856   3.991  52.267  1.00  0.00    -0.275 NA
BRANCH  27  28
HETATM   28  C17 UNL     1      15.535   4.234  52.774  1.00  0.00     0.145 C 
BRANCH  28  29
HETATM   29  C18 UNL     1      14.293   3.996  53.214  1.00  0.00     0.207 C 
HETATM   30  F1  UNL     1      13.659   4.725  54.176  1.00  0.00    -0.218 F 
ENDBRANCH  28  29
ENDBRANCH  27  28
ENDBRANCH  25  26
ENDBRANCH  22  25
ENDBRANCH   8  21
TORSDOF 8
ENDMDL
MODEL 4
REMARK VINA RESULT:      -6.8      1.518      2.124
REMARK  8 active torsions:
REMARK  status: ('A' for Active; 'I' for Inactive)
REMARK    1  A    between atoms: C2_2  and  N1_3 
REMARK    2  A    between atoms: N2_5  and  C4_6 
REMARK    3  A    between atoms: C8_11  and  N4_12 
REMARK    4  A    between atoms: C13_17  and  N5_18 
REMARK       I    between atoms: N5_18  and  C14_19 
REMARK    5  A    between atoms: C14_19  and  C15_21 
REMARK    6  A    between atoms: C15_21  and  C16_22 
REMARK    7  A    between atoms: N6_23  and  C17_24 
REMARK    8  A    between atoms: C17_24  and  C18_25 
ROOT
HETATM    1  N1  UNL     1      22.823  -0.292  53.510  1.00  0.00    -0.281 N 
HETATM    2  C3  UNL     1      22.880   0.572  52.609  1.00  0.00     0.130 A 
HETATM    3  N2  UNL     1      23.940   0.814  53.446  1.00  0.00    -0.140 NA
HETATM    4  C9  UNL     1      22.184   0.982  51.414  1.00  0.00     0.008 A 
HETATM    5  C10 UNL     1      21.075   0.263  51.035  1.00  0.00     0.015 A 
HETATM    6  C11 UNL     1      20.508   0.714  49.868  1.00  0.00     0.003 A 
HETATM    7  C12 UNL     1      20.924   1.762  49.082  1.00  0.00     0.029 A 
HETATM    8  C13 UNL     1      22.032   2.419  49.535  1.00  0.00     0.035 A 
HETATM    9  C19 UNL     1      22.681   2.047  50.699  1.00  0.00     0.044 A 
ENDROOT
BRANCH   1  10
HETATM   10  C2  UNL     1      22.041  -1.368  53.890  1.00  0.00     0.129 C 
HETATM   11  C1  UNL     1      21.487  -0.456  54.712  1.00  0.00     0.031 C 
ENDBRANCH   1  10
BRANCH   3  12
HETATM   12  C4  UNL     1      25.178   0.892  53.353  1.00  0.00     0.070 A 
HETATM   13  C5  UNL     1      25.713  -0.450  53.062  1.00  0.00     0.140 A 
HETATM   14  N3  UNL     1      27.025  -0.605  52.924  1.00  0.00    -0.272 NA
HETATM   15  C6  UNL     1      27.817   0.597  53.079  1.00  0.00     0.114 A 
HETATM   16  C7  UNL     1      27.400   1.802  53.335  1.00  0.00     0.033 A 
HETATM   17  C8  UNL     1      25.939   2.143  53.520  1.00  0.00     0.289 A 
BRANCH  17  18
HETATM   18  N4  UNL     1      25.621   3.072  52.452  1.00  0.00     0.091 N 
HETATM   19  H8  UNL     1      25.690   2.664  51.497  1.00  0.00     0.314 HD
HETATM   20  H9  UNL     1      24.642   3.482  52.576  1.00  0.00     0.314 HD
ENDBRANCH  17  18
ENDBRANCH   3  12
BRANCH   8  21
HETATM   21  N5  UNL     1      22.656   3.500  48.861  1.00  0.00    -0.327 N 
HETATM   22  C14 UNL     1      22.368   4.865  48.919  1.00  0.00     0.227 C 
HETATM   23  O1  UNL     1      21.409   5.277  49.659  1.00  0.00    -0.273 OA
HETATM   24  H13 UNL     1      23.453   3.388  48.195  1.00  0.00     0.169 HD
BRANCH  22  25
HETATM   25  C15 UNL     1      23.069   5.982  48.183  1.00  0.00     0.150 C 
BRANCH  25  26
HETATM   26  C16 UNL     1      24.518   5.899  48.445  1.00  0.00     0.098 C 
HETATM   27  N6  UNL     1      25.646   6.468  48.676  1.00  0.00    -0.275 NA
BRANCH  27  28
HETATM   28  C17 UNL     1      26.810   5.647  48.856  1.00  0.00     0.145 C 
BRANCH  28  29
HETATM   29  C18 UNL     1      27.896   4.923  48.560  1.00  0.00     0.207 C 
HETATM   30  F1  UNL     1      28.980   5.395  47.877  1.00  0.00    -0.218 F 
ENDBRANCH  28  29
ENDBRANCH  27  28
ENDBRANCH  25  26
ENDBRANCH  22  25
ENDBRANCH   8  21
TORSDOF 8
ENDMDL
MODEL 5
REMARK VINA RESULT:      -6.7      3.426      5.930
REMARK  8 active torsions:
REMARK  status: ('A' for Active; 'I' for Inactive)
REMARK    1  A    between atoms: C2_2  and  N1_3 
REMARK    2  A    between atoms: N2_5  and  C4_6 
REMARK    3  A    between atoms: C8_11  and  N4_12 
REMARK    4  A    between atoms: C13_17  and  N5_18 
REMARK       I    between atoms: N5_18  and  C14_19 
REMARK    5  A    between atoms: C14_19  and  C15_21 
REMARK    6  A    between atoms: C15_21  and  C16_22 
REMARK    7  A    between atoms: N6_23  and  C17_24 
REMARK    8  A    between atoms: C17_24  and  C18_25 
ROOT
HETATM    1  N1  UNL     1      25.204   0.536  53.684  1.00  0.00    -0.281 N 
HETATM    2  C3  UNL     1      24.051   0.893  53.360  1.00  0.00     0.130 A 
HETATM    3  N2  UNL     1      24.891   1.911  52.986  1.00  0.00    -0.140 NA
HETATM    4  C9  UNL     1      22.689   0.419  53.397  1.00  0.00     0.008 A 
HETATM    5  C10 UNL     1      22.451  -0.819  53.945  1.00  0.00     0.015 A 
HETATM    6  C11 UNL     1      21.128  -1.188  53.900  1.00  0.00     0.003 A 
HETATM    7  C12 UNL     1      20.073  -0.472  53.385  1.00  0.00     0.029 A 
HETATM    8  C13 UNL     1      20.403   0.746  52.863  1.00  0.00     0.035 A 
HETATM    9  C19 UNL     1      21.704   1.214  52.858  1.00  0.00     0.044 A 
ENDROOT
BRANCH   1  10
HETATM   10  C2  UNL     1      25.849  -0.532  54.280  1.00  0.00     0.129 C 
HETATM   11  C1  UNL     1      26.064  -0.896  53.001  1.00  0.00     0.031 C 
ENDBRANCH   1  10
BRANCH   3  12
HETATM   12  C4  UNL     1      25.178   2.518  51.940  1.00  0.00     0.070 A 
HETATM   13  C5  UNL     1      24.070   3.431  51.606  1.00  0.00     0.140 A 
HETATM   14  N3  UNL     1      24.160   4.184  50.515  1.00  0.00    -0.272 NA
HETATM   15  C6  UNL     1      25.375   4.025  49.744  1.00  0.00     0.114 A 
HETATM   16  C7  UNL     1      26.381   3.239  49.990  1.00  0.00     0.033 A 
HETATM   17  C8  UNL     1      26.431   2.320  51.190  1.00  0.00     0.289 A 
BRANCH  17  18
HETATM   18  N4  UNL     1      27.565   2.772  51.975  1.00  0.00     0.091 N 
HETATM   19  H8  UNL     1      27.532   3.780  52.229  1.00  0.00     0.314 HD
HETATM   20  H9  UNL     1      27.666   2.198  52.871  1.00  0.00     0.314 HD
ENDBRANCH  17  18
ENDBRANCH   3  12
BRANCH   8  21
HETATM   21  N5  UNL     1      19.481   1.630  52.244  1.00  0.00    -0.327 N 
HETATM   22  C14 UNL     1      19.128   1.740  50.897  1.00  0.00     0.227 C 
HETATM   23  O1  UNL     1      19.679   0.972  50.035  1.00  0.00    -0.273 OA
HETATM   24  H13 UNL     1      18.930   2.350  52.760  1.00  0.00     0.169 HD
BRANCH  22  25
HETATM   25  C15 UNL     1      18.132   2.697  50.287  1.00  0.00     0.150 C 
BRANCH  25  26
HETATM   26  C16 UNL     1      18.787   4.000  50.064  1.00  0.00     0.098 C 
HETATM   27  N6  UNL     1      18.734   5.227  49.692  1.00  0.00    -0.275 NA
BRANCH  27  28
HETATM   28  C17 UNL     1      19.929   6.019  49.751  1.00  0.00     0.145 C 
BRANCH  28  29
HETATM   29  C18 UNL     1      21.142   6.439  50.131  1.00  0.00     0.207 C 
HETATM   30  F1  UNL     1      21.589   6.453  51.420  1.00  0.00    -0.218 F 
ENDBRANCH  28  29
ENDBRANCH  27  28
ENDBRANCH  25  26
ENDBRANCH  22  25
ENDBRANCH   8  21
TORSDOF 8
ENDMDL
MODEL 6
REMARK VINA RESULT:      -6.7      3.871      7.995
REMARK  8 active torsions:
REMARK  status: ('A' for Active; 'I' for Inactive)
REMARK    1  A    between atoms: C2_2  and  N1_3 
REMARK    2  A    between atoms: N2_5  and  C4_6 
REMARK    3  A    between atoms: C8_11  and  N4_12 
REMARK    4  A    between atoms: C13_17  and  N5_18 
REMARK       I    between atoms: N5_18  and  C14_19 
REMARK    5  A    between atoms: C14_19  and  C15_21 
REMARK    6  A    between atoms: C15_21  and  C16_22 
REMARK    7  A    between atoms: N6_23  and  C17_24 
REMARK    8  A    between atoms: C17_24  and  C18_25 
ROOT
HETATM    1  N1  UNL     1      22.670   5.555  49.697  1.00  0.00    -0.281 N 
HETATM    2  C3  UNL     1      23.175   4.638  50.379  1.00  0.00     0.130 A 
HETATM    3  N2  UNL     1      21.899   4.815  50.852  1.00  0.00    -0.140 NA
HETATM    4  C9  UNL     1      24.403   3.891  50.503  1.00  0.00     0.008 A 
HETATM    5  C10 UNL     1      25.434   4.196  49.646  1.00  0.00     0.015 A 
HETATM    6  C11 UNL     1      26.542   3.405  49.826  1.00  0.00     0.003 A 
HETATM    7  C12 UNL     1      26.710   2.389  50.736  1.00  0.00     0.029 A 
HETATM    8  C13 UNL     1      25.636   2.157  51.547  1.00  0.00     0.035 A 
HETATM    9  C19 UNL     1      24.471   2.895  51.450  1.00  0.00     0.044 A 
ENDROOT
BRANCH   1  10
HETATM   10  C2  UNL     1      23.005   6.402  48.656  1.00  0.00     0.129 C 
HETATM   11  C1  UNL     1      22.459   5.424  47.909  1.00  0.00     0.031 C 
ENDBRANCH   1  10
BRANCH   3  12
HETATM   12  C4  UNL     1      20.878   4.122  51.004  1.00  0.00     0.070 A 
HETATM   13  C5  UNL     1      20.947   3.466  52.322  1.00  0.00     0.140 A 
HETATM   14  N3  UNL     1      19.954   2.667  52.697  1.00  0.00    -0.272 NA
HETATM   15  C6  UNL     1      18.875   2.519  51.743  1.00  0.00     0.114 A 
HETATM   16  C7  UNL     1      18.762   3.071  50.571  1.00  0.00     0.033 A 
HETATM   17  C8  UNL     1      19.806   4.004  50.000  1.00  0.00     0.289 A 
BRANCH  17  18
HETATM   18  N4  UNL     1      19.133   5.278  49.830  1.00  0.00     0.091 N 
HETATM   19  H8  UNL     1      18.741   5.674  50.708  1.00  0.00     0.314 HD
HETATM   20  H9  UNL     1      19.785   6.003  49.392  1.00  0.00     0.314 HD
ENDBRANCH  17  18
ENDBRANCH   3  12
BRANCH   8  21
HETATM   21  N5  UNL     1      25.577   1.132  52.527  1.00  0.00    -0.327 N 
HETATM   22  C14 UNL     1      26.243   1.036  53.750  1.00  0.00     0.227 C 
HETATM   23  O1  UNL     1      27.049   1.965  54.105  1.00  0.00    -0.273 OA
HETATM   24  H13 UNL     1      24.991   0.273  52.434  1.00  0.00     0.169 HD
BRANCH  22  25
HETATM   25  C15 UNL     1      26.140  -0.078  54.764  1.00  0.00     0.150 C 
BRANCH  25  26
HETATM   26  C16 UNL     1      24.743  -0.548  54.826  1.00  0.00     0.098 C 
HETATM   27  N6  UNL     1      23.835  -1.284  55.358  1.00  0.00    -0.275 NA
BRANCH  27  28
HETATM   28  C17 UNL     1      22.500  -1.221  54.833  1.00  0.00     0.145 C 
BRANCH  28  29
HETATM   29  C18 UNL     1      21.258  -0.775  54.605  1.00  0.00     0.207 C 
HETATM   30  F1  UNL     1      20.774   0.425  55.036  1.00  0.00    -0.218 F 
ENDBRANCH  28  29
ENDBRANCH  27  28
ENDBRANCH  25  26
ENDBRANCH  22  25
ENDBRANCH   8  21
TORSDOF 8
ENDMDL
MODEL 7
REMARK VINA RESULT:      -6.7      3.476      8.419
REMARK  8 active torsions:
REMARK  status: ('A' for Active; 'I' for Inactive)
REMARK    1  A    between atoms: C2_2  and  N1_3 
REMARK    2  A    between atoms: N2_5  and  C4_6 
REMARK    3  A    between atoms: C8_11  and  N4_12 
REMARK    4  A    between atoms: C13_17  and  N5_18 
REMARK       I    between atoms: N5_18  and  C14_19 
REMARK    5  A    between atoms: C14_19  and  C15_21 
REMARK    6  A    between atoms: C15_21  and  C16_22 
REMARK    7  A    between atoms: N6_23  and  C17_24 
REMARK    8  A    between atoms: C17_24  and  C18_25 
ROOT
HETATM    1  N1  UNL     1      28.050   7.731  47.322  1.00  0.00    -0.281 N 
HETATM    2  C3  UNL     1      27.857   6.628  47.878  1.00  0.00     0.130 A 
HETATM    3  N2  UNL     1      29.178   6.651  47.509  1.00  0.00    -0.140 NA
HETATM    4  C9  UNL     1      26.808   5.873  48.518  1.00  0.00     0.008 A 
HETATM    5  C10 UNL     1      25.561   6.447  48.606  1.00  0.00     0.015 A 
HETATM    6  C11 UNL     1      24.646   5.661  49.262  1.00  0.00     0.003 A 
HETATM    7  C12 UNL     1      24.848   4.416  49.810  1.00  0.00     0.029 A 
HETATM    8  C13 UNL     1      26.114   3.924  49.675  1.00  0.00     0.035 A 
HETATM    9  C19 UNL     1      27.112   4.634  49.032  1.00  0.00     0.044 A 
ENDROOT
BRANCH   1  10
HETATM   10  C2  UNL     1      27.353   8.878  46.986  1.00  0.00     0.129 C 
HETATM   11  C1  UNL     1      27.779   9.286  48.197  1.00  0.00     0.031 C 
ENDBRANCH   1  10
BRANCH   3  12
HETATM   12  C4  UNL     1      30.284   6.537  48.066  1.00  0.00     0.070 A 
HETATM   13  C5  UNL     1      30.783   5.168  47.844  1.00  0.00     0.140 A 
HETATM   14  N3  UNL     1      31.957   4.818  48.358  1.00  0.00    -0.272 NA
HETATM   15  C6  UNL     1      32.645   5.850  49.107  1.00  0.00     0.114 A 
HETATM   16  C7  UNL     1      32.253   7.069  49.333  1.00  0.00     0.033 A 
HETATM   17  C8  UNL     1      30.943   7.619  48.817  1.00  0.00     0.289 A 
BRANCH  17  18
HETATM   18  N4  UNL     1      31.305   8.704  47.924  1.00  0.00     0.091 N 
HETATM   19  H8  UNL     1      31.908   9.432  48.360  1.00  0.00     0.314 HD
HETATM   20  H9  UNL     1      31.796   8.336  47.049  1.00  0.00     0.314 HD
ENDBRANCH  17  18
ENDBRANCH   3  12
BRANCH   8  21
HETATM   21  N5  UNL     1      26.553   2.681  50.200  1.00  0.00    -0.327 N 
HETATM   22  C14 UNL     1      26.295   2.105  51.446  1.00  0.00     0.227 C 
HETATM   23  O1  UNL     1      25.571   2.733  52.294  1.00  0.00    -0.273 OA
HETATM   24  H13 UNL     1      27.166   2.015  49.680  1.00  0.00     0.169 HD
BRANCH  22  25
HETATM   25  C15 UNL     1      26.782   0.771  51.957  1.00  0.00     0.150 C 
BRANCH  25  26
HETATM   26  C16 UNL     1      25.738   0.166  52.806  1.00  0.00     0.098 C 
HETATM   27  N6  UNL     1      25.254  -0.845  53.432  1.00  0.00    -0.275 NA
BRANCH  27  28
HETATM   28  C17 UNL     1      24.025  -0.686  54.156  1.00  0.00     0.145 C 
BRANCH  28  29
HETATM   29  C18 UNL     1      22.783  -0.927  54.593  1.00  0.00     0.207 C 
HETATM   30  F1  UNL     1      21.787  -1.475  53.838  1.00  0.00    -0.218 F 
ENDBRANCH  28  29
ENDBRANCH  27  28
ENDBRANCH  25  26
ENDBRANCH  22  25
ENDBRANCH   8  21
TORSDOF 8
ENDMDL
MODEL 8
REMARK VINA RESULT:      -6.5      4.301      8.676
REMARK  8 active torsions:
REMARK  status: ('A' for Active; 'I' for Inactive)
REMARK    1  A    between atoms: C2_2  and  N1_3 
REMARK    2  A    between atoms: N2_5  and  C4_6 
REMARK    3  A    between atoms: C8_11  and  N4_12 
REMARK    4  A    between atoms: C13_17  and  N5_18 
REMARK       I    between atoms: N5_18  and  C14_19 
REMARK    5  A    between atoms: C14_19  and  C15_21 
REMARK    6  A    between atoms: C15_21  and  C16_22 
REMARK    7  A    between atoms: N6_23  and  C17_24 
REMARK    8  A    between atoms: C17_24  and  C18_25 
ROOT
HETATM    1  N1  UNL     1      25.647   3.803  50.100  1.00  0.00    -0.281 N 
HETATM    2  C3  UNL     1      25.183   3.035  50.969  1.00  0.00     0.130 A 
HETATM    3  N2  UNL     1      24.227   3.994  50.749  1.00  0.00    -0.140 NA
HETATM    4  C9  UNL     1      25.533   1.843  51.702  1.00  0.00     0.008 A 
HETATM    5  C10 UNL     1      26.756   1.268  51.453  1.00  0.00     0.015 A 
HETATM    6  C11 UNL     1      26.975   0.122  52.177  1.00  0.00     0.003 A 
HETATM    7  C12 UNL     1      26.130  -0.475  53.083  1.00  0.00     0.029 A 
HETATM    8  C13 UNL     1      24.938   0.166  53.268  1.00  0.00     0.035 A 
HETATM    9  C19 UNL     1      24.616   1.327  52.589  1.00  0.00     0.044 A 
ENDROOT
BRANCH   1  10
HETATM   10  C2  UNL     1      26.788   3.960  49.333  1.00  0.00     0.129 C 
HETATM   11  C1  UNL     1      26.402   5.251  49.331  1.00  0.00     0.031 C 
ENDBRANCH   1  10
BRANCH   3  12
HETATM   12  C4  UNL     1      23.034   4.032  50.400  1.00  0.00     0.070 A 
HETATM   13  C5  UNL     1      22.201   4.242  51.598  1.00  0.00     0.140 A 
HETATM   14  N3  UNL     1      20.881   4.311  51.461  1.00  0.00    -0.272 NA
HETATM   15  C6  UNL     1      20.383   4.167  50.108  1.00  0.00     0.114 A 
HETATM   16  C7  UNL     1      21.070   3.981  49.020  1.00  0.00     0.033 A 
HETATM   17  C8  UNL     1      22.578   3.881  49.007  1.00  0.00     0.289 A 
BRANCH  17  18
HETATM   18  N4  UNL     1      23.033   5.000  48.204  1.00  0.00     0.091 N 
HETATM   19  H8  UNL     1      22.466   5.169  47.348  1.00  0.00     0.314 HD
HETATM   20  H9  UNL     1      23.059   5.901  48.778  1.00  0.00     0.314 HD
ENDBRANCH  17  18
ENDBRANCH   3  12
BRANCH   8  21
HETATM   21  N5  UNL     1      23.904  -0.296  54.122  1.00  0.00    -0.327 N 
HETATM   22  C14 UNL     1      22.659  -0.838  53.793  1.00  0.00     0.227 C 
HETATM   23  O1  UNL     1      22.329  -0.959  52.563  1.00  0.00    -0.273 OA
HETATM   24  H13 UNL     1      23.958  -0.275  55.164  1.00  0.00     0.169 HD
BRANCH  22  25
HETATM   25  C15 UNL     1      21.591  -1.322  54.744  1.00  0.00     0.150 C 
BRANCH  25  26
HETATM   26  C16 UNL     1      20.277  -1.237  54.079  1.00  0.00     0.098 C 
HETATM   27  N6  UNL     1      19.382  -0.559  53.456  1.00  0.00    -0.275 NA
BRANCH  27  28
HETATM   28  C17 UNL     1      18.175  -1.220  53.047  1.00  0.00     0.145 C 
BRANCH  28  29
HETATM   29  C18 UNL     1      17.113  -2.035  53.082  1.00  0.00     0.207 C 
HETATM   30  F1  UNL     1      15.874  -1.714  52.611  1.00  0.00    -0.218 F 
ENDBRANCH  28  29
ENDBRANCH  27  28
ENDBRANCH  25  26
ENDBRANCH  22  25
ENDBRANCH   8  21
TORSDOF 8
ENDMDL
MODEL 9
REMARK VINA RESULT:      -6.5      3.319      5.840
REMARK  8 active torsions:
REMARK  status: ('A' for Active; 'I' for Inactive)
REMARK    1  A    between atoms: C2_2  and  N1_3 
REMARK    2  A    between atoms: N2_5  and  C4_6 
REMARK    3  A    between atoms: C8_11  and  N4_12 
REMARK    4  A    between atoms: C13_17  and  N5_18 
REMARK       I    between atoms: N5_18  and  C14_19 
REMARK    5  A    between atoms: C14_19  and  C15_21 
REMARK    6  A    between atoms: C15_21  and  C16_22 
REMARK    7  A    between atoms: N6_23  and  C17_24 
REMARK    8  A    between atoms: C17_24  and  C18_25 
ROOT
HETATM    1  N1  UNL     1      25.074   0.642  53.783  1.00  0.00    -0.281 N 
HETATM    2  C3  UNL     1      23.946   0.961  53.351  1.00  0.00     0.130 A 
HETATM    3  N2  UNL     1      24.803   1.964  52.974  1.00  0.00    -0.140 NA
HETATM    4  C9  UNL     1      22.589   0.473  53.316  1.00  0.00     0.008 A 
HETATM    5  C10 UNL     1      22.319  -0.730  53.925  1.00  0.00     0.015 A 
HETATM    6  C11 UNL     1      21.008  -1.118  53.804  1.00  0.00     0.003 A 
HETATM    7  C12 UNL     1      19.989  -0.452  53.165  1.00  0.00     0.029 A 
HETATM    8  C13 UNL     1      20.347   0.734  52.590  1.00  0.00     0.035 A 
HETATM    9  C19 UNL     1      21.641   1.218  52.652  1.00  0.00     0.044 A 
ENDROOT
BRANCH   1  10
HETATM   10  C2  UNL     1      25.680  -0.377  54.496  1.00  0.00     0.129 C 
HETATM   11  C1  UNL     1      25.986  -0.826  53.263  1.00  0.00     0.031 C 
ENDBRANCH   1  10
BRANCH   3  12
HETATM   12  C4  UNL     1      25.165   2.505  51.915  1.00  0.00     0.070 A 
HETATM   13  C5  UNL     1      24.094   3.412  51.461  1.00  0.00     0.140 A 
HETATM   14  N3  UNL     1      24.265   4.099  50.337  1.00  0.00    -0.272 NA
HETATM   15  C6  UNL     1      25.522   3.878  49.652  1.00  0.00     0.114 A 
HETATM   16  C7  UNL     1      26.497   3.094  50.006  1.00  0.00     0.033 A 
HETATM   17  C8  UNL     1      26.458   2.247  51.257  1.00  0.00     0.289 A 
BRANCH  17  18
HETATM   18  N4  UNL     1      27.549   2.728  52.084  1.00  0.00     0.091 N 
HETATM   19  H8  UNL     1      27.806   2.089  52.863  1.00  0.00     0.314 HD
HETATM   20  H9  UNL     1      28.422   2.917  51.498  1.00  0.00     0.314 HD
ENDBRANCH  17  18
ENDBRANCH   3  12
BRANCH   8  21
HETATM   21  N5  UNL     1      19.469   1.563  51.846  1.00  0.00    -0.327 N 
HETATM   22  C14 UNL     1      19.368   1.731  50.463  1.00  0.00     0.227 C 
HETATM   23  O1  UNL     1      20.155   1.083  49.689  1.00  0.00    -0.273 OA
HETATM   24  H13 UNL     1      18.753   2.188  52.279  1.00  0.00     0.169 HD
BRANCH  22  25
HETATM   25  C15 UNL     1      18.407   2.625  49.717  1.00  0.00     0.150 C 
BRANCH  25  26
HETATM   26  C16 UNL     1      19.031   3.059  48.452  1.00  0.00     0.098 C 
HETATM   27  N6  UNL     1      19.033   3.118  47.170  1.00  0.00    -0.275 NA
BRANCH  27  28
HETATM   28  C17 UNL     1      20.110   3.799  46.511  1.00  0.00     0.145 C 
BRANCH  28  29
HETATM   29  C18 UNL     1      21.083   4.054  45.627  1.00  0.00     0.207 C 
HETATM   30  F1  UNL     1      21.169   3.496  44.385  1.00  0.00    -0.218 F 
ENDBRANCH  28  29
ENDBRANCH  27  28
ENDBRANCH  25  26
ENDBRANCH  22  25
ENDBRANCH   8  21
TORSDOF 8
ENDMDL
