MODEL 1
REMARK VINA RESULT:      -8.5      0.000      0.000
REMARK  3 active torsions:
REMARK  status: ('A' for Active; 'I' for Inactive)
REMARK    1  A    between atoms: C2_2  and  C3_3 
REMARK    2  A    between atoms: C11_12  and  O1_13 
REMARK    3  A    between atoms: C14_17  and  C15_18 
ROOT
HETATM    1  C3  UNL     1      23.101   2.271  48.892  1.00  0.00     0.069 A 
HETATM    2  C4  UNL     1      24.122   3.189  50.256  1.00  0.00     0.166 A 
HETATM    3  C5  UNL     1      24.319   3.128  51.564  1.00  0.00     0.061 A 
HETATM    4  C6  UNL     1      25.172   2.332  52.299  1.00  0.00     0.018 A 
HETATM    5  C7  UNL     1      25.770   1.631  51.216  1.00  0.00    -0.018 A 
HETATM    6  C8  UNL     1      24.892   2.434  50.414  1.00  0.00     0.119 A 
HETATM    7  C9  UNL     1      23.947   3.282  49.365  1.00  0.00     0.183 A 
HETATM    8  N1  UNL     1      23.337   4.210  50.455  1.00  0.00    -0.013 N 
HETATM    9  C10 UNL     1      23.475   4.245  51.820  1.00  0.00     0.150 A 
HETATM   10  C11 UNL     1      23.295   4.665  52.984  1.00  0.00     0.165 C 
HETATM   11  C12 UNL     1      22.121   5.081  50.225  1.00  0.00     0.272 C 
HETATM   12  C13 UNL     1      20.895   4.095  50.486  1.00  0.00     0.206 C 
HETATM   13  O2  UNL     1      21.189   3.303  51.649  1.00  0.00    -0.331 OA
HETATM   14  C14 UNL     1      21.345   1.866  51.683  1.00  0.00     0.198 C 
HETATM   15  N2  UNL     1      22.300   0.778  51.799  1.00  0.00    -0.333 N 
HETATM   16  C16 UNL     1      23.147   0.190  52.771  1.00  0.00     0.044 A 
HETATM   17  C17 UNL     1      22.162  -0.307  53.657  1.00  0.00     0.030 A 
HETATM   18  C18 UNL     1      22.465  -0.997  54.856  1.00  0.00     0.002 A 
HETATM   19  C19 UNL     1      23.796  -1.290  55.347  1.00  0.00     0.001 A 
HETATM   20  C20 UNL     1      24.579  -0.734  54.356  1.00  0.00     0.013 A 
HETATM   21  C21 UNL     1      24.432  -0.037  53.143  1.00  0.00    -0.010 A 
HETATM   22  C22 UNL     1      25.859   0.120  52.917  1.00  0.00     0.010 C 
HETATM   23  C23 UNL     1      26.595   0.878  52.051  1.00  0.00    -0.020 C 
HETATM   24  H14 UNL     1      22.459   0.147  51.014  1.00  0.00     0.168 HD
ENDROOT
BRANCH  10  25
HETATM   25  O1  UNL     1      22.444   5.760  53.017  1.00  0.00    -0.371 OA
HETATM   26  H9  UNL     1      22.396   6.360  53.846  1.00  0.00     0.216 HD
ENDBRANCH  10  25
BRANCH   1  27
HETATM   27  C2  UNL     1      22.647   2.026  47.688  1.00  0.00    -0.005 C 
HETATM   28  C1  UNL     1      21.961   3.136  46.982  1.00  0.00     0.011 C 
ENDBRANCH   1  27
BRANCH  14  29
HETATM   29  C15 UNL     1      20.176   1.236  51.557  1.00  0.00     0.276 C 
HETATM   30  O3  UNL     1      19.404   0.242  51.425  1.00  0.00    -0.279 OA
ENDBRANCH  14  29
TORSDOF 3
ENDMDL
MODEL 2
REMARK VINA RESULT:      -8.3      2.075      4.334
REMARK  3 active torsions:
REMARK  status: ('A' for Active; 'I' for Inactive)
REMARK    1  A    between atoms: C2_2  and  C3_3 
REMARK    2  A    between atoms: C11_12  and  O1_13 
REMARK    3  A    between atoms: C14_17  and  C15_18 
ROOT
HETATM    1  C3  UNL     1      22.148   4.730  51.644  1.00  0.00     0.069 A 
HETATM    2  C4  UNL     1      21.375   3.039  51.112  1.00  0.00     0.166 A 
HETATM    3  C5  UNL     1      21.760   1.791  50.893  1.00  0.00     0.061 A 
HETATM    4  C6  UNL     1      21.948   0.750  51.779  1.00  0.00     0.018 A 
HETATM    5  C7  UNL     1      21.580   1.436  52.970  1.00  0.00    -0.018 A 
HETATM    6  C8  UNL     1      21.381   2.547  52.084  1.00  0.00     0.119 A 
HETATM    7  C9  UNL     1      21.108   3.907  51.196  1.00  0.00     0.183 A 
HETATM    8  N1  UNL     1      21.342   3.219  49.821  1.00  0.00    -0.013 N 
HETATM    9  C10 UNL     1      21.730   1.947  49.479  1.00  0.00     0.150 A 
HETATM   10  C11 UNL     1      22.018   0.998  48.719  1.00  0.00     0.165 C 
HETATM   11  C12 UNL     1      21.542   3.981  48.529  1.00  0.00     0.272 C 
HETATM   12  C13 UNL     1      23.098   4.333  48.534  1.00  0.00     0.206 C 
HETATM   13  O2  UNL     1      23.824   3.175  48.981  1.00  0.00    -0.331 OA
HETATM   14  C14 UNL     1      24.633   3.087  50.175  1.00  0.00     0.198 C 
HETATM   15  N2  UNL     1      24.707   2.549  51.523  1.00  0.00    -0.333 N 
HETATM   16  C16 UNL     1      24.856   1.300  52.175  1.00  0.00     0.044 A 
HETATM   17  C17 UNL     1      26.169   0.981  51.755  1.00  0.00     0.030 A 
HETATM   18  C18 UNL     1      26.837  -0.214  52.117  1.00  0.00     0.002 A 
HETATM   19  C19 UNL     1      26.291  -1.266  52.950  1.00  0.00     0.001 A 
HETATM   20  C20 UNL     1      25.041  -0.761  53.240  1.00  0.00     0.013 A 
HETATM   21  C21 UNL     1      24.256   0.373  52.964  1.00  0.00    -0.010 A 
HETATM   22  C22 UNL     1      23.096  -0.095  53.706  1.00  0.00     0.010 C 
HETATM   23  C23 UNL     1      21.797   0.320  53.777  1.00  0.00    -0.020 C 
HETATM   24  H14 UNL     1      24.706   3.175  52.327  1.00  0.00     0.168 HD
ENDROOT
BRANCH  10  25
HETATM   25  O1  UNL     1      21.923   1.355  47.381  1.00  0.00    -0.371 OA
HETATM   26  H9  UNL     1      21.498   2.246  47.108  1.00  0.00     0.216 HD
ENDBRANCH  10  25
BRANCH   1  27
HETATM   27  C2  UNL     1      22.169   6.010  51.926  1.00  0.00    -0.005 C 
HETATM   28  C1  UNL     1      21.815   6.951  50.835  1.00  0.00     0.011 C 
ENDBRANCH   1  27
BRANCH  14  29
HETATM   29  C15 UNL     1      25.783   3.750  50.047  1.00  0.00     0.276 C 
HETATM   30  O3  UNL     1      27.007   3.904  49.764  1.00  0.00    -0.279 OA
ENDBRANCH  14  29
TORSDOF 3
ENDMDL
MODEL 3
REMARK VINA RESULT:      -7.8      1.223      1.741
REMARK  3 active torsions:
REMARK  status: ('A' for Active; 'I' for Inactive)
REMARK    1  A    between atoms: C2_2  and  C3_3 
REMARK    2  A    between atoms: C11_12  and  O1_13 
REMARK    3  A    between atoms: C14_17  and  C15_18 
ROOT
HETATM    1  C3  UNL     1      22.498   3.193  47.762  1.00  0.00     0.069 A 
HETATM    2  C4  UNL     1      23.442   4.351  48.991  1.00  0.00     0.166 A 
HETATM    3  C5  UNL     1      23.829   4.359  50.258  1.00  0.00     0.061 A 
HETATM    4  C6  UNL     1      24.945   3.807  50.851  1.00  0.00     0.018 A 
HETATM    5  C7  UNL     1      25.540   3.260  49.679  1.00  0.00    -0.018 A 
HETATM    6  C8  UNL     1      24.388   3.811  49.025  1.00  0.00     0.119 A 
HETATM    7  C9  UNL     1      23.127   4.387  48.136  1.00  0.00     0.183 A 
HETATM    8  N1  UNL     1      22.467   5.151  49.319  1.00  0.00    -0.013 N 
HETATM    9  C10 UNL     1      22.781   5.236  50.653  1.00  0.00     0.150 A 
HETATM   10  C11 UNL     1      22.667   5.614  51.839  1.00  0.00     0.165 C 
HETATM   11  C12 UNL     1      21.054   5.693  49.278  1.00  0.00     0.272 C 
HETATM   12  C13 UNL     1      20.157   4.438  49.685  1.00  0.00     0.206 C 
HETATM   13  O2  UNL     1      20.795   3.758  50.779  1.00  0.00    -0.331 OA
HETATM   14  C14 UNL     1      21.303   2.405  50.759  1.00  0.00     0.198 C 
HETATM   15  N2  UNL     1      22.502   1.587  50.718  1.00  0.00    -0.333 N 
HETATM   16  C16 UNL     1      23.594   1.238  51.551  1.00  0.00     0.044 A 
HETATM   17  C17 UNL     1      22.895   0.526  52.554  1.00  0.00     0.030 A 
HETATM   18  C18 UNL     1      23.523  -0.052  53.684  1.00  0.00     0.002 A 
HETATM   19  C19 UNL     1      24.940  -0.003  53.979  1.00  0.00     0.001 A 
HETATM   20  C20 UNL     1      25.416   0.716  52.902  1.00  0.00     0.013 A 
HETATM   21  C21 UNL     1      24.935   1.340  51.737  1.00  0.00    -0.010 A 
HETATM   22  C22 UNL     1      26.234   1.841  51.319  1.00  0.00     0.010 C 
HETATM   23  C23 UNL     1      26.633   2.745  50.376  1.00  0.00    -0.020 C 
HETATM   24  H14 UNL     1      22.700   1.004  49.906  1.00  0.00     0.168 HD
ENDROOT
BRANCH  10  25
HETATM   25  O1  UNL     1      21.587   6.467  52.013  1.00  0.00    -0.371 OA
HETATM   26  H9  UNL     1      20.627   6.111  51.960  1.00  0.00     0.216 HD
ENDBRANCH  10  25
BRANCH   1  27
HETATM   27  C2  UNL     1      21.955   2.828  46.627  1.00  0.00    -0.005 C 
HETATM   28  C1  UNL     1      21.914   3.836  45.539  1.00  0.00     0.011 C 
ENDBRANCH   1  27
BRANCH  14  29
HETATM   29  C15 UNL     1      20.319   1.505  50.783  1.00  0.00     0.276 C 
HETATM   30  O3  UNL     1      19.738   0.430  51.116  1.00  0.00    -0.279 OA
ENDBRANCH  14  29
TORSDOF 3
ENDMDL
MODEL 4
REMARK VINA RESULT:      -7.6      2.193      3.886
REMARK  3 active torsions:
REMARK  status: ('A' for Active; 'I' for Inactive)
REMARK    1  A    between atoms: C2_2  and  C3_3 
REMARK    2  A    between atoms: C11_12  and  O1_13 
REMARK    3  A    between atoms: C14_17  and  C15_18 
ROOT
HETATM    1  C3  UNL     1      25.373   3.121  50.104  1.00  0.00     0.069 A 
HETATM    2  C4  UNL     1      24.357   3.710  51.641  1.00  0.00     0.166 A 
HETATM    3  C5  UNL     1      23.105   3.698  52.074  1.00  0.00     0.061 A 
HETATM    4  C6  UNL     1      22.401   2.711  52.731  1.00  0.00     0.018 A 
HETATM    5  C7  UNL     1      23.443   1.744  52.808  1.00  0.00    -0.018 A 
HETATM    6  C8  UNL     1      24.208   2.741  52.116  1.00  0.00     0.119 A 
HETATM    7  C9  UNL     1      25.211   3.783  51.327  1.00  0.00     0.183 A 
HETATM    8  N1  UNL     1      24.198   4.964  51.320  1.00  0.00    -0.013 N 
HETATM    9  C10 UNL     1      22.896   5.066  51.743  1.00  0.00     0.150 A 
HETATM   10  C11 UNL     1      21.800   5.624  51.968  1.00  0.00     0.165 C 
HETATM   11  C12 UNL     1      24.363   6.200  50.463  1.00  0.00     0.272 C 
HETATM   12  C13 UNL     1      23.753   5.767  49.054  1.00  0.00     0.206 C 
HETATM   13  O2  UNL     1      22.542   5.029  49.290  1.00  0.00    -0.331 OA
HETATM   14  C14 UNL     1      22.307   3.646  48.942  1.00  0.00     0.198 C 
HETATM   15  N2  UNL     1      22.176   2.296  49.461  1.00  0.00    -0.333 N 
HETATM   16  C16 UNL     1      21.273   1.525  50.234  1.00  0.00     0.044 A 
HETATM   17  C17 UNL     1      20.171   1.510  49.347  1.00  0.00     0.030 A 
HETATM   18  C18 UNL     1      18.943   0.866  49.636  1.00  0.00     0.002 A 
HETATM   19  C19 UNL     1      18.635   0.144  50.853  1.00  0.00     0.001 A 
HETATM   20  C20 UNL     1      19.815   0.280  51.554  1.00  0.00     0.013 A 
HETATM   21  C21 UNL     1      21.083   0.871  51.408  1.00  0.00    -0.010 A 
HETATM   22  C22 UNL     1      21.560   0.466  52.721  1.00  0.00     0.010 C 
HETATM   23  C23 UNL     1      22.643   0.816  53.475  1.00  0.00    -0.020 C 
HETATM   24  H14 UNL     1      22.866   1.584  49.223  1.00  0.00     0.168 HD
ENDROOT
BRANCH  10  25
HETATM   25  O1  UNL     1      21.804   6.955  51.577  1.00  0.00    -0.371 OA
HETATM   26  H9  UNL     1      20.941   7.411  51.265  1.00  0.00     0.216 HD
ENDBRANCH  10  25
BRANCH   1  27
HETATM   27  C2  UNL     1      26.434   2.956  49.353  1.00  0.00    -0.005 C 
HETATM   28  C1  UNL     1      27.209   4.170  48.997  1.00  0.00     0.011 C 
ENDBRANCH   1  27
BRANCH  14  29
HETATM   29  C15 UNL     1      22.139   3.486  47.628  1.00  0.00     0.276 C 
HETATM   30  O3  UNL     1      21.493   3.407  46.543  1.00  0.00    -0.279 OA
ENDBRANCH  14  29
TORSDOF 3
ENDMDL
MODEL 5
REMARK VINA RESULT:      -7.5      2.250      4.644
REMARK  3 active torsions:
REMARK  status: ('A' for Active; 'I' for Inactive)
REMARK    1  A    between atoms: C2_2  and  C3_3 
REMARK    2  A    between atoms: C11_12  and  O1_13 
REMARK    3  A    between atoms: C14_17  and  C15_18 
ROOT
HETATM    1  C3  UNL     1      18.614   3.103  51.048  1.00  0.00     0.069 A 
HETATM    2  C4  UNL     1      19.603   1.757  50.073  1.00  0.00     0.166 A 
HETATM    3  C5  UNL     1      20.853   1.335  49.942  1.00  0.00     0.061 A 
HETATM    4  C6  UNL     1      21.581   0.459  50.719  1.00  0.00     0.018 A 
HETATM    5  C7  UNL     1      20.568   0.148  51.668  1.00  0.00    -0.018 A 
HETATM    6  C8  UNL     1      19.778   1.060  50.893  1.00  0.00     0.119 A 
HETATM    7  C9  UNL     1      18.750   2.077  50.104  1.00  0.00     0.183 A 
HETATM    8  N1  UNL     1      19.728   2.372  48.931  1.00  0.00    -0.013 N 
HETATM    9  C10 UNL     1      21.024   1.988  48.690  1.00  0.00     0.150 A 
HETATM   10  C11 UNL     1      22.102   1.908  48.061  1.00  0.00     0.165 C 
HETATM   11  C12 UNL     1      19.532   3.505  47.945  1.00  0.00     0.272 C 
HETATM   12  C13 UNL     1      20.163   4.767  48.690  1.00  0.00     0.206 C 
HETATM   13  O2  UNL     1      21.393   4.359  49.311  1.00  0.00    -0.331 OA
HETATM   14  C14 UNL     1      21.671   4.362  50.730  1.00  0.00     0.198 C 
HETATM   15  N2  UNL     1      21.838   3.530  51.909  1.00  0.00    -0.333 N 
HETATM   16  C16 UNL     1      22.759   2.594  52.442  1.00  0.00     0.044 A 
HETATM   17  C17 UNL     1      23.866   3.452  52.639  1.00  0.00     0.030 A 
HETATM   18  C18 UNL     1      25.110   3.018  53.156  1.00  0.00     0.002 A 
HETATM   19  C19 UNL     1      25.432   1.662  53.552  1.00  0.00     0.001 A 
HETATM   20  C20 UNL     1      24.245   1.013  53.284  1.00  0.00     0.013 A 
HETATM   21  C21 UNL     1      22.961   1.296  52.785  1.00  0.00    -0.010 A 
HETATM   22  C22 UNL     1      22.488  -0.076  52.873  1.00  0.00     0.010 C 
HETATM   23  C23 UNL     1      21.390  -0.724  52.382  1.00  0.00    -0.020 C 
HETATM   24  H14 UNL     1      21.171   3.587  52.677  1.00  0.00     0.168 HD
ENDROOT
BRANCH  10  25
HETATM   25  O1  UNL     1      22.061   2.610  46.866  1.00  0.00    -0.371 OA
HETATM   26  H9  UNL     1      21.165   2.866  46.441  1.00  0.00     0.216 HD
ENDBRANCH  10  25
BRANCH   1  27
HETATM   27  C2  UNL     1      17.564   3.790  51.422  1.00  0.00    -0.005 C 
HETATM   28  C1  UNL     1      16.488   3.987  50.419  1.00  0.00     0.011 C 
ENDBRANCH   1  27
BRANCH  14  29
HETATM   29  C15 UNL     1      21.851   5.597  51.199  1.00  0.00     0.276 C 
HETATM   30  O3  UNL     1      21.810   6.862  51.180  1.00  0.00    -0.279 OA
ENDBRANCH  14  29
TORSDOF 3
ENDMDL
MODEL 6
REMARK VINA RESULT:      -7.4      9.580     11.740
REMARK  3 active torsions:
REMARK  status: ('A' for Active; 'I' for Inactive)
REMARK    1  A    between atoms: C2_2  and  C3_3 
REMARK    2  A    between atoms: C11_12  and  O1_13 
REMARK    3  A    between atoms: C14_17  and  C15_18 
ROOT
HETATM    1  C3  UNL     1      31.329  10.082  48.178  1.00  0.00     0.069 A 
HETATM    2  C4  UNL     1      31.138   8.308  48.925  1.00  0.00     0.166 A 
HETATM    3  C5  UNL     1      31.218   7.046  48.532  1.00  0.00     0.061 A 
HETATM    4  C6  UNL     1      32.318   6.225  48.394  1.00  0.00     0.018 A 
HETATM    5  C7  UNL     1      33.310   7.151  48.825  1.00  0.00    -0.018 A 
HETATM    6  C8  UNL     1      32.193   8.040  48.973  1.00  0.00     0.119 A 
HETATM    7  C9  UNL     1      31.017   9.171  49.194  1.00  0.00     0.183 A 
HETATM    8  N1  UNL     1      29.840   8.202  48.887  1.00  0.00    -0.013 N 
HETATM    9  C10 UNL     1      29.805   6.890  48.485  1.00  0.00     0.150 A 
HETATM   10  C11 UNL     1      29.286   5.800  48.158  1.00  0.00     0.165 C 
HETATM   11  C12 UNL     1      28.425   8.667  48.616  1.00  0.00     0.272 C 
HETATM   12  C13 UNL     1      28.436   9.026  47.062  1.00  0.00     0.206 C 
HETATM   13  O2  UNL     1      29.163   8.000  46.364  1.00  0.00    -0.331 OA
HETATM   14  C14 UNL     1      30.389   8.182  45.621  1.00  0.00     0.198 C 
HETATM   15  N2  UNL     1      31.824   7.952  45.621  1.00  0.00    -0.333 N 
HETATM   16  C16 UNL     1      32.740   6.876  45.511  1.00  0.00     0.044 A 
HETATM   17  C17 UNL     1      32.471   6.487  44.178  1.00  0.00     0.030 A 
HETATM   18  C18 UNL     1      33.120   5.406  43.533  1.00  0.00     0.002 A 
HETATM   19  C19 UNL     1      34.132   4.555  44.126  1.00  0.00     0.001 A 
HETATM   20  C20 UNL     1      34.237   5.099  45.389  1.00  0.00     0.013 A 
HETATM   21  C21 UNL     1      33.679   6.138  46.155  1.00  0.00    -0.010 A 
HETATM   22  C22 UNL     1      34.442   5.832  47.354  1.00  0.00     0.010 C 
HETATM   23  C23 UNL     1      34.351   6.240  48.654  1.00  0.00    -0.020 C 
HETATM   24  H14 UNL     1      32.471   8.738  45.665  1.00  0.00     0.168 HD
ENDROOT
BRANCH  10  25
HETATM   25  O1  UNL     1      27.900   5.857  48.179  1.00  0.00    -0.371 OA
HETATM   26  H9  UNL     1      27.397   6.548  47.615  1.00  0.00     0.216 HD
ENDBRANCH  10  25
BRANCH   1  27
HETATM   27  C2  UNL     1      31.326  11.392  48.170  1.00  0.00    -0.005 C 
HETATM   28  C1  UNL     1      30.581  12.076  49.255  1.00  0.00     0.011 C 
ENDBRANCH   1  27
BRANCH  14  29
HETATM   29  C15 UNL     1      30.181   8.812  44.464  1.00  0.00     0.276 C 
HETATM   30  O3  UNL     1      30.400   9.661  43.551  1.00  0.00    -0.279 OA
ENDBRANCH  14  29
TORSDOF 3
ENDMDL
MODEL 7
REMARK VINA RESULT:      -7.2      2.117      4.590
REMARK  3 active torsions:
REMARK  status: ('A' for Active; 'I' for Inactive)
REMARK    1  A    between atoms: C2_2  and  C3_3 
REMARK    2  A    between atoms: C11_12  and  O1_13 
REMARK    3  A    between atoms: C14_17  and  C15_18 
ROOT
HETATM    1  C3  UNL     1      21.452   5.197  50.954  1.00  0.00     0.069 A 
HETATM    2  C4  UNL     1      20.681   3.785  49.880  1.00  0.00     0.166 A 
HETATM    3  C5  UNL     1      20.698   2.462  49.811  1.00  0.00     0.061 A 
HETATM    4  C6  UNL     1      19.963   1.525  50.507  1.00  0.00     0.018 A 
HETATM    5  C7  UNL     1      19.185   2.425  51.287  1.00  0.00    -0.018 A 
HETATM    6  C8  UNL     1      19.935   3.431  50.592  1.00  0.00     0.119 A 
HETATM    7  C9  UNL     1      20.710   4.696  49.877  1.00  0.00     0.183 A 
HETATM    8  N1  UNL     1      21.503   3.815  48.870  1.00  0.00    -0.013 N 
HETATM    9  C10 UNL     1      21.590   2.455  48.702  1.00  0.00     0.150 A 
HETATM   10  C11 UNL     1      21.964   1.382  48.181  1.00  0.00     0.165 C 
HETATM   11  C12 UNL     1      22.680   4.321  48.063  1.00  0.00     0.272 C 
HETATM   12  C13 UNL     1      23.916   4.164  49.059  1.00  0.00     0.206 C 
HETATM   13  O2  UNL     1      23.803   2.897  49.729  1.00  0.00    -0.331 OA
HETATM   14  C14 UNL     1      23.631   2.698  51.150  1.00  0.00     0.198 C 
HETATM   15  N2  UNL     1      22.690   2.325  52.192  1.00  0.00    -0.333 N 
HETATM   16  C16 UNL     1      22.003   1.176  52.658  1.00  0.00     0.044 A 
HETATM   17  C17 UNL     1      23.111   0.415  53.101  1.00  0.00     0.030 A 
HETATM   18  C18 UNL     1      22.995  -0.879  53.664  1.00  0.00     0.002 A 
HETATM   19  C19 UNL     1      21.757  -1.603  53.869  1.00  0.00     0.001 A 
HETATM   20  C20 UNL     1      20.833  -0.701  53.383  1.00  0.00     0.013 A 
HETATM   21  C21 UNL     1      20.792   0.583  52.808  1.00  0.00    -0.010 A 
HETATM   22  C22 UNL     1      19.349   0.591  52.628  1.00  0.00     0.010 C 
HETATM   23  C23 UNL     1      18.496   1.398  51.932  1.00  0.00    -0.020 C 
HETATM   24  H14 UNL     1      22.396   3.008  52.888  1.00  0.00     0.168 HD
ENDROOT
BRANCH  10  25
HETATM   25  O1  UNL     1      22.826   1.593  47.115  1.00  0.00    -0.371 OA
HETATM   26  H9  UNL     1      23.253   2.512  46.963  1.00  0.00     0.216 HD
ENDBRANCH  10  25
BRANCH   1  27
HETATM   27  C2  UNL     1      21.699   6.429  51.325  1.00  0.00    -0.005 C 
HETATM   28  C1  UNL     1      22.028   7.407  50.259  1.00  0.00     0.011 C 
ENDBRANCH   1  27
BRANCH  14  29
HETATM   29  C15 UNL     1      24.753   2.947  51.826  1.00  0.00     0.276 C 
HETATM   30  O3  UNL     1      25.932   2.735  52.234  1.00  0.00    -0.279 OA
ENDBRANCH  14  29
TORSDOF 3
ENDMDL
MODEL 8
REMARK VINA RESULT:      -7.2      2.621      6.514
REMARK  3 active torsions:
REMARK  status: ('A' for Active; 'I' for Inactive)
REMARK    1  A    between atoms: C2_2  and  C3_3 
REMARK    2  A    between atoms: C11_12  and  O1_13 
REMARK    3  A    between atoms: C14_17  and  C15_18 
ROOT
HETATM    1  C3  UNL     1      21.173   3.850  51.828  1.00  0.00     0.069 A 
HETATM    2  C4  UNL     1      22.580   5.157  51.600  1.00  0.00     0.166 A 
HETATM    3  C5  UNL     1      23.260   5.729  50.618  1.00  0.00     0.061 A 
HETATM    4  C6  UNL     1      22.939   6.812  49.827  1.00  0.00     0.018 A 
HETATM    5  C7  UNL     1      21.679   7.117  50.413  1.00  0.00    -0.018 A 
HETATM    6  C8  UNL     1      21.971   5.990  51.251  1.00  0.00     0.119 A 
HETATM    7  C9  UNL     1      22.165   4.724  52.287  1.00  0.00     0.183 A 
HETATM    8  N1  UNL     1      23.613   4.396  51.826  1.00  0.00    -0.013 N 
HETATM    9  C10 UNL     1      24.410   4.921  50.839  1.00  0.00     0.150 A 
HETATM   10  C11 UNL     1      25.440   5.059  50.143  1.00  0.00     0.165 C 
HETATM   11  C12 UNL     1      24.328   3.107  52.174  1.00  0.00     0.272 C 
HETATM   12  C13 UNL     1      23.821   2.082  51.062  1.00  0.00     0.206 C 
HETATM   13  O2  UNL     1      23.814   2.755  49.792  1.00  0.00    -0.331 OA
HETATM   14  C14 UNL     1      22.651   3.014  48.973  1.00  0.00     0.198 C 
HETATM   15  N2  UNL     1      21.725   4.034  48.514  1.00  0.00    -0.333 N 
HETATM   16  C16 UNL     1      21.709   5.166  47.661  1.00  0.00     0.044 A 
HETATM   17  C17 UNL     1      21.930   4.519  46.423  1.00  0.00     0.030 A 
HETATM   18  C18 UNL     1      22.025   5.205  45.188  1.00  0.00     0.002 A 
HETATM   19  C19 UNL     1      21.914   6.638  45.008  1.00  0.00     0.001 A 
HETATM   20  C20 UNL     1      21.705   7.058  46.306  1.00  0.00     0.013 A 
HETATM   21  C21 UNL     1      21.590   6.516  47.599  1.00  0.00    -0.010 A 
HETATM   22  C22 UNL     1      21.422   7.802  48.256  1.00  0.00     0.010 C 
HETATM   23  C23 UNL     1      21.453   8.199  49.563  1.00  0.00    -0.020 C 
HETATM   24  H14 UNL     1      20.745   4.002  48.791  1.00  0.00     0.168 HD
ENDROOT
BRANCH  10  25
HETATM   25  O1  UNL     1      26.445   4.180  50.522  1.00  0.00    -0.371 OA
HETATM   26  H9  UNL     1      26.655   4.023  51.512  1.00  0.00     0.216 HD
ENDBRANCH  10  25
BRANCH   1  27
HETATM   27  C2  UNL     1      20.335   3.084  52.482  1.00  0.00    -0.005 C 
HETATM   28  C1  UNL     1      20.767   1.693  52.766  1.00  0.00     0.011 C 
ENDBRANCH   1  27
BRANCH  14  29
HETATM   29  C15 UNL     1      22.204   1.906  48.381  1.00  0.00     0.276 C 
HETATM   30  O3  UNL     1      21.522   0.846  48.269  1.00  0.00    -0.279 OA
ENDBRANCH  14  29
TORSDOF 3
ENDMDL
MODEL 9
REMARK VINA RESULT:      -7.0      3.234      4.854
REMARK  3 active torsions:
REMARK  status: ('A' for Active; 'I' for Inactive)
REMARK    1  A    between atoms: C2_2  and  C3_3 
REMARK    2  A    between atoms: C11_12  and  O1_13 
REMARK    3  A    between atoms: C14_17  and  C15_18 
ROOT
HETATM    1  C3  UNL     1      24.375   6.694  48.525  1.00  0.00     0.069 A 
HETATM    2  C4  UNL     1      23.023   6.875  49.897  1.00  0.00     0.166 A 
HETATM    3  C5  UNL     1      22.062   6.151  50.452  1.00  0.00     0.061 A 
HETATM    4  C6  UNL     1      22.124   5.221  51.469  1.00  0.00     0.018 A 
HETATM    5  C7  UNL     1      23.520   5.309  51.732  1.00  0.00    -0.018 A 
HETATM    6  C8  UNL     1      23.500   6.276  50.673  1.00  0.00     0.119 A 
HETATM    7  C9  UNL     1      23.637   7.404  49.480  1.00  0.00     0.183 A 
HETATM    8  N1  UNL     1      22.108   7.500  49.211  1.00  0.00    -0.013 N 
HETATM    9  C10 UNL     1      21.035   6.816  49.726  1.00  0.00     0.150 A 
HETATM   10  C11 UNL     1      19.833   6.512  49.884  1.00  0.00     0.165 C 
HETATM   11  C12 UNL     1      21.516   8.167  47.988  1.00  0.00     0.272 C 
HETATM   12  C13 UNL     1      21.565   7.026  46.874  1.00  0.00     0.206 C 
HETATM   13  O2  UNL     1      21.151   5.787  47.474  1.00  0.00    -0.331 OA
HETATM   14  C14 UNL     1      21.962   4.599  47.618  1.00  0.00     0.198 C 
HETATM   15  N2  UNL     1      22.704   3.774  48.556  1.00  0.00    -0.333 N 
HETATM   16  C16 UNL     1      22.460   2.889  49.635  1.00  0.00     0.044 A 
HETATM   17  C17 UNL     1      21.797   1.855  48.933  1.00  0.00     0.030 A 
HETATM   18  C18 UNL     1      21.299   0.683  49.553  1.00  0.00     0.002 A 
HETATM   19  C19 UNL     1      21.390   0.372  50.965  1.00  0.00     0.001 A 
HETATM   20  C20 UNL     1      22.055   1.482  51.445  1.00  0.00     0.013 A 
HETATM   21  C21 UNL     1      22.596   2.691  50.970  1.00  0.00    -0.010 A 
HETATM   22  C22 UNL     1      23.029   3.154  52.279  1.00  0.00     0.010 C 
HETATM   23  C23 UNL     1      23.471   4.357  52.750  1.00  0.00    -0.020 C 
HETATM   24  H14 UNL     1      23.717   3.696  48.482  1.00  0.00     0.168 HD
ENDROOT
BRANCH  10  25
HETATM   25  O1  UNL     1      18.994   7.279  49.088  1.00  0.00    -0.371 OA
HETATM   26  H9  UNL     1      18.157   6.867  48.663  1.00  0.00     0.216 HD
ENDBRANCH  10  25
BRANCH   1  27
HETATM   27  C2  UNL     1      25.361   7.071  47.750  1.00  0.00    -0.005 C 
HETATM   28  C1  UNL     1      26.739   6.753  48.201  1.00  0.00     0.011 C 
ENDBRANCH   1  27
BRANCH  14  29
HETATM   29  C15 UNL     1      22.135   3.971  46.455  1.00  0.00     0.276 C 
HETATM   30  O3  UNL     1      22.148   3.846  45.196  1.00  0.00    -0.279 OA
ENDBRANCH  14  29
TORSDOF 3
ENDMDL
