MODEL 1
REMARK VINA RESULT:      -9.1      0.000      0.000
REMARK  4 active torsions:
REMARK  status: ('A' for Active; 'I' for Inactive)
REMARK    1  A    between atoms: C1_2  and  O2_3 
REMARK    2  A    between atoms: C1_2  and  C2_4 
REMARK    3  A    between atoms: C10_13  and  N2_14 
REMARK    4  A    between atoms: N2_14  and  C11_15 
ROOT
HETATM    1  C2  UNL     1      25.790   7.983  50.100  1.00  0.00     0.038 A 
HETATM    2  C3  UNL     1      24.454   8.241  50.280  1.00  0.00     0.021 A 
HETATM    3  C4  UNL     1      23.650   7.156  49.975  1.00  0.00     0.039 A 
HETATM    4  C5  UNL     1      24.189   5.966  49.544  1.00  0.00     0.084 A 
HETATM    5  C6  UNL     1      25.542   5.772  49.385  1.00  0.00    -0.006 A 
HETATM    6  C7  UNL     1      26.401   6.824  49.674  1.00  0.00     0.029 A 
HETATM    7  C8  UNL     1      26.111   4.492  48.911  1.00  0.00     0.160 C 
HETATM    8  N1  UNL     1      25.466   3.353  49.499  1.00  0.00    -0.391 N 
HETATM    9  C9  UNL     1      25.426   3.087  50.880  1.00  0.00     0.134 C 
HETATM   10  C10 UNL     1      25.269   2.849  52.162  1.00  0.00     0.144 C 
HETATM   11  N3  UNL     1      24.021   2.802  52.856  1.00  0.00    -0.223 NA
HETATM   12  C17 UNL     1      22.977   3.478  52.532  1.00  0.00     0.237 C 
HETATM   13  N4  UNL     1      23.470   4.165  51.415  1.00  0.00    -0.230 NA
HETATM   14  C18 UNL     1      22.754   4.209  50.322  1.00  0.00     0.260 C 
HETATM   15  O3  UNL     1      23.331   4.918  49.257  1.00  0.00    -0.303 OA
HETATM   16  H7  UNL     1      24.941   2.561  49.030  1.00  0.00     0.159 HD
ENDROOT
BRANCH  10  17
HETATM   17  N2  UNL     1      25.989   2.555  53.362  1.00  0.00    -0.340 N 
HETATM   18  H9  UNL     1      25.766   3.105  54.246  1.00  0.00     0.167 HD
BRANCH  17  19
HETATM   19  C11 UNL     1      26.991   1.550  53.405  1.00  0.00     0.035 A 
HETATM   20  C12 UNL     1      28.284   1.813  53.793  1.00  0.00     0.032 A 
HETATM   21  C13 UNL     1      29.261   0.842  53.836  1.00  0.00     0.046 A 
HETATM   22  C14 UNL     1      28.966  -0.478  53.478  1.00  0.00     0.138 A 
HETATM   23  F1  UNL     1      29.895  -1.436  53.512  1.00  0.00    -0.204 F 
HETATM   24  C15 UNL     1      27.650  -0.701  53.093  1.00  0.00     0.074 A 
HETATM   25 CL1  UNL     1      27.294  -2.370  52.646  1.00  0.00    -0.081 Cl
HETATM   26  C16 UNL     1      26.660   0.263  53.044  1.00  0.00     0.056 A 
ENDBRANCH  17  19
ENDBRANCH  10  17
BRANCH   1  27
HETATM   27  C1  UNL     1      26.658   9.110  50.408  1.00  0.00     0.176 C 
HETATM   28  O1  UNL     1      26.673  10.175  49.709  1.00  0.00    -0.646 OA
BRANCH  27  29
HETATM   29  O2  UNL     1      27.618   9.751  51.155  1.00  0.00    -0.773 OA
HETATM   30  H1  UNL     1      27.670   9.704  52.163  1.00  0.00     0.167 HD
ENDBRANCH  27  29
ENDBRANCH   1  27
TORSDOF 4
ENDMDL
MODEL 2
REMARK VINA RESULT:      -8.5      4.175      6.666
REMARK  4 active torsions:
REMARK  status: ('A' for Active; 'I' for Inactive)
REMARK    1  A    between atoms: C1_2  and  O2_3 
REMARK    2  A    between atoms: C1_2  and  C2_4 
REMARK    3  A    between atoms: C10_13  and  N2_14 
REMARK    4  A    between atoms: N2_14  and  C11_15 
ROOT
HETATM    1  C2  UNL     1      26.849   1.725  53.017  1.00  0.00     0.038 A 
HETATM    2  C3  UNL     1      26.493   0.573  52.360  1.00  0.00     0.021 A 
HETATM    3  C4  UNL     1      25.144   0.522  52.055  1.00  0.00     0.039 A 
HETATM    4  C5  UNL     1      24.294   1.549  52.396  1.00  0.00     0.084 A 
HETATM    5  C6  UNL     1      24.717   2.680  53.055  1.00  0.00    -0.006 A 
HETATM    6  C7  UNL     1      26.060   2.791  53.389  1.00  0.00     0.029 A 
HETATM    7  C8  UNL     1      23.794   3.774  53.426  1.00  0.00     0.160 C 
HETATM    8  N1  UNL     1      22.849   4.073  52.388  1.00  0.00    -0.391 N 
HETATM    9  C9  UNL     1      23.199   4.499  51.093  1.00  0.00     0.134 C 
HETATM   10  C10 UNL     1      23.475   4.796  49.845  1.00  0.00     0.144 C 
HETATM   11  N3  UNL     1      23.138   4.005  48.703  1.00  0.00    -0.223 NA
HETATM   12  C17 UNL     1      23.035   2.724  48.705  1.00  0.00     0.237 C 
HETATM   13  N4  UNL     1      23.336   2.459  50.048  1.00  0.00    -0.230 NA
HETATM   14  C18 UNL     1      22.577   1.638  50.726  1.00  0.00     0.260 C 
HETATM   15  O3  UNL     1      22.956   1.436  52.062  1.00  0.00    -0.303 OA
HETATM   16  H7  UNL     1      21.791   4.029  52.409  1.00  0.00     0.159 HD
ENDROOT
BRANCH  10  17
HETATM   17  N2  UNL     1      24.087   5.791  49.019  1.00  0.00    -0.340 N 
HETATM   18  H9  UNL     1      23.476   6.545  48.579  1.00  0.00     0.167 HD
BRANCH  17  19
HETATM   19  C11 UNL     1      25.486   5.799  48.771  1.00  0.00     0.035 A 
HETATM   20  C12 UNL     1      26.296   4.733  49.085  1.00  0.00     0.032 A 
HETATM   21  C13 UNL     1      27.654   4.735  48.848  1.00  0.00     0.046 A 
HETATM   22  C14 UNL     1      28.271   5.847  48.263  1.00  0.00     0.138 A 
HETATM   23  F1  UNL     1      29.583   5.872  48.023  1.00  0.00    -0.204 F 
HETATM   24  C15 UNL     1      27.417   6.900  47.962  1.00  0.00     0.074 A 
HETATM   25 CL1  UNL     1      28.210   8.294  47.225  1.00  0.00    -0.081 Cl
HETATM   26  C16 UNL     1      26.053   6.913  48.195  1.00  0.00     0.056 A 
ENDBRANCH  17  19
ENDBRANCH  10  17
BRANCH   1  27
HETATM   27  C1  UNL     1      28.262   1.803  53.354  1.00  0.00     0.176 C 
HETATM   28  O1  UNL     1      28.712   2.593  54.247  1.00  0.00    -0.646 OA
BRANCH  27  29
HETATM   29  O2  UNL     1      29.579   1.434  53.215  1.00  0.00    -0.773 OA
HETATM   30  H1  UNL     1      30.290   2.030  52.813  1.00  0.00     0.167 HD
ENDBRANCH  27  29
ENDBRANCH   1  27
TORSDOF 4
ENDMDL
MODEL 3
REMARK VINA RESULT:      -8.5      4.022      5.032
REMARK  4 active torsions:
REMARK  status: ('A' for Active; 'I' for Inactive)
REMARK    1  A    between atoms: C1_2  and  O2_3 
REMARK    2  A    between atoms: C1_2  and  C2_4 
REMARK    3  A    between atoms: C10_13  and  N2_14 
REMARK    4  A    between atoms: N2_14  and  C11_15 
ROOT
HETATM    1  C2  UNL     1      24.761   3.792  49.944  1.00  0.00     0.038 A 
HETATM    2  C3  UNL     1      24.246   4.987  50.383  1.00  0.00     0.021 A 
HETATM    3  C4  UNL     1      22.941   5.194  49.972  1.00  0.00     0.039 A 
HETATM    4  C5  UNL     1      22.276   4.264  49.206  1.00  0.00     0.084 A 
HETATM    5  C6  UNL     1      22.852   3.083  48.798  1.00  0.00    -0.006 A 
HETATM    6  C7  UNL     1      24.160   2.817  49.179  1.00  0.00     0.029 A 
HETATM    7  C8  UNL     1      22.133   2.094  47.967  1.00  0.00     0.160 C 
HETATM    8  N1  UNL     1      20.769   1.919  48.376  1.00  0.00    -0.391 N 
HETATM    9  C9  UNL     1      20.372   1.475  49.652  1.00  0.00     0.134 C 
HETATM   10  C10 UNL     1      19.949   1.167  50.856  1.00  0.00     0.144 C 
HETATM   11  N3  UNL     1      19.169   2.008  51.708  1.00  0.00    -0.223 NA
HETATM   12  C17 UNL     1      19.215   3.292  51.711  1.00  0.00     0.237 C 
HETATM   13  N4  UNL     1      20.177   3.502  50.714  1.00  0.00    -0.230 NA
HETATM   14  C18 UNL     1      19.953   4.393  49.783  1.00  0.00     0.260 C 
HETATM   15  O3  UNL     1      20.971   4.531  48.828  1.00  0.00    -0.303 OA
HETATM   16  H7  UNL     1      19.876   2.081  47.830  1.00  0.00     0.159 HD
ENDROOT
BRANCH  10  17
HETATM   17  N2  UNL     1      19.954   0.122  51.832  1.00  0.00    -0.340 N 
HETATM   18  H9  UNL     1      19.080  -0.473  51.957  1.00  0.00     0.167 HD
BRANCH  17  19
HETATM   19  C11 UNL     1      21.094  -0.142  52.638  1.00  0.00     0.035 A 
HETATM   20  C12 UNL     1      21.019  -0.856  53.810  1.00  0.00     0.032 A 
HETATM   21  C13 UNL     1      22.121  -1.115  54.597  1.00  0.00     0.046 A 
HETATM   22  C14 UNL     1      23.387  -0.650  54.221  1.00  0.00     0.138 A 
HETATM   23  F1  UNL     1      24.468  -0.888  54.965  1.00  0.00    -0.204 F 
HETATM   24  C15 UNL     1      23.418   0.067  53.032  1.00  0.00     0.074 A 
HETATM   25 CL1  UNL     1      25.020   0.646  52.572  1.00  0.00    -0.081 Cl
HETATM   26  C16 UNL     1      22.321   0.335  52.233  1.00  0.00     0.056 A 
ENDBRANCH  17  19
ENDBRANCH  10  17
BRANCH   1  27
HETATM   27  C1  UNL     1      26.135   3.551  50.358  1.00  0.00     0.176 C 
HETATM   28  O1  UNL     1      27.123   3.675  49.563  1.00  0.00    -0.646 OA
BRANCH  27  29
HETATM   29  O2  UNL     1      27.097   3.210  51.279  1.00  0.00    -0.773 OA
HETATM   30  H1  UNL     1      27.439   2.269  51.411  1.00  0.00     0.167 HD
ENDBRANCH  27  29
ENDBRANCH   1  27
TORSDOF 4
ENDMDL
MODEL 4
REMARK VINA RESULT:      -8.4      3.990      6.044
REMARK  4 active torsions:
REMARK  status: ('A' for Active; 'I' for Inactive)
REMARK    1  A    between atoms: C1_2  and  O2_3 
REMARK    2  A    between atoms: C1_2  and  C2_4 
REMARK    3  A    between atoms: C10_13  and  N2_14 
REMARK    4  A    between atoms: N2_14  and  C11_15 
ROOT
HETATM    1  C2  UNL     1      21.730   3.306  49.364  1.00  0.00     0.038 A 
HETATM    2  C3  UNL     1      22.708   3.161  48.412  1.00  0.00     0.021 A 
HETATM    3  C4  UNL     1      23.969   3.485  48.882  1.00  0.00     0.039 A 
HETATM    4  C5  UNL     1      24.163   3.902  50.179  1.00  0.00     0.084 A 
HETATM    5  C6  UNL     1      23.136   4.026  51.086  1.00  0.00    -0.006 A 
HETATM    6  C7  UNL     1      21.847   3.715  50.674  1.00  0.00     0.029 A 
HETATM    7  C8  UNL     1      23.354   4.484  52.474  1.00  0.00     0.160 C 
HETATM    8  N1  UNL     1      24.531   3.913  53.064  1.00  0.00    -0.391 N 
HETATM    9  C9  UNL     1      24.741   2.533  53.244  1.00  0.00     0.134 C 
HETATM   10  C10 UNL     1      25.030   1.256  53.337  1.00  0.00     0.144 C 
HETATM   11  N3  UNL     1      26.113   0.594  52.681  1.00  0.00    -0.223 NA
HETATM   12  C17 UNL     1      26.607   0.945  51.547  1.00  0.00     0.237 C 
HETATM   13  N4  UNL     1      25.794   2.049  51.261  1.00  0.00    -0.230 NA
HETATM   14  C18 UNL     1      26.344   3.161  50.847  1.00  0.00     0.260 C 
HETATM   15  O3  UNL     1      25.450   4.211  50.587  1.00  0.00    -0.303 OA
HETATM   16  H7  UNL     1      25.394   4.395  53.444  1.00  0.00     0.159 HD
ENDROOT
BRANCH  10  17
HETATM   17  N2  UNL     1      24.616   0.037  53.960  1.00  0.00    -0.340 N 
HETATM   18  H9  UNL     1      25.341  -0.557  54.467  1.00  0.00     0.167 HD
BRANCH  17  19
HETATM   19  C11 UNL     1      23.265  -0.401  53.921  1.00  0.00     0.035 A 
HETATM   20  C12 UNL     1      22.750  -1.286  54.839  1.00  0.00     0.032 A 
HETATM   21  C13 UNL     1      21.441  -1.715  54.806  1.00  0.00     0.046 A 
HETATM   22  C14 UNL     1      20.567  -1.253  53.815  1.00  0.00     0.138 A 
HETATM   23  F1  UNL     1      19.295  -1.653  53.763  1.00  0.00    -0.204 F 
HETATM   24  C15 UNL     1      21.127  -0.362  52.909  1.00  0.00     0.074 A 
HETATM   25 CL1  UNL     1      20.013   0.211  51.666  1.00  0.00    -0.081 Cl
HETATM   26  C16 UNL     1      22.439   0.077  52.929  1.00  0.00     0.056 A 
ENDBRANCH  17  19
ENDBRANCH  10  17
BRANCH   1  27
HETATM   27  C1  UNL     1      20.392   2.975  48.895  1.00  0.00     0.176 C 
HETATM   28  O1  UNL     1      19.417   3.791  48.974  1.00  0.00    -0.646 OA
BRANCH  27  29
HETATM   29  O2  UNL     1      19.464   2.136  48.326  1.00  0.00    -0.773 OA
HETATM   30  H1  UNL     1      19.157   2.206  47.366  1.00  0.00     0.167 HD
ENDBRANCH  27  29
ENDBRANCH   1  27
TORSDOF 4
ENDMDL
MODEL 5
REMARK VINA RESULT:      -8.2      3.147      4.030
REMARK  4 active torsions:
REMARK  status: ('A' for Active; 'I' for Inactive)
REMARK    1  A    between atoms: C1_2  and  O2_3 
REMARK    2  A    between atoms: C1_2  and  C2_4 
REMARK    3  A    between atoms: C10_13  and  N2_14 
REMARK    4  A    between atoms: N2_14  and  C11_15 
ROOT
HETATM    1  C2  UNL     1      24.634   4.394  49.444  1.00  0.00     0.038 A 
HETATM    2  C3  UNL     1      23.908   5.411  50.013  1.00  0.00     0.021 A 
HETATM    3  C4  UNL     1      22.543   5.186  49.971  1.00  0.00     0.039 A 
HETATM    4  C5  UNL     1      22.023   4.043  49.407  1.00  0.00     0.084 A 
HETATM    5  C6  UNL     1      22.810   3.059  48.853  1.00  0.00    -0.006 A 
HETATM    6  C7  UNL     1      24.188   3.227  48.865  1.00  0.00     0.029 A 
HETATM    7  C8  UNL     1      22.241   1.839  48.242  1.00  0.00     0.160 C 
HETATM    8  N1  UNL     1      21.153   1.297  49.004  1.00  0.00    -0.391 N 
HETATM    9  C9  UNL     1      21.257   0.856  50.336  1.00  0.00     0.134 C 
HETATM   10  C10 UNL     1      21.276   0.532  51.608  1.00  0.00     0.144 C 
HETATM   11  N3  UNL     1      20.523   1.166  52.644  1.00  0.00    -0.223 NA
HETATM   12  C17 UNL     1      20.170   2.402  52.641  1.00  0.00     0.237 C 
HETATM   13  N4  UNL     1      20.727   2.810  51.422  1.00  0.00    -0.230 NA
HETATM   14  C18 UNL     1      20.006   3.518  50.592  1.00  0.00     0.260 C 
HETATM   15  O3  UNL     1      20.649   3.878  49.398  1.00  0.00    -0.303 OA
HETATM   16  H7  UNL     1      20.144   1.142  48.719  1.00  0.00     0.159 HD
ENDROOT
BRANCH  10  17
HETATM   17  N2  UNL     1      21.856  -0.384  52.541  1.00  0.00    -0.340 N 
HETATM   18  H9  UNL     1      21.290  -1.230  52.855  1.00  0.00     0.167 HD
BRANCH  17  19
HETATM   19  C11 UNL     1      23.165  -0.195  53.058  1.00  0.00     0.035 A 
HETATM   20  C12 UNL     1      23.614  -0.844  54.184  1.00  0.00     0.032 A 
HETATM   21  C13 UNL     1      24.883  -0.664  54.691  1.00  0.00     0.046 A 
HETATM   22  C14 UNL     1      25.783   0.206  54.063  1.00  0.00     0.138 A 
HETATM   23  F1  UNL     1      27.016   0.396  54.534  1.00  0.00    -0.204 F 
HETATM   24  C15 UNL     1      25.289   0.841  52.930  1.00  0.00     0.074 A 
HETATM   25 CL1  UNL     1      26.434   1.933  52.150  1.00  0.00    -0.081 Cl
HETATM   26  C16 UNL     1      24.018   0.671  52.411  1.00  0.00     0.056 A 
ENDBRANCH  17  19
ENDBRANCH  10  17
BRANCH   1  27
HETATM   27  C1  UNL     1      26.074   4.607  49.470  1.00  0.00     0.176 C 
HETATM   28  O1  UNL     1      26.613   5.696  49.087  1.00  0.00    -0.646 OA
BRANCH  27  29
HETATM   29  O2  UNL     1      27.368   4.216  49.720  1.00  0.00    -0.773 OA
HETATM   30  H1  UNL     1      28.135   4.862  49.845  1.00  0.00     0.167 HD
ENDBRANCH  27  29
ENDBRANCH   1  27
TORSDOF 4
ENDMDL
MODEL 6
REMARK VINA RESULT:      -7.9      7.048      9.246
REMARK  4 active torsions:
REMARK  status: ('A' for Active; 'I' for Inactive)
REMARK    1  A    between atoms: C1_2  and  O2_3 
REMARK    2  A    between atoms: C1_2  and  C2_4 
REMARK    3  A    between atoms: C10_13  and  N2_14 
REMARK    4  A    between atoms: N2_14  and  C11_15 
ROOT
HETATM    1  C2  UNL     1      14.663   2.697  52.781  1.00  0.00     0.038 A 
HETATM    2  C3  UNL     1      13.836   1.619  52.983  1.00  0.00     0.021 A 
HETATM    3  C4  UNL     1      14.270   0.478  52.330  1.00  0.00     0.039 A 
HETATM    4  C5  UNL     1      15.419   0.481  51.573  1.00  0.00     0.084 A 
HETATM    5  C6  UNL     1      16.205   1.599  51.411  1.00  0.00    -0.006 A 
HETATM    6  C7  UNL     1      15.822   2.775  52.041  1.00  0.00     0.029 A 
HETATM    7  C8  UNL     1      17.433   1.594  50.588  1.00  0.00     0.160 C 
HETATM    8  N1  UNL     1      18.214   0.405  50.772  1.00  0.00    -0.391 N 
HETATM    9  C9  UNL     1      18.764  -0.003  52.002  1.00  0.00     0.134 C 
HETATM   10  C10 UNL     1      19.207  -0.481  53.141  1.00  0.00     0.144 C 
HETATM   11  N3  UNL     1      18.808  -1.714  53.742  1.00  0.00    -0.223 NA
HETATM   12  C17 UNL     1      17.650  -2.255  53.605  1.00  0.00     0.237 C 
HETATM   13  N4  UNL     1      17.038  -1.309  52.772  1.00  0.00    -0.230 NA
HETATM   14  C18 UNL     1      16.375  -1.713  51.720  1.00  0.00     0.260 C 
HETATM   15  O3  UNL     1      15.799  -0.693  50.946  1.00  0.00    -0.303 OA
HETATM   16  H7  UNL     1      18.499  -0.329  50.063  1.00  0.00     0.159 HD
ENDROOT
BRANCH  10  17
HETATM   17  N2  UNL     1      20.107  -0.206  54.218  1.00  0.00    -0.340 N 
HETATM   18  H9  UNL     1      19.709   0.044  55.174  1.00  0.00     0.167 HD
BRANCH  17  19
HETATM   19  C11 UNL     1      21.516  -0.260  54.046  1.00  0.00     0.035 A 
HETATM   20  C12 UNL     1      22.324  -1.062  54.818  1.00  0.00     0.032 A 
HETATM   21  C13 UNL     1      23.691  -1.118  54.656  1.00  0.00     0.046 A 
HETATM   22  C14 UNL     1      24.322  -0.343  53.675  1.00  0.00     0.138 A 
HETATM   23  F1  UNL     1      25.645  -0.381  53.499  1.00  0.00    -0.204 F 
HETATM   24  C15 UNL     1      23.471   0.451  52.918  1.00  0.00     0.074 A 
HETATM   25 CL1  UNL     1      24.281   1.421  51.687  1.00  0.00    -0.081 Cl
HETATM   26  C16 UNL     1      22.098   0.518  53.070  1.00  0.00     0.056 A 
ENDBRANCH  17  19
ENDBRANCH  10  17
BRANCH   1  27
HETATM   27  C1  UNL     1      14.227   3.912  53.452  1.00  0.00     0.176 C 
HETATM   28  O1  UNL     1      13.213   4.582  53.068  1.00  0.00    -0.646 OA
BRANCH  27  29
HETATM   29  O2  UNL     1      14.325   4.881  54.422  1.00  0.00    -0.773 OA
HETATM   30  H1  UNL     1      14.283   5.873  54.232  1.00  0.00     0.167 HD
ENDBRANCH  27  29
ENDBRANCH   1  27
TORSDOF 4
ENDMDL
MODEL 7
REMARK VINA RESULT:      -7.9      4.452      7.396
REMARK  4 active torsions:
REMARK  status: ('A' for Active; 'I' for Inactive)
REMARK    1  A    between atoms: C1_2  and  O2_3 
REMARK    2  A    between atoms: C1_2  and  C2_4 
REMARK    3  A    between atoms: C10_13  and  N2_14 
REMARK    4  A    between atoms: N2_14  and  C11_15 
ROOT
HETATM    1  C2  UNL     1      25.368   0.658  53.607  1.00  0.00     0.038 A 
HETATM    2  C3  UNL     1      24.382  -0.106  53.034  1.00  0.00     0.021 A 
HETATM    3  C4  UNL     1      23.311   0.646  52.583  1.00  0.00     0.039 A 
HETATM    4  C5  UNL     1      23.292   2.015  52.718  1.00  0.00     0.084 A 
HETATM    5  C6  UNL     1      24.317   2.723  53.304  1.00  0.00    -0.006 A 
HETATM    6  C7  UNL     1      25.419   2.024  53.777  1.00  0.00     0.029 A 
HETATM    7  C8  UNL     1      24.282   4.193  53.453  1.00  0.00     0.160 C 
HETATM    8  N1  UNL     1      23.765   4.853  52.288  1.00  0.00    -0.391 N 
HETATM    9  C9  UNL     1      24.339   4.768  51.006  1.00  0.00     0.134 C 
HETATM   10  C10 UNL     1      24.772   4.636  49.774  1.00  0.00     0.144 C 
HETATM   11  N3  UNL     1      24.041   4.064  48.687  1.00  0.00    -0.223 NA
HETATM   12  C17 UNL     1      23.152   3.143  48.807  1.00  0.00     0.237 C 
HETATM   13  N4  UNL     1      23.184   2.956  50.195  1.00  0.00    -0.230 NA
HETATM   14  C18 UNL     1      22.060   2.898  50.861  1.00  0.00     0.260 C 
HETATM   15  O3  UNL     1      22.192   2.710  52.245  1.00  0.00    -0.303 OA
HETATM   16  H7  UNL     1      22.917   5.480  52.191  1.00  0.00     0.159 HD
ENDROOT
BRANCH  10  17
HETATM   17  N2  UNL     1      25.895   4.896  48.928  1.00  0.00    -0.340 N 
HETATM   18  H9  UNL     1      26.211   4.145  48.242  1.00  0.00     0.167 HD
BRANCH  17  19
HETATM   19  C11 UNL     1      26.598   6.130  48.977  1.00  0.00     0.035 A 
HETATM   20  C12 UNL     1      26.114   7.228  49.649  1.00  0.00     0.032 A 
HETATM   21  C13 UNL     1      26.791   8.427  49.700  1.00  0.00     0.046 A 
HETATM   22  C14 UNL     1      28.026   8.574  49.057  1.00  0.00     0.138 A 
HETATM   23  F1  UNL     1      28.700   9.725  49.093  1.00  0.00    -0.204 F 
HETATM   24  C15 UNL     1      28.478   7.442  48.391  1.00  0.00     0.074 A 
HETATM   25 CL1  UNL     1      30.035   7.643  47.586  1.00  0.00    -0.081 Cl
HETATM   26  C16 UNL     1      27.809   6.233  48.331  1.00  0.00     0.056 A 
ENDBRANCH  17  19
ENDBRANCH  10  17
BRANCH   1  27
HETATM   27  C1  UNL     1      26.504  -0.109  54.095  1.00  0.00     0.176 C 
HETATM   28  O1  UNL     1      26.815  -1.250  53.622  1.00  0.00    -0.646 OA
BRANCH  27  29
HETATM   29  O2  UNL     1      27.591  -0.306  54.914  1.00  0.00    -0.773 OA
HETATM   30  H1  UNL     1      28.502  -0.588  54.579  1.00  0.00     0.167 HD
ENDBRANCH  27  29
ENDBRANCH   1  27
TORSDOF 4
ENDMDL
MODEL 8
REMARK VINA RESULT:      -7.9      1.681      2.056
REMARK  4 active torsions:
REMARK  status: ('A' for Active; 'I' for Inactive)
REMARK    1  A    between atoms: C1_2  and  O2_3 
REMARK    2  A    between atoms: C1_2  and  C2_4 
REMARK    3  A    between atoms: C10_13  and  N2_14 
REMARK    4  A    between atoms: N2_14  and  C11_15 
ROOT
HETATM    1  C2  UNL     1      26.760   6.727  49.005  1.00  0.00     0.038 A 
HETATM    2  C3  UNL     1      25.930   7.702  49.500  1.00  0.00     0.021 A 
HETATM    3  C4  UNL     1      24.666   7.229  49.808  1.00  0.00     0.039 A 
HETATM    4  C5  UNL     1      24.332   5.907  49.620  1.00  0.00     0.084 A 
HETATM    5  C6  UNL     1      25.215   4.978  49.119  1.00  0.00    -0.006 A 
HETATM    6  C7  UNL     1      26.498   5.392  48.791  1.00  0.00     0.029 A 
HETATM    7  C8  UNL     1      24.843   3.562  48.912  1.00  0.00     0.160 C 
HETATM    8  N1  UNL     1      24.057   3.035  49.990  1.00  0.00    -0.391 N 
HETATM    9  C9  UNL     1      24.488   2.964  51.328  1.00  0.00     0.134 C 
HETATM   10  C10 UNL     1      24.801   2.972  52.603  1.00  0.00     0.144 C 
HETATM   11  N3  UNL     1      24.114   3.693  53.628  1.00  0.00    -0.223 NA
HETATM   12  C17 UNL     1      23.493   4.804  53.450  1.00  0.00     0.237 C 
HETATM   13  N4  UNL     1      23.722   4.994  52.081  1.00  0.00    -0.230 NA
HETATM   14  C18 UNL     1      22.726   5.331  51.304  1.00  0.00     0.260 C 
HETATM   15  O3  UNL     1      23.052   5.497  49.949  1.00  0.00    -0.303 OA
HETATM   16  H7  UNL     1      23.077   2.633  49.974  1.00  0.00     0.159 HD
ENDROOT
BRANCH  10  17
HETATM   17  N2  UNL     1      25.728   2.437  53.552  1.00  0.00    -0.340 N 
HETATM   18  H9  UNL     1      25.963   3.004  54.422  1.00  0.00     0.167 HD
BRANCH  17  19
HETATM   19  C11 UNL     1      26.341   1.169  53.364  1.00  0.00     0.035 A 
HETATM   20  C12 UNL     1      25.623   0.045  53.029  1.00  0.00     0.032 A 
HETATM   21  C13 UNL     1      26.212  -1.187  52.845  1.00  0.00     0.046 A 
HETATM   22  C14 UNL     1      27.595  -1.343  52.996  1.00  0.00     0.138 A 
HETATM   23  F1  UNL     1      28.189  -2.525  52.823  1.00  0.00    -0.204 F 
HETATM   24  C15 UNL     1      28.282  -0.184  53.334  1.00  0.00     0.074 A 
HETATM   25 CL1  UNL     1      30.024  -0.396  53.520  1.00  0.00    -0.081 Cl
HETATM   26  C16 UNL     1      27.704   1.059  53.522  1.00  0.00     0.056 A 
ENDBRANCH  17  19
ENDBRANCH  10  17
BRANCH   1  27
HETATM   27  C1  UNL     1      28.094   7.199  48.668  1.00  0.00     0.176 C 
HETATM   28  O1  UNL     1      28.730   6.784  47.645  1.00  0.00    -0.646 OA
BRANCH  27  29
HETATM   29  O2  UNL     1      29.215   7.965  48.882  1.00  0.00    -0.773 OA
HETATM   30  H1  UNL     1      30.147   7.686  48.607  1.00  0.00     0.167 HD
ENDBRANCH  27  29
ENDBRANCH   1  27
TORSDOF 4
ENDMDL
MODEL 9
REMARK VINA RESULT:      -7.7      2.257      2.978
REMARK  4 active torsions:
REMARK  status: ('A' for Active; 'I' for Inactive)
REMARK    1  A    between atoms: C1_2  and  O2_3 
REMARK    2  A    between atoms: C1_2  and  C2_4 
REMARK    3  A    between atoms: C10_13  and  N2_14 
REMARK    4  A    between atoms: N2_14  and  C11_15 
ROOT
HETATM    1  C2  UNL     1      26.338   7.288  48.993  1.00  0.00     0.038 A 
HETATM    2  C3  UNL     1      26.042   8.058  50.091  1.00  0.00     0.021 A 
HETATM    3  C4  UNL     1      24.685   8.116  50.358  1.00  0.00     0.039 A 
HETATM    4  C5  UNL     1      23.773   7.449  49.573  1.00  0.00     0.084 A 
HETATM    5  C6  UNL     1      24.137   6.691  48.484  1.00  0.00    -0.006 A 
HETATM    6  C7  UNL     1      25.484   6.594  48.164  1.00  0.00     0.029 A 
HETATM    7  C8  UNL     1      23.147   5.986  47.641  1.00  0.00     0.160 C 
HETATM    8  N1  UNL     1      22.112   5.362  48.414  1.00  0.00    -0.391 N 
HETATM    9  C9  UNL     1      22.334   4.367  49.384  1.00  0.00     0.134 C 
HETATM   10  C10 UNL     1      22.497   3.517  50.371  1.00  0.00     0.144 C 
HETATM   11  N3  UNL     1      22.155   3.748  51.739  1.00  0.00    -0.223 NA
HETATM   12  C17 UNL     1      22.167   4.898  52.313  1.00  0.00     0.237 C 
HETATM   13  N4  UNL     1      22.580   5.699  51.240  1.00  0.00    -0.230 NA
HETATM   14  C18 UNL     1      21.945   6.814  50.989  1.00  0.00     0.260 C 
HETATM   15  O3  UNL     1      22.430   7.547  49.895  1.00  0.00    -0.303 OA
HETATM   16  H7  UNL     1      21.066   5.526  48.393  1.00  0.00     0.159 HD
ENDROOT
BRANCH  10  17
HETATM   17  N2  UNL     1      22.960   2.198  50.673  1.00  0.00    -0.340 N 
HETATM   18  H9  UNL     1      22.314   1.370  50.497  1.00  0.00     0.167 HD
BRANCH  17  19
HETATM   19  C11 UNL     1      24.259   1.965  51.200  1.00  0.00     0.035 A 
HETATM   20  C12 UNL     1      25.368   2.645  50.756  1.00  0.00     0.032 A 
HETATM   21  C13 UNL     1      26.630   2.423  51.263  1.00  0.00     0.046 A 
HETATM   22  C14 UNL     1      26.833   1.476  52.273  1.00  0.00     0.138 A 
HETATM   23  F1  UNL     1      28.046   1.244  52.781  1.00  0.00    -0.204 F 
HETATM   24  C15 UNL     1      25.688   0.812  52.693  1.00  0.00     0.074 A 
HETATM   25 CL1  UNL     1      25.960  -0.379  53.966  1.00  0.00    -0.081 Cl
HETATM   26  C16 UNL     1      24.416   1.023  52.193  1.00  0.00     0.056 A 
ENDBRANCH  17  19
ENDBRANCH  10  17
BRANCH   1  27
HETATM   27  C1  UNL     1      27.758   7.214  48.686  1.00  0.00     0.176 C 
HETATM   28  O1  UNL     1      28.198   7.109  47.495  1.00  0.00    -0.646 OA
BRANCH  27  29
HETATM   29  O2  UNL     1      29.089   7.193  49.031  1.00  0.00    -0.773 OA
HETATM   30  H1  UNL     1      29.797   6.699  48.506  1.00  0.00     0.167 HD
ENDBRANCH  27  29
ENDBRANCH   1  27
TORSDOF 4
ENDMDL
