MODEL 1
REMARK VINA RESULT:      -8.4      0.000      0.000
REMARK  9 active torsions:
REMARK  status: ('A' for Active; 'I' for Inactive)
REMARK    1  A    between atoms: C2_2  and  N1_11 
REMARK    2  A    between atoms: C3_3  and  C4_4 
REMARK    3  A    between atoms: C4_4  and  C5_5 
REMARK    4  A    between atoms: C5_5  and  C6_6 
REMARK    5  A    between atoms: C6_6  and  C7_7 
REMARK       I    between atoms: N1_11  and  C8_12 
REMARK    6  A    between atoms: C8_12  and  C9_14 
REMARK    7  A    between atoms: C14_19  and  N2_20 
REMARK    8  A    between atoms: N2_20  and  C15_21 
REMARK    9  A    between atoms: C15_21  and  C16_22 
ROOT
HETATM    1  C9  UNL     1      23.065   0.866  52.898  1.00  0.00     0.058 A 
HETATM    2  C10 UNL     1      21.687   1.080  53.088  1.00  0.00     0.019 A 
HETATM    3  C11 UNL     1      21.079   0.231  53.987  1.00  0.00     0.001 A 
HETATM    4  C12 UNL     1      21.681  -0.765  54.685  1.00  0.00     0.002 A 
HETATM    5  C13 UNL     1      23.050  -1.012  54.521  1.00  0.00     0.030 A 
HETATM    6  C14 UNL     1      23.681  -0.165  53.612  1.00  0.00     0.044 A 
ENDROOT
BRANCH   1   7
HETATM    7  C8  UNL     1      23.658   1.928  52.076  1.00  0.00     0.258 C 
HETATM    8  N1  UNL     1      23.514   1.975  50.664  1.00  0.00    -0.327 N 
HETATM    9  H9  UNL     1      23.015   1.254  50.115  1.00  0.00     0.169 HD
HETATM   10  O1  UNL     1      24.233   2.661  52.892  1.00  0.00    -0.267 OA
BRANCH   8  11
HETATM   11  C2  UNL     1      24.190   3.170  50.297  1.00  0.00     0.008 C 
HETATM   12  C1  UNL     1      23.727   4.563  50.100  1.00  0.00     0.068 C 
HETATM   13  C3  UNL     1      25.422   3.201  49.974  1.00  0.00     0.024 C 
BRANCH  13  14
HETATM   14  C4  UNL     1      26.703   3.772  49.508  1.00  0.00    -0.002 C 
BRANCH  14  15
HETATM   15  C5  UNL     1      26.901   4.918  48.916  1.00  0.00    -0.018 C 
BRANCH  15  16
HETATM   16  C6  UNL     1      27.157   6.313  48.520  1.00  0.00     0.144 C 
BRANCH  16  17
HETATM   17  C7  UNL     1      28.592   6.471  47.993  1.00  0.00     0.390 C 
HETATM   18  F1  UNL     1      29.225   5.251  47.837  1.00  0.00    -0.171 F 
HETATM   19  F2  UNL     1      29.244   7.301  48.894  1.00  0.00    -0.171 F 
HETATM   20  F3  UNL     1      28.508   7.045  46.732  1.00  0.00    -0.171 F 
ENDBRANCH  16  17
ENDBRANCH  15  16
ENDBRANCH  14  15
ENDBRANCH  13  14
ENDBRANCH   8  11
ENDBRANCH   1   7
BRANCH   6  21
HETATM   21  N2  UNL     1      24.939  -0.295  53.040  1.00  0.00    -0.385 N 
HETATM   22  H14 UNL     1      25.407  -0.833  53.850  1.00  0.00     0.160 HD
BRANCH  21  23
HETATM   23  C15 UNL     1      26.274  -0.433  52.434  1.00  0.00     0.158 C 
BRANCH  23  24
HETATM   24  C16 UNL     1      27.266   0.400  53.129  1.00  0.00    -0.038 A 
HETATM   25  C17 UNL     1      27.511   1.686  52.668  1.00  0.00     0.028 A 
HETATM   26  C18 UNL     1      28.444   2.353  53.421  1.00  0.00     0.116 A 
HETATM   27  N3  UNL     1      29.086   1.857  54.500  1.00  0.00    -0.273 NA
HETATM   28  C19 UNL     1      28.809   0.579  54.919  1.00  0.00     0.116 A 
HETATM   29  C20 UNL     1      27.885  -0.171  54.231  1.00  0.00     0.028 A 
ENDBRANCH  23  24
ENDBRANCH  21  23
ENDBRANCH   6  21
TORSDOF 9
ENDMDL
MODEL 2
REMARK VINA RESULT:      -8.4      1.295      1.733
REMARK  9 active torsions:
REMARK  status: ('A' for Active; 'I' for Inactive)
REMARK    1  A    between atoms: C2_2  and  N1_11 
REMARK    2  A    between atoms: C3_3  and  C4_4 
REMARK    3  A    between atoms: C4_4  and  C5_5 
REMARK    4  A    between atoms: C5_5  and  C6_6 
REMARK    5  A    between atoms: C6_6  and  C7_7 
REMARK       I    between atoms: N1_11  and  C8_12 
REMARK    6  A    between atoms: C8_12  and  C9_14 
REMARK    7  A    between atoms: C14_19  and  N2_20 
REMARK    8  A    between atoms: N2_20  and  C15_21 
REMARK    9  A    between atoms: C15_21  and  C16_22 
ROOT
HETATM    1  C9  UNL     1      22.977   0.784  52.820  1.00  0.00     0.058 A 
HETATM    2  C10 UNL     1      21.591   0.926  53.023  1.00  0.00     0.019 A 
HETATM    3  C11 UNL     1      21.058   0.136  54.016  1.00  0.00     0.001 A 
HETATM    4  C12 UNL     1      21.736  -0.745  54.794  1.00  0.00     0.002 A 
HETATM    5  C13 UNL     1      23.116  -0.919  54.621  1.00  0.00     0.030 A 
HETATM    6  C14 UNL     1      23.672  -0.129  53.618  1.00  0.00     0.044 A 
ENDROOT
BRANCH   1   7
HETATM    7  C8  UNL     1      23.483   1.793  51.883  1.00  0.00     0.258 C 
HETATM    8  N1  UNL     1      24.150   2.971  52.312  1.00  0.00    -0.327 N 
HETATM    9  H9  UNL     1      24.296   3.217  53.306  1.00  0.00     0.169 HD
HETATM   10  O1  UNL     1      23.188   1.348  50.766  1.00  0.00    -0.267 OA
BRANCH   8  11
HETATM   11  C2  UNL     1      24.503   3.619  51.097  1.00  0.00     0.008 C 
HETATM   12  C1  UNL     1      23.766   4.545  50.206  1.00  0.00     0.068 C 
HETATM   13  C3  UNL     1      25.605   3.413  50.493  1.00  0.00     0.024 C 
BRANCH  13  14
HETATM   14  C4  UNL     1      26.626   3.519  49.430  1.00  0.00    -0.002 C 
BRANCH  14  15
HETATM   15  C5  UNL     1      27.132   4.604  48.911  1.00  0.00    -0.018 C 
BRANCH  15  16
HETATM   16  C6  UNL     1      27.544   5.965  48.527  1.00  0.00     0.144 C 
BRANCH  16  17
HETATM   17  C7  UNL     1      26.402   6.964  48.771  1.00  0.00     0.390 C 
HETATM   18  F1  UNL     1      26.716   8.233  48.318  1.00  0.00    -0.171 F 
HETATM   19  F2  UNL     1      26.145   6.931  50.135  1.00  0.00    -0.171 F 
HETATM   20  F3  UNL     1      25.311   6.531  48.031  1.00  0.00    -0.171 F 
ENDBRANCH  16  17
ENDBRANCH  15  16
ENDBRANCH  14  15
ENDBRANCH  13  14
ENDBRANCH   8  11
ENDBRANCH   1   7
BRANCH   6  21
HETATM   21  N2  UNL     1      24.926  -0.235  53.030  1.00  0.00    -0.385 N 
HETATM   22  H14 UNL     1      24.597  -0.557  52.055  1.00  0.00     0.160 HD
BRANCH  21  23
HETATM   23  C15 UNL     1      26.255  -0.347  52.406  1.00  0.00     0.158 C 
BRANCH  23  24
HETATM   24  C16 UNL     1      27.274   0.375  53.182  1.00  0.00    -0.038 A 
HETATM   25  C17 UNL     1      27.919  -0.277  54.222  1.00  0.00     0.028 A 
HETATM   26  C18 UNL     1      28.855   0.510  54.845  1.00  0.00     0.116 A 
HETATM   27  N3  UNL     1      29.152   1.787  54.521  1.00  0.00    -0.273 NA
HETATM   28  C19 UNL     1      28.486   2.390  53.483  1.00  0.00     0.116 A 
HETATM   29  C20 UNL     1      27.530   1.682  52.794  1.00  0.00     0.028 A 
ENDBRANCH  23  24
ENDBRANCH  21  23
ENDBRANCH   6  21
TORSDOF 9
ENDMDL
MODEL 3
REMARK VINA RESULT:      -7.9      2.217      2.615
REMARK  9 active torsions:
REMARK  status: ('A' for Active; 'I' for Inactive)
REMARK    1  A    between atoms: C2_2  and  N1_11 
REMARK    2  A    between atoms: C3_3  and  C4_4 
REMARK    3  A    between atoms: C4_4  and  C5_5 
REMARK    4  A    between atoms: C5_5  and  C6_6 
REMARK    5  A    between atoms: C6_6  and  C7_7 
REMARK       I    between atoms: N1_11  and  C8_12 
REMARK    6  A    between atoms: C8_12  and  C9_14 
REMARK    7  A    between atoms: C14_19  and  N2_20 
REMARK    8  A    between atoms: N2_20  and  C15_21 
REMARK    9  A    between atoms: C15_21  and  C16_22 
ROOT
HETATM    1  C9  UNL     1      22.852   0.633  52.934  1.00  0.00     0.058 A 
HETATM    2  C10 UNL     1      21.479   0.562  53.238  1.00  0.00     0.019 A 
HETATM    3  C11 UNL     1      21.146  -0.309  54.252  1.00  0.00     0.001 A 
HETATM    4  C12 UNL     1      22.005  -1.083  54.962  1.00  0.00     0.002 A 
HETATM    5  C13 UNL     1      23.378  -1.045  54.687  1.00  0.00     0.030 A 
HETATM    6  C14 UNL     1      23.734  -0.172  53.662  1.00  0.00     0.044 A 
ENDROOT
BRANCH   1   7
HETATM    7  C8  UNL     1      23.130   1.715  51.983  1.00  0.00     0.258 C 
HETATM    8  N1  UNL     1      22.976   1.560  50.580  1.00  0.00    -0.327 N 
HETATM    9  H9  UNL     1      22.694   0.673  50.129  1.00  0.00     0.169 HD
HETATM   10  O1  UNL     1      23.483   2.664  52.695  1.00  0.00    -0.267 OA
BRANCH   8  11
HETATM   11  C2  UNL     1      23.298   2.844  50.062  1.00  0.00     0.008 C 
HETATM   12  C1  UNL     1      22.464   3.952  49.542  1.00  0.00     0.068 C 
HETATM   13  C3  UNL     1      24.495   3.242  49.883  1.00  0.00     0.024 C 
BRANCH  13  14
HETATM   14  C4  UNL     1      25.594   4.136  49.463  1.00  0.00    -0.002 C 
BRANCH  14  15
HETATM   15  C5  UNL     1      25.729   5.410  49.713  1.00  0.00    -0.018 C 
BRANCH  15  16
HETATM   16  C6  UNL     1      25.598   6.836  50.059  1.00  0.00     0.144 C 
BRANCH  16  17
HETATM   17  C7  UNL     1      24.178   7.142  50.560  1.00  0.00     0.390 C 
HETATM   18  F1  UNL     1      23.780   6.270  51.558  1.00  0.00    -0.171 F 
HETATM   19  F2  UNL     1      23.355   7.090  49.444  1.00  0.00    -0.171 F 
HETATM   20  F3  UNL     1      24.204   8.411  51.122  1.00  0.00    -0.171 F 
ENDBRANCH  16  17
ENDBRANCH  15  16
ENDBRANCH  14  15
ENDBRANCH  13  14
ENDBRANCH   8  11
ENDBRANCH   1   7
BRANCH   6  21
HETATM   21  N2  UNL     1      24.942  -0.081  52.984  1.00  0.00    -0.385 N 
HETATM   22  H14 UNL     1      24.637   0.647  52.249  1.00  0.00     0.160 HD
BRANCH  21  23
HETATM   23  C15 UNL     1      26.223   0.016  52.264  1.00  0.00     0.158 C 
BRANCH  23  24
HETATM   24  C16 UNL     1      27.268   0.612  53.109  1.00  0.00    -0.038 A 
HETATM   25  C17 UNL     1      27.835  -0.148  54.122  1.00  0.00     0.028 A 
HETATM   26  C18 UNL     1      28.807   0.528  54.816  1.00  0.00     0.116 A 
HETATM   27  N3  UNL     1      29.203   1.797  54.581  1.00  0.00    -0.273 NA
HETATM   28  C19 UNL     1      28.614   2.510  53.567  1.00  0.00     0.116 A 
HETATM   29  C20 UNL     1      27.629   1.918  52.811  1.00  0.00     0.028 A 
ENDBRANCH  23  24
ENDBRANCH  21  23
ENDBRANCH   6  21
TORSDOF 9
ENDMDL
MODEL 4
REMARK VINA RESULT:      -7.6      3.716      6.175
REMARK  9 active torsions:
REMARK  status: ('A' for Active; 'I' for Inactive)
REMARK    1  A    between atoms: C2_2  and  N1_11 
REMARK    2  A    between atoms: C3_3  and  C4_4 
REMARK    3  A    between atoms: C4_4  and  C5_5 
REMARK    4  A    between atoms: C5_5  and  C6_6 
REMARK    5  A    between atoms: C6_6  and  C7_7 
REMARK       I    between atoms: N1_11  and  C8_12 
REMARK    6  A    between atoms: C8_12  and  C9_14 
REMARK    7  A    between atoms: C14_19  and  N2_20 
REMARK    8  A    between atoms: N2_20  and  C15_21 
REMARK    9  A    between atoms: C15_21  and  C16_22 
ROOT
HETATM    1  C9  UNL     1      27.008   1.591  52.891  1.00  0.00     0.058 A 
HETATM    2  C10 UNL     1      28.376   1.808  53.139  1.00  0.00     0.019 A 
HETATM    3  C11 UNL     1      28.898   1.114  54.209  1.00  0.00     0.001 A 
HETATM    4  C12 UNL     1      28.222   0.262  55.021  1.00  0.00     0.002 A 
HETATM    5  C13 UNL     1      26.858   0.022  54.810  1.00  0.00     0.030 A 
HETATM    6  C14 UNL     1      26.313   0.718  53.733  1.00  0.00     0.044 A 
ENDROOT
BRANCH   1   7
HETATM    7  C8  UNL     1      26.591   2.217  51.631  1.00  0.00     0.258 C 
HETATM    8  N1  UNL     1      26.199   3.579  51.546  1.00  0.00    -0.327 N 
HETATM    9  H9  UNL     1      26.146   4.212  52.362  1.00  0.00     0.169 HD
HETATM   10  O1  UNL     1      26.684   1.310  50.793  1.00  0.00    -0.267 OA
BRANCH   8  11
HETATM   11  C2  UNL     1      25.932   3.766  50.162  1.00  0.00     0.008 C 
HETATM   12  C1  UNL     1      26.729   4.349  49.059  1.00  0.00     0.068 C 
HETATM   13  C3  UNL     1      24.808   3.494  49.627  1.00  0.00     0.024 C 
BRANCH  13  14
HETATM   14  C4  UNL     1      23.779   3.404  48.571  1.00  0.00    -0.002 C 
BRANCH  14  15
HETATM   15  C5  UNL     1      22.738   2.617  48.532  1.00  0.00    -0.018 C 
BRANCH  15  16
HETATM   16  C6  UNL     1      21.738   1.555  48.333  1.00  0.00     0.144 C 
BRANCH  16  17
HETATM   17  C7  UNL     1      21.039   1.214  49.658  1.00  0.00     0.390 C 
HETATM   18  F1  UNL     1      19.683   1.002  49.492  1.00  0.00    -0.171 F 
HETATM   19  F2  UNL     1      21.315   2.266  50.521  1.00  0.00    -0.171 F 
HETATM   20  F3  UNL     1      21.580   0.019  50.114  1.00  0.00    -0.171 F 
ENDBRANCH  16  17
ENDBRANCH  15  16
ENDBRANCH  14  15
ENDBRANCH  13  14
ENDBRANCH   8  11
ENDBRANCH   1   7
BRANCH   6  21
HETATM   21  N2  UNL     1      24.975   0.902  53.411  1.00  0.00    -0.385 N 
HETATM   22  H14 UNL     1      24.866   0.043  52.767  1.00  0.00     0.160 HD
BRANCH  21  23
HETATM   23  C15 UNL     1      23.556   1.095  53.069  1.00  0.00     0.158 C 
BRANCH  23  24
HETATM   24  C16 UNL     1      22.712   0.053  53.673  1.00  0.00    -0.038 A 
HETATM   25  C17 UNL     1      23.287  -0.861  54.544  1.00  0.00     0.028 A 
HETATM   26  C18 UNL     1      22.381  -1.763  55.044  1.00  0.00     0.116 A 
HETATM   27  N3  UNL     1      21.063  -1.800  54.750  1.00  0.00    -0.273 NA
HETATM   28  C19 UNL     1      20.540  -0.873  53.883  1.00  0.00     0.116 A 
HETATM   29  C20 UNL     1      21.368   0.075  53.330  1.00  0.00     0.028 A 
ENDBRANCH  23  24
ENDBRANCH  21  23
ENDBRANCH   6  21
TORSDOF 9
ENDMDL
MODEL 5
REMARK VINA RESULT:      -7.5      4.346      6.941
REMARK  9 active torsions:
REMARK  status: ('A' for Active; 'I' for Inactive)
REMARK    1  A    between atoms: C2_2  and  N1_11 
REMARK    2  A    between atoms: C3_3  and  C4_4 
REMARK    3  A    between atoms: C4_4  and  C5_5 
REMARK    4  A    between atoms: C5_5  and  C6_6 
REMARK    5  A    between atoms: C6_6  and  C7_7 
REMARK       I    between atoms: N1_11  and  C8_12 
REMARK    6  A    between atoms: C8_12  and  C9_14 
REMARK    7  A    between atoms: C14_19  and  N2_20 
REMARK    8  A    between atoms: N2_20  and  C15_21 
REMARK    9  A    between atoms: C15_21  and  C16_22 
ROOT
HETATM    1  C9  UNL     1      24.359   3.853  50.308  1.00  0.00     0.058 A 
HETATM    2  C10 UNL     1      24.501   5.072  49.619  1.00  0.00     0.019 A 
HETATM    3  C11 UNL     1      25.740   5.291  49.059  1.00  0.00     0.001 A 
HETATM    4  C12 UNL     1      26.806   4.453  49.114  1.00  0.00     0.002 A 
HETATM    5  C13 UNL     1      26.708   3.232  49.794  1.00  0.00     0.030 A 
HETATM    6  C14 UNL     1      25.462   2.995  50.369  1.00  0.00     0.044 A 
ENDROOT
BRANCH   1   7
HETATM    7  C8  UNL     1      22.965   3.624  50.703  1.00  0.00     0.258 C 
HETATM    8  N1  UNL     1      21.998   3.077  49.818  1.00  0.00    -0.327 N 
HETATM    9  H9  UNL     1      22.196   2.835  48.832  1.00  0.00     0.169 HD
HETATM   10  O1  UNL     1      22.915   4.002  51.881  1.00  0.00    -0.267 OA
BRANCH   8  11
HETATM   11  C2  UNL     1      20.825   2.987  50.616  1.00  0.00     0.008 C 
HETATM   12  C1  UNL     1      19.680   3.903  50.820  1.00  0.00     0.068 C 
HETATM   13  C3  UNL     1      20.604   2.025  51.421  1.00  0.00     0.024 C 
BRANCH  13  14
HETATM   14  C4  UNL     1      19.904   1.239  52.459  1.00  0.00    -0.002 C 
BRANCH  14  15
HETATM   15  C5  UNL     1      20.395   0.771  53.574  1.00  0.00    -0.018 C 
BRANCH  15  16
HETATM   16  C6  UNL     1      21.146   0.116  54.659  1.00  0.00     0.144 C 
BRANCH  16  17
HETATM   17  C7  UNL     1      21.584  -1.296  54.238  1.00  0.00     0.390 C 
HETATM   18  F1  UNL     1      22.208  -1.300  53.004  1.00  0.00    -0.171 F 
HETATM   19  F2  UNL     1      20.438  -2.078  54.262  1.00  0.00    -0.171 F 
HETATM   20  F3  UNL     1      22.522  -1.729  55.165  1.00  0.00    -0.171 F 
ENDBRANCH  16  17
ENDBRANCH  15  16
ENDBRANCH  14  15
ENDBRANCH  13  14
ENDBRANCH   8  11
ENDBRANCH   1   7
BRANCH   6  21
HETATM   21  N2  UNL     1      25.110   2.028  51.302  1.00  0.00    -0.385 N 
HETATM   22  H14 UNL     1      24.323   2.582  51.789  1.00  0.00     0.160 HD
BRANCH  21  23
HETATM   23  C15 UNL     1      24.737   1.003  52.291  1.00  0.00     0.158 C 
BRANCH  23  24
HETATM   24  C16 UNL     1      25.925   0.420  52.932  1.00  0.00    -0.038 A 
HETATM   25  C17 UNL     1      26.758  -0.405  52.189  1.00  0.00     0.028 A 
HETATM   26  C18 UNL     1      27.834  -0.861  52.908  1.00  0.00     0.116 A 
HETATM   27  N3  UNL     1      28.098  -0.572  54.200  1.00  0.00    -0.273 NA
HETATM   28  C19 UNL     1      27.244   0.250  54.894  1.00  0.00     0.116 A 
HETATM   29  C20 UNL     1      26.137   0.761  54.260  1.00  0.00     0.028 A 
ENDBRANCH  23  24
ENDBRANCH  21  23
ENDBRANCH   6  21
TORSDOF 9
ENDMDL
MODEL 6
REMARK VINA RESULT:      -7.5      1.825      2.392
REMARK  9 active torsions:
REMARK  status: ('A' for Active; 'I' for Inactive)
REMARK    1  A    between atoms: C2_2  and  N1_11 
REMARK    2  A    between atoms: C3_3  and  C4_4 
REMARK    3  A    between atoms: C4_4  and  C5_5 
REMARK    4  A    between atoms: C5_5  and  C6_6 
REMARK    5  A    between atoms: C6_6  and  C7_7 
REMARK       I    between atoms: N1_11  and  C8_12 
REMARK    6  A    between atoms: C8_12  and  C9_14 
REMARK    7  A    between atoms: C14_19  and  N2_20 
REMARK    8  A    between atoms: N2_20  and  C15_21 
REMARK    9  A    between atoms: C15_21  and  C16_22 
ROOT
HETATM    1  C9  UNL     1      23.555   1.409  51.923  1.00  0.00     0.058 A 
HETATM    2  C10 UNL     1      22.239   1.268  51.445  1.00  0.00     0.019 A 
HETATM    3  C11 UNL     1      21.476   0.323  52.095  1.00  0.00     0.001 A 
HETATM    4  C12 UNL     1      21.875  -0.461  53.128  1.00  0.00     0.002 A 
HETATM    5  C13 UNL     1      23.179  -0.354  53.630  1.00  0.00     0.030 A 
HETATM    6  C14 UNL     1      23.966   0.595  52.982  1.00  0.00     0.044 A 
ENDROOT
BRANCH   1   7
HETATM    7  C8  UNL     1      24.224   2.559  51.303  1.00  0.00     0.258 C 
HETATM    8  N1  UNL     1      24.477   2.638  49.908  1.00  0.00    -0.327 N 
HETATM    9  H9  UNL     1      24.242   1.884  49.240  1.00  0.00     0.169 HD
HETATM   10  O1  UNL     1      24.456   3.324  52.249  1.00  0.00    -0.267 OA
BRANCH   8  11
HETATM   11  C2  UNL     1      25.082   3.914  49.747  1.00  0.00     0.008 C 
HETATM   12  C1  UNL     1      24.574   5.293  49.933  1.00  0.00     0.068 C 
HETATM   13  C3  UNL     1      26.263   4.072  49.297  1.00  0.00     0.024 C 
BRANCH  13  14
HETATM   14  C4  UNL     1      27.465   4.790  48.826  1.00  0.00    -0.002 C 
BRANCH  14  15
HETATM   15  C5  UNL     1      27.548   6.022  48.403  1.00  0.00    -0.018 C 
BRANCH  15  16
HETATM   16  C6  UNL     1      27.640   7.290  47.659  1.00  0.00     0.144 C 
BRANCH  16  17
HETATM   17  C7  UNL     1      26.272   7.991  47.615  1.00  0.00     0.390 C 
HETATM   18  F1  UNL     1      25.241   7.101  47.376  1.00  0.00    -0.171 F 
HETATM   19  F2  UNL     1      26.372   8.971  46.637  1.00  0.00    -0.171 F 
HETATM   20  F3  UNL     1      26.049   8.538  48.871  1.00  0.00    -0.171 F 
ENDBRANCH  16  17
ENDBRANCH  15  16
ENDBRANCH  14  15
ENDBRANCH  13  14
ENDBRANCH   8  11
ENDBRANCH   1   7
BRANCH   6  21
HETATM   21  N2  UNL     1      25.341   0.774  53.057  1.00  0.00    -0.385 N 
HETATM   22  H14 UNL     1      25.398   1.674  52.466  1.00  0.00     0.160 HD
BRANCH  21  23
HETATM   23  C15 UNL     1      26.799   0.964  53.136  1.00  0.00     0.158 C 
BRANCH  23  24
HETATM   24  C16 UNL     1      27.508  -0.325  53.147  1.00  0.00    -0.038 A 
HETATM   25  C17 UNL     1      26.849  -1.462  52.704  1.00  0.00     0.028 A 
HETATM   26  C18 UNL     1      27.635  -2.586  52.753  1.00  0.00     0.116 A 
HETATM   27  N3  UNL     1      28.915  -2.634  53.181  1.00  0.00    -0.273 NA
HETATM   28  C19 UNL     1      29.524  -1.481  53.610  1.00  0.00     0.116 A 
HETATM   29  C20 UNL     1      28.820  -0.301  53.596  1.00  0.00     0.028 A 
ENDBRANCH  23  24
ENDBRANCH  21  23
ENDBRANCH   6  21
TORSDOF 9
ENDMDL
MODEL 7
REMARK VINA RESULT:      -7.4      3.909      6.190
REMARK  9 active torsions:
REMARK  status: ('A' for Active; 'I' for Inactive)
REMARK    1  A    between atoms: C2_2  and  N1_11 
REMARK    2  A    between atoms: C3_3  and  C4_4 
REMARK    3  A    between atoms: C4_4  and  C5_5 
REMARK    4  A    between atoms: C5_5  and  C6_6 
REMARK    5  A    between atoms: C6_6  and  C7_7 
REMARK       I    between atoms: N1_11  and  C8_12 
REMARK    6  A    between atoms: C8_12  and  C9_14 
REMARK    7  A    between atoms: C14_19  and  N2_20 
REMARK    8  A    between atoms: N2_20  and  C15_21 
REMARK    9  A    between atoms: C15_21  and  C16_22 
ROOT
HETATM    1  C9  UNL     1      19.880  -0.526  53.344  1.00  0.00     0.058 A 
HETATM    2  C10 UNL     1      19.464  -1.762  53.873  1.00  0.00     0.019 A 
HETATM    3  C11 UNL     1      18.196  -2.160  53.511  1.00  0.00     0.001 A 
HETATM    4  C12 UNL     1      17.339  -1.479  52.709  1.00  0.00     0.002 A 
HETATM    5  C13 UNL     1      17.713  -0.243  52.166  1.00  0.00     0.030 A 
HETATM    6  C14 UNL     1      18.992   0.176  52.525  1.00  0.00     0.044 A 
ENDROOT
BRANCH   1   7
HETATM    7  C8  UNL     1      21.299  -0.279  53.627  1.00  0.00     0.258 C 
HETATM    8  N1  UNL     1      22.334  -0.634  52.721  1.00  0.00    -0.327 N 
HETATM    9  H9  UNL     1      22.167  -1.119  51.823  1.00  0.00     0.169 HD
HETATM   10  O1  UNL     1      21.299   0.264  54.740  1.00  0.00    -0.267 OA
BRANCH   8  11
HETATM   11  C2  UNL     1      23.515  -0.175  53.364  1.00  0.00     0.008 C 
HETATM   12  C1  UNL     1      24.356  -0.747  54.441  1.00  0.00     0.068 C 
HETATM   13  C3  UNL     1      24.038   0.963  53.129  1.00  0.00     0.024 C 
BRANCH  13  14
HETATM   14  C4  UNL     1      24.976   2.095  53.270  1.00  0.00    -0.002 C 
BRANCH  14  15
HETATM   15  C5  UNL     1      26.275   2.049  53.393  1.00  0.00    -0.018 C 
BRANCH  15  16
HETATM   16  C6  UNL     1      27.735   1.917  53.252  1.00  0.00     0.144 C 
BRANCH  16  17
HETATM   17  C7  UNL     1      28.167   0.455  53.446  1.00  0.00     0.390 C 
HETATM   18  F1  UNL     1      27.813  -0.031  54.691  1.00  0.00    -0.171 F 
HETATM   19  F2  UNL     1      29.538   0.426  53.230  1.00  0.00    -0.171 F 
HETATM   20  F3  UNL     1      27.482  -0.305  52.508  1.00  0.00    -0.171 F 
ENDBRANCH  16  17
ENDBRANCH  15  16
ENDBRANCH  14  15
ENDBRANCH  13  14
ENDBRANCH   8  11
ENDBRANCH   1   7
BRANCH   6  21
HETATM   21  N2  UNL     1      19.563   1.433  52.374  1.00  0.00    -0.385 N 
HETATM   22  H14 UNL     1      19.530   1.474  51.297  1.00  0.00     0.160 HD
BRANCH  21  23
HETATM   23  C15 UNL     1      20.169   2.765  52.213  1.00  0.00     0.158 C 
BRANCH  23  24
HETATM   24  C16 UNL     1      21.281   2.735  51.252  1.00  0.00    -0.038 A 
HETATM   25  C17 UNL     1      21.343   1.709  50.321  1.00  0.00     0.028 A 
HETATM   26  C18 UNL     1      22.421   1.817  49.478  1.00  0.00     0.116 A 
HETATM   27  N3  UNL     1      23.350   2.796  49.512  1.00  0.00    -0.273 NA
HETATM   28  C19 UNL     1      23.246   3.792  50.451  1.00  0.00     0.116 A 
HETATM   29  C20 UNL     1      22.198   3.773  51.340  1.00  0.00     0.028 A 
ENDBRANCH  23  24
ENDBRANCH  21  23
ENDBRANCH   6  21
TORSDOF 9
ENDMDL
MODEL 8
REMARK VINA RESULT:      -7.4      3.532      7.820
REMARK  9 active torsions:
REMARK  status: ('A' for Active; 'I' for Inactive)
REMARK    1  A    between atoms: C2_2  and  N1_11 
REMARK    2  A    between atoms: C3_3  and  C4_4 
REMARK    3  A    between atoms: C4_4  and  C5_5 
REMARK    4  A    between atoms: C5_5  and  C6_6 
REMARK    5  A    between atoms: C6_6  and  C7_7 
REMARK       I    between atoms: N1_11  and  C8_12 
REMARK    6  A    between atoms: C8_12  and  C9_14 
REMARK    7  A    between atoms: C14_19  and  N2_20 
REMARK    8  A    between atoms: N2_20  and  C15_21 
REMARK    9  A    between atoms: C15_21  and  C16_22 
ROOT
HETATM    1  C9  UNL     1      25.941   4.539  49.587  1.00  0.00     0.058 A 
HETATM    2  C10 UNL     1      27.226   4.340  49.048  1.00  0.00     0.019 A 
HETATM    3  C11 UNL     1      27.785   5.441  48.438  1.00  0.00     0.001 A 
HETATM    4  C12 UNL     1      27.217   6.667  48.316  1.00  0.00     0.002 A 
HETATM    5  C13 UNL     1      25.938   6.906  48.835  1.00  0.00     0.030 A 
HETATM    6  C14 UNL     1      25.356   5.802  49.453  1.00  0.00     0.044 A 
ENDROOT
BRANCH   1   7
HETATM    7  C8  UNL     1      25.510   3.379  50.376  1.00  0.00     0.258 C 
HETATM    8  N1  UNL     1      25.731   3.279  51.775  1.00  0.00    -0.327 N 
HETATM    9  H9  UNL     1      26.236   3.993  52.328  1.00  0.00     0.169 HD
HETATM   10  O1  UNL     1      24.969   2.633  49.550  1.00  0.00    -0.267 OA
BRANCH   8  11
HETATM   11  C2  UNL     1      25.119   2.045  52.125  1.00  0.00     0.008 C 
HETATM   12  C1  UNL     1      23.706   1.647  52.321  1.00  0.00     0.068 C 
HETATM   13  C3  UNL     1      25.783   1.000  52.426  1.00  0.00     0.024 C 
BRANCH  13  14
HETATM   14  C4  UNL     1      26.028  -0.388  52.867  1.00  0.00    -0.002 C 
BRANCH  14  15
HETATM   15  C5  UNL     1      27.150  -1.055  52.830  1.00  0.00    -0.018 C 
BRANCH  15  16
HETATM   16  C6  UNL     1      28.466  -1.680  53.045  1.00  0.00     0.144 C 
BRANCH  16  17
HETATM   17  C7  UNL     1      29.391  -0.736  53.829  1.00  0.00     0.390 C 
HETATM   18  F1  UNL     1      30.613  -1.320  54.110  1.00  0.00    -0.171 F 
HETATM   19  F2  UNL     1      28.695  -0.374  54.973  1.00  0.00    -0.171 F 
HETATM   20  F3  UNL     1      29.648   0.359  53.015  1.00  0.00    -0.171 F 
ENDBRANCH  16  17
ENDBRANCH  15  16
ENDBRANCH  14  15
ENDBRANCH  13  14
ENDBRANCH   8  11
ENDBRANCH   1   7
BRANCH   6  21
HETATM   21  N2  UNL     1      24.033   5.625  49.838  1.00  0.00    -0.385 N 
HETATM   22  H14 UNL     1      24.198   5.607  50.904  1.00  0.00     0.160 HD
BRANCH  21  23
HETATM   23  C15 UNL     1      22.631   5.437  50.247  1.00  0.00     0.158 C 
BRANCH  23  24
HETATM   24  C16 UNL     1      21.997   4.341  49.500  1.00  0.00    -0.038 A 
HETATM   25  C17 UNL     1      21.190   3.439  50.178  1.00  0.00     0.028 A 
HETATM   26  C18 UNL     1      20.651   2.483  49.354  1.00  0.00     0.116 A 
HETATM   27  N3  UNL     1      20.856   2.384  48.023  1.00  0.00    -0.273 NA
HETATM   28  C19 UNL     1      21.663   3.300  47.396  1.00  0.00     0.116 A 
HETATM   29  C20 UNL     1      22.248   4.300  48.136  1.00  0.00     0.028 A 
ENDBRANCH  23  24
ENDBRANCH  21  23
ENDBRANCH   6  21
TORSDOF 9
ENDMDL
MODEL 9
REMARK VINA RESULT:      -7.3      4.596      8.702
REMARK  9 active torsions:
REMARK  status: ('A' for Active; 'I' for Inactive)
REMARK    1  A    between atoms: C2_2  and  N1_11 
REMARK    2  A    between atoms: C3_3  and  C4_4 
REMARK    3  A    between atoms: C4_4  and  C5_5 
REMARK    4  A    between atoms: C5_5  and  C6_6 
REMARK    5  A    between atoms: C6_6  and  C7_7 
REMARK       I    between atoms: N1_11  and  C8_12 
REMARK    6  A    between atoms: C8_12  and  C9_14 
REMARK    7  A    between atoms: C14_19  and  N2_20 
REMARK    8  A    between atoms: N2_20  and  C15_21 
REMARK    9  A    between atoms: C15_21  and  C16_22 
ROOT
HETATM    1  C9  UNL     1      25.784   4.612  49.462  1.00  0.00     0.058 A 
HETATM    2  C10 UNL     1      27.086   4.149  49.196  1.00  0.00     0.019 A 
HETATM    3  C11 UNL     1      27.913   5.050  48.561  1.00  0.00     0.001 A 
HETATM    4  C12 UNL     1      27.585   6.310  48.181  1.00  0.00     0.002 A 
HETATM    5  C13 UNL     1      26.298   6.808  48.424  1.00  0.00     0.030 A 
HETATM    6  C14 UNL     1      25.448   5.908  49.063  1.00  0.00     0.044 A 
ENDROOT
BRANCH   1   7
HETATM    7  C8  UNL     1      25.045   3.662  50.302  1.00  0.00     0.258 C 
HETATM    8  N1  UNL     1      25.066   3.716  51.721  1.00  0.00    -0.327 N 
HETATM    9  H9  UNL     1      25.626   4.399  52.259  1.00  0.00     0.169 HD
HETATM   10  O1  UNL     1      24.478   2.916  49.493  1.00  0.00    -0.267 OA
BRANCH   8  11
HETATM   11  C2  UNL     1      24.192   2.665  52.110  1.00  0.00     0.008 C 
HETATM   12  C1  UNL     1      22.718   2.584  52.234  1.00  0.00     0.068 C 
HETATM   13  C3  UNL     1      24.605   1.536  52.529  1.00  0.00     0.024 C 
BRANCH  13  14
HETATM   14  C4  UNL     1      24.528   0.167  53.081  1.00  0.00    -0.002 C 
BRANCH  14  15
HETATM   15  C5  UNL     1      23.589  -0.343  53.830  1.00  0.00    -0.018 C 
BRANCH  15  16
HETATM   16  C6  UNL     1      22.608  -1.171  54.552  1.00  0.00     0.144 C 
BRANCH  16  17
HETATM   17  C7  UNL     1      21.175  -0.742  54.197  1.00  0.00     0.390 C 
HETATM   18  F1  UNL     1      21.045  -0.423  52.858  1.00  0.00    -0.171 F 
HETATM   19  F2  UNL     1      20.873   0.324  55.033  1.00  0.00    -0.171 F 
HETATM   20  F3  UNL     1      20.348  -1.832  54.433  1.00  0.00    -0.171 F 
ENDBRANCH  16  17
ENDBRANCH  15  16
ENDBRANCH  14  15
ENDBRANCH  13  14
ENDBRANCH   8  11
ENDBRANCH   1   7
BRANCH   6  21
HETATM   21  N2  UNL     1      24.070   5.985  49.221  1.00  0.00    -0.385 N 
HETATM   22  H14 UNL     1      23.796   5.524  48.285  1.00  0.00     0.160 HD
BRANCH  21  23
HETATM   23  C15 UNL     1      22.609   6.065  49.387  1.00  0.00     0.158 C 
BRANCH  23  24
HETATM   24  C16 UNL     1      21.929   4.971  48.679  1.00  0.00    -0.038 A 
HETATM   25  C17 UNL     1      22.271   4.701  47.362  1.00  0.00     0.028 A 
HETATM   26  C18 UNL     1      21.572   3.645  46.835  1.00  0.00     0.116 A 
HETATM   27  N3  UNL     1      20.639   2.916  47.484  1.00  0.00    -0.273 NA
HETATM   28  C19 UNL     1      20.334   3.220  48.788  1.00  0.00     0.116 A 
HETATM   29  C20 UNL     1      20.984   4.262  49.406  1.00  0.00     0.028 A 
ENDBRANCH  23  24
ENDBRANCH  21  23
ENDBRANCH   6  21
TORSDOF 9
ENDMDL
