MODEL 1
REMARK VINA RESULT:      -7.7      0.000      0.000
REMARK  4 active torsions:
REMARK  status: ('A' for Active; 'I' for Inactive)
REMARK    1  A    between atoms: C2_2  and  C3_3 
REMARK    2  A    between atoms: C3_3  and  C4_4 
REMARK    3  A    between atoms: C10_11  and  N2_12 
REMARK    4  A    between atoms: N2_12  and  C11_13 
ROOT
HETATM    1  C4  UNL     1      25.515   5.815  48.908  1.00  0.00     0.049 C 
HETATM    2  C5  UNL     1      24.571   6.444  48.227  1.00  0.00     0.013 C 
HETATM    3  C6  UNL     1      23.435   5.792  48.306  1.00  0.00    -0.014 C 
HETATM    4  C7  UNL     1      23.220   5.473  49.578  1.00  0.00     0.016 C 
HETATM    5  C8  UNL     1      23.782   5.779  50.930  1.00  0.00     0.298 C 
HETATM    6  N1  UNL     1      24.888   4.913  51.253  1.00  0.00     0.089 N 
HETATM    7  C9  UNL     1      24.423   3.545  51.359  1.00  0.00     0.300 C 
HETATM    8  C10 UNL     1      25.667   2.766  50.835  1.00  0.00     0.150 C 
HETATM    9  C17 UNL     1      25.975   3.427  49.471  1.00  0.00     0.116 C 
HETATM   10  N3  UNL     1      25.664   4.589  49.439  1.00  0.00    -0.266 NA
HETATM   11  H9  UNL     1      25.295   5.262  52.146  1.00  0.00     0.316 HD
ENDROOT
BRANCH   8  12
HETATM   12  N2  UNL     1      26.734   3.087  51.742  1.00  0.00    -0.379 N 
HETATM   13  H13 UNL     1      27.106   4.059  51.905  1.00  0.00     0.160 HD
BRANCH  12  14
HETATM   14  C11 UNL     1      27.344   2.035  52.478  1.00  0.00     0.030 A 
HETATM   15  C12 UNL     1      28.310   2.266  53.442  1.00  0.00     0.029 A 
HETATM   16  C13 UNL     1      28.907   1.229  54.165  1.00  0.00     0.004 A 
HETATM   17  C14 UNL     1      28.511  -0.065  53.901  1.00  0.00     0.024 A 
HETATM   18  C15 UNL     1      27.540  -0.362  52.941  1.00  0.00     0.036 A 
HETATM   19 CL1  UNL     1      27.027  -2.005  52.595  1.00  0.00    -0.084 Cl
HETATM   20  C16 UNL     1      27.005   0.720  52.276  1.00  0.00     0.052 A 
ENDBRANCH  12  14
ENDBRANCH   8  12
BRANCH   1  21
HETATM   21  C3  UNL     1      26.761   6.589  49.190  1.00  0.00     0.086 C 
BRANCH  21  22
HETATM   22  C2  UNL     1      27.801   6.178  48.218  1.00  0.00    -0.031 C 
HETATM   23  C1  UNL     1      28.989   5.598  48.217  1.00  0.00     0.007 C 
ENDBRANCH  21  22
ENDBRANCH   1  21
TORSDOF 4
ENDMDL
MODEL 2
REMARK VINA RESULT:      -7.4      3.632      7.052
REMARK  4 active torsions:
REMARK  status: ('A' for Active; 'I' for Inactive)
REMARK    1  A    between atoms: C2_2  and  C3_3 
REMARK    2  A    between atoms: C3_3  and  C4_4 
REMARK    3  A    between atoms: C10_11  and  N2_12 
REMARK    4  A    between atoms: N2_12  and  C11_13 
ROOT
HETATM    1  C4  UNL     1      27.213   0.118  54.301  1.00  0.00     0.049 C 
HETATM    2  C5  UNL     1      28.418  -0.282  54.673  1.00  0.00     0.013 C 
HETATM    3  C6  UNL     1      29.299  -0.020  53.736  1.00  0.00    -0.014 C 
HETATM    4  C7  UNL     1      29.123   1.234  53.331  1.00  0.00     0.016 C 
HETATM    5  C8  UNL     1      28.358   2.455  53.735  1.00  0.00     0.298 C 
HETATM    6  N1  UNL     1      27.023   2.449  53.190  1.00  0.00     0.089 N 
HETATM    7  C9  UNL     1      27.085   2.526  51.744  1.00  0.00     0.300 C 
HETATM    8  C10 UNL     1      25.841   1.675  51.347  1.00  0.00     0.150 C 
HETATM    9  C17 UNL     1      26.040   0.344  52.109  1.00  0.00     0.116 C 
HETATM   10  N3  UNL     1      26.636   0.488  53.145  1.00  0.00    -0.266 NA
HETATM   11  H9  UNL     1      26.523   3.261  53.607  1.00  0.00     0.316 HD
ENDROOT
BRANCH   8  12
HETATM   12  N2  UNL     1      24.711   2.356  51.915  1.00  0.00    -0.379 N 
HETATM   13  H13 UNL     1      24.755   3.301  52.378  1.00  0.00     0.160 HD
BRANCH  12  14
HETATM   14  C11 UNL     1      23.438   1.726  51.861  1.00  0.00     0.030 A 
HETATM   15  C12 UNL     1      22.783   1.475  50.668  1.00  0.00     0.029 A 
HETATM   16  C13 UNL     1      21.531   0.855  50.618  1.00  0.00     0.004 A 
HETATM   17  C14 UNL     1      20.938   0.484  51.806  1.00  0.00     0.024 A 
HETATM   18  C15 UNL     1      21.548   0.710  53.043  1.00  0.00     0.036 A 
HETATM   19 CL1  UNL     1      20.803   0.243  54.562  1.00  0.00    -0.084 Cl
HETATM   20  C16 UNL     1      22.780   1.326  52.998  1.00  0.00     0.052 A 
ENDBRANCH  12  14
ENDBRANCH   8  12
BRANCH   1  21
HETATM   21  C3  UNL     1      26.176   0.193  55.374  1.00  0.00     0.086 C 
BRANCH  21  22
HETATM   22  C2  UNL     1      25.278  -0.978  55.243  1.00  0.00    -0.031 C 
HETATM   23  C1  UNL     1      23.997  -1.270  55.390  1.00  0.00     0.007 C 
ENDBRANCH  21  22
ENDBRANCH   1  21
TORSDOF 4
ENDMDL
MODEL 3
REMARK VINA RESULT:      -7.4      1.794      2.304
REMARK  4 active torsions:
REMARK  status: ('A' for Active; 'I' for Inactive)
REMARK    1  A    between atoms: C2_2  and  C3_3 
REMARK    2  A    between atoms: C3_3  and  C4_4 
REMARK    3  A    between atoms: C10_11  and  N2_12 
REMARK    4  A    between atoms: N2_12  and  C11_13 
ROOT
HETATM    1  C4  UNL     1      24.922   5.349  49.158  1.00  0.00     0.049 C 
HETATM    2  C5  UNL     1      24.467   6.244  48.296  1.00  0.00     0.013 C 
HETATM    3  C6  UNL     1      23.233   6.579  48.590  1.00  0.00    -0.014 C 
HETATM    4  C7  UNL     1      23.164   6.834  49.892  1.00  0.00     0.016 C 
HETATM    5  C8  UNL     1      24.083   7.018  51.058  1.00  0.00     0.298 C 
HETATM    6  N1  UNL     1      24.426   5.756  51.667  1.00  0.00     0.089 N 
HETATM    7  C9  UNL     1      23.240   5.151  52.238  1.00  0.00     0.300 C 
HETATM    8  C10 UNL     1      23.545   3.638  52.023  1.00  0.00     0.150 C 
HETATM    9  C17 UNL     1      23.878   3.533  50.516  1.00  0.00     0.116 C 
HETATM   10  N3  UNL     1      24.377   4.539  50.082  1.00  0.00    -0.266 NA
HETATM   11  H9  UNL     1      25.153   5.955  52.386  1.00  0.00     0.316 HD
ENDROOT
BRANCH   8  12
HETATM   12  N2  UNL     1      24.746   3.376  52.769  1.00  0.00    -0.379 N 
HETATM   13  H13 UNL     1      25.464   4.106  53.017  1.00  0.00     0.160 HD
BRANCH  12  14
HETATM   14  C11 UNL     1      25.000   2.049  53.209  1.00  0.00     0.030 A 
HETATM   15  C12 UNL     1      24.066   1.035  53.089  1.00  0.00     0.029 A 
HETATM   16  C13 UNL     1      24.320  -0.270  53.522  1.00  0.00     0.004 A 
HETATM   17  C14 UNL     1      25.547  -0.544  54.086  1.00  0.00     0.024 A 
HETATM   18  C15 UNL     1      26.532   0.436  54.234  1.00  0.00     0.036 A 
HETATM   19 CL1  UNL     1      28.099   0.099  54.950  1.00  0.00    -0.084 Cl
HETATM   20  C16 UNL     1      26.197   1.693  53.780  1.00  0.00     0.052 A 
ENDBRANCH  12  14
ENDBRANCH   8  12
BRANCH   1  21
HETATM   21  C3  UNL     1      26.398   5.118  49.161  1.00  0.00     0.086 C 
BRANCH  21  22
HETATM   22  C2  UNL     1      27.054   6.259  48.480  1.00  0.00    -0.031 C 
HETATM   23  C1  UNL     1      28.249   6.590  48.021  1.00  0.00     0.007 C 
ENDBRANCH  21  22
ENDBRANCH   1  21
TORSDOF 4
ENDMDL
MODEL 4
REMARK VINA RESULT:      -7.4      2.999      5.151
REMARK  4 active torsions:
REMARK  status: ('A' for Active; 'I' for Inactive)
REMARK    1  A    between atoms: C2_2  and  C3_3 
REMARK    2  A    between atoms: C3_3  and  C4_4 
REMARK    3  A    between atoms: C10_11  and  N2_12 
REMARK    4  A    between atoms: N2_12  and  C11_13 
ROOT
HETATM    1  C4  UNL     1      21.839   1.415  52.662  1.00  0.00     0.049 C 
HETATM    2  C5  UNL     1      20.623   1.938  52.666  1.00  0.00     0.013 C 
HETATM    3  C6  UNL     1      20.669   3.210  52.348  1.00  0.00    -0.014 C 
HETATM    4  C7  UNL     1      21.435   3.347  51.270  1.00  0.00     0.016 C 
HETATM    5  C8  UNL     1      22.099   2.490  50.239  1.00  0.00     0.298 C 
HETATM    6  N1  UNL     1      23.392   2.031  50.684  1.00  0.00     0.089 N 
HETATM    7  C9  UNL     1      24.285   3.162  50.840  1.00  0.00     0.300 C 
HETATM    8  C10 UNL     1      25.160   2.687  52.038  1.00  0.00     0.150 C 
HETATM    9  C17 UNL     1      24.128   2.298  53.124  1.00  0.00     0.116 C 
HETATM   10  N3  UNL     1      23.094   1.897  52.656  1.00  0.00    -0.266 NA
HETATM   11  H9  UNL     1      23.733   1.354  49.970  1.00  0.00     0.316 HD
ENDROOT
BRANCH   8  12
HETATM   12  N2  UNL     1      25.814   1.489  51.588  1.00  0.00    -0.379 N 
HETATM   13  H13 UNL     1      25.527   0.936  50.739  1.00  0.00     0.160 HD
BRANCH  12  14
HETATM   14  C11 UNL     1      26.926   1.001  52.326  1.00  0.00     0.030 A 
HETATM   15  C12 UNL     1      27.793   1.840  53.005  1.00  0.00     0.029 A 
HETATM   16  C13 UNL     1      28.886   1.356  53.731  1.00  0.00     0.004 A 
HETATM   17  C14 UNL     1      29.097  -0.006  53.764  1.00  0.00     0.024 A 
HETATM   18  C15 UNL     1      28.258  -0.904  53.100  1.00  0.00     0.036 A 
HETATM   19 CL1  UNL     1      28.516  -2.640  53.135  1.00  0.00    -0.084 Cl
HETATM   20  C16 UNL     1      27.206  -0.340  52.410  1.00  0.00     0.052 A 
ENDBRANCH  12  14
ENDBRANCH   8  12
BRANCH   1  21
HETATM   21  C3  UNL     1      21.922  -0.076  52.677  1.00  0.00     0.086 C 
BRANCH  21  22
HETATM   22  C2  UNL     1      21.700  -0.546  54.065  1.00  0.00    -0.031 C 
HETATM   23  C1  UNL     1      22.344  -1.220  55.002  1.00  0.00     0.007 C 
ENDBRANCH  21  22
ENDBRANCH   1  21
TORSDOF 4
ENDMDL
MODEL 5
REMARK VINA RESULT:      -7.3      3.606      6.651
REMARK  4 active torsions:
REMARK  status: ('A' for Active; 'I' for Inactive)
REMARK    1  A    between atoms: C2_2  and  C3_3 
REMARK    2  A    between atoms: C3_3  and  C4_4 
REMARK    3  A    between atoms: C10_11  and  N2_12 
REMARK    4  A    between atoms: N2_12  and  C11_13 
ROOT
HETATM    1  C4  UNL     1      23.591   0.318  53.363  1.00  0.00     0.049 C 
HETATM    2  C5  UNL     1      22.589  -0.304  53.961  1.00  0.00     0.013 C 
HETATM    3  C6  UNL     1      21.488   0.404  53.870  1.00  0.00    -0.014 C 
HETATM    4  C7  UNL     1      21.348   0.807  52.612  1.00  0.00     0.016 C 
HETATM    5  C8  UNL     1      21.960   0.555  51.270  1.00  0.00     0.298 C 
HETATM    6  N1  UNL     1      23.119   1.386  51.051  1.00  0.00     0.089 N 
HETATM    7  C9  UNL     1      22.721   2.779  51.008  1.00  0.00     0.300 C 
HETATM    8  C10 UNL     1      23.972   3.466  51.635  1.00  0.00     0.150 C 
HETATM    9  C17 UNL     1      24.184   2.711  52.969  1.00  0.00     0.116 C 
HETATM   10  N3  UNL     1      23.820   1.565  52.915  1.00  0.00    -0.266 NA
HETATM   11  H9  UNL     1      23.552   1.071  50.158  1.00  0.00     0.316 HD
ENDROOT
BRANCH   8  12
HETATM   12  N2  UNL     1      25.066   3.148  50.759  1.00  0.00    -0.379 N 
HETATM   13  H13 UNL     1      25.424   2.174  50.582  1.00  0.00     0.160 HD
BRANCH  12  14
HETATM   14  C11 UNL     1      25.723   4.207  50.077  1.00  0.00     0.030 A 
HETATM   15  C12 UNL     1      26.839   4.001  49.284  1.00  0.00     0.029 A 
HETATM   16  C13 UNL     1      27.483   5.046  48.614  1.00  0.00     0.004 A 
HETATM   17  C14 UNL     1      26.980   6.322  48.755  1.00  0.00     0.024 A 
HETATM   18  C15 UNL     1      25.857   6.594  49.542  1.00  0.00     0.036 A 
HETATM   19 CL1  UNL     1      25.207   8.214  49.730  1.00  0.00    -0.084 Cl
HETATM   20  C16 UNL     1      25.286   5.506  50.165  1.00  0.00     0.052 A 
ENDBRANCH  12  14
ENDBRANCH   8  12
BRANCH   1  21
HETATM   21  C3  UNL     1      24.814  -0.496  53.091  1.00  0.00     0.086 C 
BRANCH  21  22
HETATM   22  C2  UNL     1      25.657  -0.500  54.309  1.00  0.00    -0.031 C 
HETATM   23  C1  UNL     1      26.545   0.277  54.907  1.00  0.00     0.007 C 
ENDBRANCH  21  22
ENDBRANCH   1  21
TORSDOF 4
ENDMDL
MODEL 6
REMARK VINA RESULT:      -7.0      4.012      5.636
REMARK  4 active torsions:
REMARK  status: ('A' for Active; 'I' for Inactive)
REMARK    1  A    between atoms: C2_2  and  C3_3 
REMARK    2  A    between atoms: C3_3  and  C4_4 
REMARK    3  A    between atoms: C10_11  and  N2_12 
REMARK    4  A    between atoms: N2_12  and  C11_13 
ROOT
HETATM    1  C4  UNL     1      25.383   2.441  51.279  1.00  0.00     0.049 C 
HETATM    2  C5  UNL     1      26.335   2.930  50.502  1.00  0.00     0.013 C 
HETATM    3  C6  UNL     1      25.813   3.526  49.456  1.00  0.00    -0.014 C 
HETATM    4  C7  UNL     1      24.834   4.324  49.870  1.00  0.00     0.016 C 
HETATM    5  C8  UNL     1      24.281   4.862  51.152  1.00  0.00     0.298 C 
HETATM    6  N1  UNL     1      23.332   3.952  51.744  1.00  0.00     0.089 N 
HETATM    7  C9  UNL     1      22.176   3.821  50.881  1.00  0.00     0.300 C 
HETATM    8  C10 UNL     1      21.777   2.337  51.140  1.00  0.00     0.150 C 
HETATM    9  C17 UNL     1      23.085   1.549  50.888  1.00  0.00     0.116 C 
HETATM   10  N3  UNL     1      24.069   2.190  51.151  1.00  0.00    -0.266 NA
HETATM   11  H9  UNL     1      23.086   4.338  52.679  1.00  0.00     0.316 HD
ENDROOT
BRANCH   8  12
HETATM   12  N2  UNL     1      21.467   2.259  52.540  1.00  0.00    -0.379 N 
HETATM   13  H13 UNL     1      21.374   3.092  53.178  1.00  0.00     0.160 HD
BRANCH  12  14
HETATM   14  C11 UNL     1      21.270   0.979  53.125  1.00  0.00     0.030 A 
HETATM   15  C12 UNL     1      22.269   0.318  53.820  1.00  0.00     0.029 A 
HETATM   16  C13 UNL     1      22.072  -0.941  54.395  1.00  0.00     0.004 A 
HETATM   17  C14 UNL     1      20.836  -1.536  54.258  1.00  0.00     0.024 A 
HETATM   18  C15 UNL     1      19.787  -0.920  53.570  1.00  0.00     0.036 A 
HETATM   19 CL1  UNL     1      18.209  -1.666  53.389  1.00  0.00    -0.084 Cl
HETATM   20  C16 UNL     1      20.069   0.319  53.036  1.00  0.00     0.052 A 
ENDBRANCH  12  14
ENDBRANCH   8  12
BRANCH   1  21
HETATM   21  C3  UNL     1      25.793   2.032  52.657  1.00  0.00     0.086 C 
BRANCH  21  22
HETATM   22  C2  UNL     1      26.373   0.670  52.590  1.00  0.00    -0.031 C 
HETATM   23  C1  UNL     1      26.031  -0.573  52.887  1.00  0.00     0.007 C 
ENDBRANCH  21  22
ENDBRANCH   1  21
TORSDOF 4
ENDMDL
MODEL 7
REMARK VINA RESULT:      -6.9      3.183      4.101
REMARK  4 active torsions:
REMARK  status: ('A' for Active; 'I' for Inactive)
REMARK    1  A    between atoms: C2_2  and  C3_3 
REMARK    2  A    between atoms: C3_3  and  C4_4 
REMARK    3  A    between atoms: C10_11  and  N2_12 
REMARK    4  A    between atoms: N2_12  and  C11_13 
ROOT
HETATM    1  C4  UNL     1      21.652   1.942  50.996  1.00  0.00     0.049 C 
HETATM    2  C5  UNL     1      20.542   2.661  51.036  1.00  0.00     0.013 C 
HETATM    3  C6  UNL     1      20.498   3.378  52.133  1.00  0.00    -0.014 C 
HETATM    4  C7  UNL     1      21.672   3.981  52.290  1.00  0.00     0.016 C 
HETATM    5  C8  UNL     1      22.932   4.218  51.519  1.00  0.00     0.298 C 
HETATM    6  N1  UNL     1      23.857   3.122  51.665  1.00  0.00     0.089 N 
HETATM    7  C9  UNL     1      24.292   3.029  53.044  1.00  0.00     0.300 C 
HETATM    8  C10 UNL     1      24.478   1.490  53.196  1.00  0.00     0.150 C 
HETATM    9  C17 UNL     1      23.130   0.901  52.717  1.00  0.00     0.116 C 
HETATM   10  N3  UNL     1      22.599   1.584  51.880  1.00  0.00    -0.266 NA
HETATM   11  H9  UNL     1      24.648   3.305  51.013  1.00  0.00     0.316 HD
ENDROOT
BRANCH   8  12
HETATM   12  N2  UNL     1      25.491   1.128  52.243  1.00  0.00    -0.379 N 
HETATM   13  H13 UNL     1      25.340   1.077  51.202  1.00  0.00     0.160 HD
BRANCH  12  14
HETATM   14  C11 UNL     1      26.792   0.812  52.718  1.00  0.00     0.030 A 
HETATM   15  C12 UNL     1      27.671   1.778  53.177  1.00  0.00     0.029 A 
HETATM   16  C13 UNL     1      28.951   1.463  53.645  1.00  0.00     0.004 A 
HETATM   17  C14 UNL     1      29.340   0.140  53.644  1.00  0.00     0.024 A 
HETATM   18  C15 UNL     1      28.499  -0.881  53.194  1.00  0.00     0.036 A 
HETATM   19 CL1  UNL     1      28.982  -2.568  53.188  1.00  0.00    -0.084 Cl
HETATM   20  C16 UNL     1      27.256  -0.481  52.751  1.00  0.00     0.052 A 
ENDBRANCH  12  14
ENDBRANCH   8  12
BRANCH   1  21
HETATM   21  C3  UNL     1      22.005   1.336  49.676  1.00  0.00     0.086 C 
BRANCH  21  22
HETATM   22  C2  UNL     1      22.048   2.412  48.660  1.00  0.00    -0.031 C 
HETATM   23  C1  UNL     1      22.246   2.546  47.359  1.00  0.00     0.007 C 
ENDBRANCH  21  22
ENDBRANCH   1  21
TORSDOF 4
ENDMDL
MODEL 8
REMARK VINA RESULT:      -6.7      3.449      7.498
REMARK  4 active torsions:
REMARK  status: ('A' for Active; 'I' for Inactive)
REMARK    1  A    between atoms: C2_2  and  C3_3 
REMARK    2  A    between atoms: C3_3  and  C4_4 
REMARK    3  A    between atoms: C10_11  and  N2_12 
REMARK    4  A    between atoms: N2_12  and  C11_13 
ROOT
HETATM    1  C4  UNL     1      24.701   0.126  52.956  1.00  0.00     0.049 C 
HETATM    2  C5  UNL     1      25.541  -0.894  53.022  1.00  0.00     0.013 C 
HETATM    3  C6  UNL     1      26.535  -0.726  52.182  1.00  0.00    -0.014 C 
HETATM    4  C7  UNL     1      26.999   0.512  52.319  1.00  0.00     0.016 C 
HETATM    5  C8  UNL     1      26.846   1.680  53.242  1.00  0.00     0.298 C 
HETATM    6  N1  UNL     1      25.722   2.504  52.871  1.00  0.00     0.089 N 
HETATM    7  C9  UNL     1      25.961   3.101  51.573  1.00  0.00     0.300 C 
HETATM    8  C10 UNL     1      24.514   3.154  50.998  1.00  0.00     0.150 C 
HETATM    9  C17 UNL     1      23.997   1.704  51.154  1.00  0.00     0.116 C 
HETATM   10  N3  UNL     1      24.482   1.139  52.100  1.00  0.00    -0.266 NA
HETATM   11  H9  UNL     1      25.612   3.219  53.620  1.00  0.00     0.316 HD
ENDROOT
BRANCH   8  12
HETATM   12  N2  UNL     1      23.772   3.996  51.895  1.00  0.00    -0.379 N 
HETATM   13  H13 UNL     1      23.537   3.745  52.891  1.00  0.00     0.160 HD
BRANCH  12  14
HETATM   14  C11 UNL     1      23.316   5.257  51.427  1.00  0.00     0.030 A 
HETATM   15  C12 UNL     1      21.971   5.559  51.298  1.00  0.00     0.029 A 
HETATM   16  C13 UNL     1      21.525   6.802  50.837  1.00  0.00     0.004 A 
HETATM   17  C14 UNL     1      22.467   7.751  50.502  1.00  0.00     0.024 A 
HETATM   18  C15 UNL     1      23.838   7.507  50.611  1.00  0.00     0.036 A 
HETATM   19 CL1  UNL     1      25.047   8.708  50.188  1.00  0.00    -0.084 Cl
HETATM   20  C16 UNL     1      24.188   6.257  51.074  1.00  0.00     0.052 A 
ENDBRANCH  12  14
ENDBRANCH   8  12
BRANCH   1  21
HETATM   21  C3  UNL     1      23.711   0.247  54.069  1.00  0.00     0.086 C 
BRANCH  21  22
HETATM   22  C2  UNL     1      22.611  -0.715  53.826  1.00  0.00    -0.031 C 
HETATM   23  C1  UNL     1      21.899  -1.603  54.499  1.00  0.00     0.007 C 
ENDBRANCH  21  22
ENDBRANCH   1  21
TORSDOF 4
ENDMDL
MODEL 9
REMARK VINA RESULT:      -6.7      3.395      6.927
REMARK  4 active torsions:
REMARK  status: ('A' for Active; 'I' for Inactive)
REMARK    1  A    between atoms: C2_2  and  C3_3 
REMARK    2  A    between atoms: C3_3  and  C4_4 
REMARK    3  A    between atoms: C10_11  and  N2_12 
REMARK    4  A    between atoms: N2_12  and  C11_13 
ROOT
HETATM    1  C4  UNL     1      24.556   0.796  52.806  1.00  0.00     0.049 C 
HETATM    2  C5  UNL     1      23.937  -0.284  53.254  1.00  0.00     0.013 C 
HETATM    3  C6  UNL     1      22.688  -0.009  53.547  1.00  0.00    -0.014 C 
HETATM    4  C7  UNL     1      22.159   0.675  52.538  1.00  0.00     0.016 C 
HETATM    5  C8  UNL     1      22.500   1.063  51.134  1.00  0.00     0.298 C 
HETATM    6  N1  UNL     1      23.290   2.269  51.094  1.00  0.00     0.089 N 
HETATM    7  C9  UNL     1      22.508   3.382  51.594  1.00  0.00     0.300 C 
HETATM    8  C10 UNL     1      23.615   4.241  52.276  1.00  0.00     0.150 C 
HETATM    9  C17 UNL     1      24.330   3.247  53.222  1.00  0.00     0.116 C 
HETATM   10  N3  UNL     1      24.310   2.117  52.807  1.00  0.00    -0.266 NA
HETATM   11  H9  UNL     1      23.583   2.405  50.104  1.00  0.00     0.316 HD
ENDROOT
BRANCH   8  12
HETATM   12  N2  UNL     1      24.528   4.599  51.226  1.00  0.00    -0.379 N 
HETATM   13  H13 UNL     1      25.361   4.022  50.937  1.00  0.00     0.160 HD
BRANCH  12  14
HETATM   14  C11 UNL     1      24.310   5.811  50.517  1.00  0.00     0.030 A 
HETATM   15  C12 UNL     1      24.408   7.053  51.120  1.00  0.00     0.029 A 
HETATM   16  C13 UNL     1      24.194   8.244  50.419  1.00  0.00     0.004 A 
HETATM   17  C14 UNL     1      23.875   8.166  49.080  1.00  0.00     0.024 A 
HETATM   18  C15 UNL     1      23.762   6.943  48.414  1.00  0.00     0.036 A 
HETATM   19 CL1  UNL     1      23.358   6.830  46.710  1.00  0.00    -0.084 Cl
HETATM   20  C16 UNL     1      23.990   5.821  49.181  1.00  0.00     0.052 A 
ENDBRANCH  12  14
ENDBRANCH   8  12
BRANCH   1  21
HETATM   21  C3  UNL     1      25.869   0.577  52.125  1.00  0.00     0.086 C 
BRANCH  21  22
HETATM   22  C2  UNL     1      26.435  -0.708  52.597  1.00  0.00    -0.031 C 
HETATM   23  C1  UNL     1      27.620  -1.254  52.813  1.00  0.00     0.007 C 
ENDBRANCH  21  22
ENDBRANCH   1  21
TORSDOF 4
ENDMDL
