MODEL 1
REMARK VINA RESULT:      -7.9      0.000      0.000
REMARK  3 active torsions:
REMARK  status: ('A' for Active; 'I' for Inactive)
REMARK    1  A    between atoms: C5_5  and  S1_6 
REMARK    2  A    between atoms: S1_6  and  N1_9 
REMARK       I    between atoms: N1_9  and  C6_10 
REMARK    3  A    between atoms: C6_10  and  C7_12 
ROOT
HETATM    1  N1  UNL     1      25.500   4.017  51.196  1.00  0.00    -0.246 N 
HETATM    2  C6  UNL     1      26.228   3.863  49.994  1.00  0.00     0.261 C 
HETATM    3  O3  UNL     1      26.408   2.678  49.615  1.00  0.00    -0.267 OA
HETATM    4  H6  UNL     1      25.311   4.951  51.571  1.00  0.00     0.182 HD
ENDROOT
BRANCH   1   5
HETATM    5  S1  UNL     1      24.991   2.523  51.919  1.00  0.00     0.265 S 
HETATM    6  O1  UNL     1      24.145   1.729  50.955  1.00  0.00    -0.200 OA
HETATM    7  O2  UNL     1      24.090   2.850  53.090  1.00  0.00    -0.200 OA
BRANCH   5   8
HETATM    8  C5  UNL     1      26.377   1.597  52.452  1.00  0.00     0.080 A 
HETATM    9  C4  UNL     1      26.368   0.222  52.345  1.00  0.00     0.026 A 
HETATM   10  C3  UNL     1      27.401  -0.606  52.731  1.00  0.00     0.008 A 
HETATM   11  C2  UNL     1      28.538  -0.014  53.269  1.00  0.00    -0.062 A 
HETATM   12  C1  UNL     1      29.649  -0.912  53.684  1.00  0.00     0.048 C 
HETATM   13  C14 UNL     1      28.583   1.375  53.393  1.00  0.00     0.008 A 
HETATM   14  C13 UNL     1      27.520   2.171  52.991  1.00  0.00     0.026 A 
ENDBRANCH   5   8
ENDBRANCH   1   5
BRANCH   2  15
HETATM   15  C7  UNL     1      26.755   4.975  49.214  1.00  0.00     0.011 C 
HETATM   16  C8  UNL     1      27.967   4.942  48.685  1.00  0.00    -0.009 C 
HETATM   17  C9  UNL     1      28.386   6.156  47.906  1.00  0.00     0.074 C 
HETATM   18  C10 UNL     1      27.942   7.413  48.524  1.00  0.00    -0.011 C 
HETATM   19 BR1  UNL     1      28.957   9.049  48.625  1.00  0.00    -0.056 Br
HETATM   20  C11 UNL     1      26.736   7.406  49.055  1.00  0.00    -0.007 C 
HETATM   21  C12 UNL     1      25.914   6.182  49.006  1.00  0.00     0.072 C 
ENDBRANCH   2  15
TORSDOF 3
ENDMDL
MODEL 2
REMARK VINA RESULT:      -7.6      6.052      8.430
REMARK  3 active torsions:
REMARK  status: ('A' for Active; 'I' for Inactive)
REMARK    1  A    between atoms: C5_5  and  S1_6 
REMARK    2  A    between atoms: S1_6  and  N1_9 
REMARK       I    between atoms: N1_9  and  C6_10 
REMARK    3  A    between atoms: C6_10  and  C7_12 
ROOT
HETATM    1  N1  UNL     1      22.725  -0.169  53.403  1.00  0.00    -0.246 N 
HETATM    2  C6  UNL     1      23.866  -0.532  54.156  1.00  0.00     0.261 C 
HETATM    3  O3  UNL     1      23.634  -1.085  55.261  1.00  0.00    -0.267 OA
HETATM    4  H6  UNL     1      22.829   0.287  52.492  1.00  0.00     0.182 HD
ENDROOT
BRANCH   1   5
HETATM    5  S1  UNL     1      21.214  -0.566  54.161  1.00  0.00     0.265 S 
HETATM    6  O1  UNL     1      20.978   0.313  55.364  1.00  0.00    -0.200 OA
HETATM    7  O2  UNL     1      21.313  -1.980  54.692  1.00  0.00    -0.200 OA
BRANCH   5   8
HETATM    8  C5  UNL     1      19.900  -0.433  53.014  1.00  0.00     0.080 A 
HETATM    9  C4  UNL     1      20.079   0.272  51.841  1.00  0.00     0.026 A 
HETATM   10  C3  UNL     1      19.118   0.442  50.868  1.00  0.00     0.008 A 
HETATM   11  C2  UNL     1      17.872  -0.139  51.080  1.00  0.00    -0.062 A 
HETATM   12  C1  UNL     1      16.839   0.047  50.027  1.00  0.00     0.048 C 
HETATM   13  C14 UNL     1      17.654  -0.859  52.255  1.00  0.00     0.008 A 
HETATM   14  C13 UNL     1      18.651  -1.005  53.209  1.00  0.00     0.026 A 
ENDBRANCH   5   8
ENDBRANCH   1   5
BRANCH   2  15
HETATM   15  C7  UNL     1      25.236  -0.297  53.721  1.00  0.00     0.011 C 
HETATM   16  C8  UNL     1      25.746  -0.910  52.666  1.00  0.00    -0.009 C 
HETATM   17  C9  UNL     1      27.171  -0.577  52.327  1.00  0.00     0.074 C 
HETATM   18  C10 UNL     1      28.023  -0.434  53.516  1.00  0.00    -0.011 C 
HETATM   19 BR1  UNL     1      29.843  -1.046  53.688  1.00  0.00    -0.056 Br
HETATM   20  C11 UNL     1      27.478   0.167  54.554  1.00  0.00    -0.007 C 
HETATM   21  C12 UNL     1      26.088   0.656  54.478  1.00  0.00     0.072 C 
ENDBRANCH   2  15
TORSDOF 3
ENDMDL
MODEL 3
REMARK VINA RESULT:      -7.4      3.046      7.170
REMARK  3 active torsions:
REMARK  status: ('A' for Active; 'I' for Inactive)
REMARK    1  A    between atoms: C5_5  and  S1_6 
REMARK    2  A    between atoms: S1_6  and  N1_9 
REMARK       I    between atoms: N1_9  and  C6_10 
REMARK    3  A    between atoms: C6_10  and  C7_12 
ROOT
HETATM    1  N1  UNL     1      26.587   3.644  50.757  1.00  0.00    -0.246 N 
HETATM    2  C6  UNL     1      25.846   2.733  51.547  1.00  0.00     0.261 C 
HETATM    3  O3  UNL     1      24.596   2.841  51.473  1.00  0.00    -0.267 OA
HETATM    4  H6  UNL     1      27.610   3.621  50.762  1.00  0.00     0.182 HD
ENDROOT
BRANCH   1   5
HETATM    5  S1  UNL     1      25.611   4.742  49.831  1.00  0.00     0.265 S 
HETATM    6  O1  UNL     1      24.731   5.565  50.739  1.00  0.00    -0.200 OA
HETATM    7  O2  UNL     1      24.670   3.923  48.972  1.00  0.00    -0.200 OA
BRANCH   5   8
HETATM    8  C5  UNL     1      26.619   5.764  48.832  1.00  0.00     0.080 A 
HETATM    9  C4  UNL     1      26.091   6.902  48.259  1.00  0.00     0.026 A 
HETATM   10  C3  UNL     1      26.789   7.780  47.457  1.00  0.00     0.008 A 
HETATM   11  C2  UNL     1      28.128   7.499  47.204  1.00  0.00    -0.062 A 
HETATM   12  C1  UNL     1      28.877   8.448  46.338  1.00  0.00     0.048 C 
HETATM   13  C14 UNL     1      28.697   6.356  47.766  1.00  0.00     0.008 A 
HETATM   14  C13 UNL     1      27.956   5.500  48.569  1.00  0.00     0.026 A 
ENDBRANCH   5   8
ENDBRANCH   1   5
BRANCH   2  15
HETATM   15  C7  UNL     1      26.451   1.723  52.404  1.00  0.00     0.011 C 
HETATM   16  C8  UNL     1      27.405   2.025  53.269  1.00  0.00    -0.009 C 
HETATM   17  C9  UNL     1      27.943   0.887  54.091  1.00  0.00     0.074 C 
HETATM   18  C10 UNL     1      28.082  -0.357  53.322  1.00  0.00    -0.011 C 
HETATM   19 BR1  UNL     1      29.530  -1.622  53.463  1.00  0.00    -0.056 Br
HETATM   20  C11 UNL     1      27.122  -0.619  52.458  1.00  0.00    -0.007 C 
HETATM   21  C12 UNL     1      25.989   0.314  52.308  1.00  0.00     0.072 C 
ENDBRANCH   2  15
TORSDOF 3
ENDMDL
MODEL 4
REMARK VINA RESULT:      -7.2      2.059      2.629
REMARK  3 active torsions:
REMARK  status: ('A' for Active; 'I' for Inactive)
REMARK    1  A    between atoms: C5_5  and  S1_6 
REMARK    2  A    between atoms: S1_6  and  N1_9 
REMARK       I    between atoms: N1_9  and  C6_10 
REMARK    3  A    between atoms: C6_10  and  C7_12 
ROOT
HETATM    1  N1  UNL     1      24.440   5.132  50.963  1.00  0.00    -0.246 N 
HETATM    2  C6  UNL     1      25.045   4.561  49.818  1.00  0.00     0.261 C 
HETATM    3  O3  UNL     1      24.573   3.457  49.447  1.00  0.00    -0.267 OA
HETATM    4  H6  UNL     1      24.767   6.030  51.328  1.00  0.00     0.182 HD
ENDROOT
BRANCH   1   5
HETATM    5  S1  UNL     1      23.150   4.183  51.635  1.00  0.00     0.265 S 
HETATM    6  O1  UNL     1      22.108   3.887  50.586  1.00  0.00    -0.200 OA
HETATM    7  O2  UNL     1      22.453   5.018  52.688  1.00  0.00    -0.200 OA
BRANCH   5   8
HETATM    8  C5  UNL     1      23.777   2.709  52.337  1.00  0.00     0.080 A 
HETATM    9  C4  UNL     1      24.980   2.725  53.011  1.00  0.00     0.026 A 
HETATM   10  C3  UNL     1      25.569   1.627  53.602  1.00  0.00     0.008 A 
HETATM   11  C2  UNL     1      24.901   0.410  53.516  1.00  0.00    -0.062 A 
HETATM   12  C1  UNL     1      25.539  -0.771  54.156  1.00  0.00     0.048 C 
HETATM   13  C14 UNL     1      23.680   0.355  52.843  1.00  0.00     0.008 A 
HETATM   14  C13 UNL     1      23.124   1.486  52.261  1.00  0.00     0.026 A 
ENDBRANCH   5   8
ENDBRANCH   1   5
BRANCH   2  15
HETATM   15  C7  UNL     1      26.145   5.177  49.089  1.00  0.00     0.011 C 
HETATM   16  C8  UNL     1      27.335   4.605  49.009  1.00  0.00    -0.009 C 
HETATM   17  C9  UNL     1      28.380   5.349  48.226  1.00  0.00     0.074 C 
HETATM   18  C10 UNL     1      28.331   6.801  48.443  1.00  0.00    -0.011 C 
HETATM   19 BR1  UNL     1      29.851   7.976  48.608  1.00  0.00    -0.056 Br
HETATM   20  C11 UNL     1      27.130   7.336  48.533  1.00  0.00    -0.007 C 
HETATM   21  C12 UNL     1      25.931   6.484  48.414  1.00  0.00     0.072 C 
ENDBRANCH   2  15
TORSDOF 3
ENDMDL
MODEL 5
REMARK VINA RESULT:      -7.1      3.192      6.843
REMARK  3 active torsions:
REMARK  status: ('A' for Active; 'I' for Inactive)
REMARK    1  A    between atoms: C5_5  and  S1_6 
REMARK    2  A    between atoms: S1_6  and  N1_9 
REMARK       I    between atoms: N1_9  and  C6_10 
REMARK    3  A    between atoms: C6_10  and  C7_12 
ROOT
HETATM    1  N1  UNL     1      24.140   1.859  51.397  1.00  0.00    -0.246 N 
HETATM    2  C6  UNL     1      24.754   2.021  52.661  1.00  0.00     0.261 C 
HETATM    3  O3  UNL     1      24.438   3.063  53.289  1.00  0.00    -0.267 OA
HETATM    4  H6  UNL     1      24.344   1.037  50.823  1.00  0.00     0.182 HD
ENDROOT
BRANCH   1   5
HETATM    5  S1  UNL     1      23.059   3.146  50.959  1.00  0.00     0.265 S 
HETATM    6  O1  UNL     1      21.975   3.303  51.996  1.00  0.00    -0.200 OA
HETATM    7  O2  UNL     1      22.354   2.752  49.679  1.00  0.00    -0.200 OA
BRANCH   5   8
HETATM    8  C5  UNL     1      23.943   4.640  50.738  1.00  0.00     0.080 A 
HETATM    9  C4  UNL     1      25.059   4.664  49.929  1.00  0.00     0.026 A 
HETATM   10  C3  UNL     1      25.831   5.780  49.682  1.00  0.00     0.008 A 
HETATM   11  C2  UNL     1      25.458   6.972  50.293  1.00  0.00    -0.062 A 
HETATM   12  C1  UNL     1      26.293   8.173  50.024  1.00  0.00     0.048 C 
HETATM   13  C14 UNL     1      24.333   6.986  51.119  1.00  0.00     0.008 A 
HETATM   14  C13 UNL     1      23.585   5.838  51.340  1.00  0.00     0.026 A 
ENDBRANCH   5   8
ENDBRANCH   1   5
BRANCH   2  15
HETATM   15  C7  UNL     1      25.696   1.070  53.234  1.00  0.00     0.011 C 
HETATM   16  C8  UNL     1      26.490   1.396  54.239  1.00  0.00    -0.009 C 
HETATM   17  C9  UNL     1      27.415   0.319  54.734  1.00  0.00     0.074 C 
HETATM   18  C10 UNL     1      27.982  -0.490  53.647  1.00  0.00    -0.011 C 
HETATM   19 BR1  UNL     1      29.791  -1.150  53.548  1.00  0.00    -0.056 Br
HETATM   20  C11 UNL     1      27.168  -0.784  52.654  1.00  0.00    -0.007 C 
HETATM   21  C12 UNL     1      25.772  -0.306  52.677  1.00  0.00     0.072 C 
ENDBRANCH   2  15
TORSDOF 3
ENDMDL
MODEL 6
REMARK VINA RESULT:      -6.9      1.546      2.124
REMARK  3 active torsions:
REMARK  status: ('A' for Active; 'I' for Inactive)
REMARK    1  A    between atoms: C5_5  and  S1_6 
REMARK    2  A    between atoms: S1_6  and  N1_9 
REMARK       I    between atoms: N1_9  and  C6_10 
REMARK    3  A    between atoms: C6_10  and  C7_12 
ROOT
HETATM    1  N1  UNL     1      25.566   3.772  51.147  1.00  0.00    -0.246 N 
HETATM    2  C6  UNL     1      24.524   4.534  50.569  1.00  0.00     0.261 C 
HETATM    3  O3  UNL     1      23.358   4.123  50.795  1.00  0.00    -0.267 OA
HETATM    4  H6  UNL     1      26.543   4.041  51.010  1.00  0.00     0.182 HD
ENDROOT
BRANCH   1   5
HETATM    5  S1  UNL     1      25.021   2.404  52.068  1.00  0.00     0.265 S 
HETATM    6  O1  UNL     1      23.992   1.620  51.293  1.00  0.00    -0.200 OA
HETATM    7  O2  UNL     1      24.308   2.920  53.299  1.00  0.00    -0.200 OA
BRANCH   5   8
HETATM    8  C5  UNL     1      26.374   1.393  52.522  1.00  0.00     0.080 A 
HETATM    9  C4  UNL     1      27.530   1.968  53.009  1.00  0.00     0.026 A 
HETATM   10  C3  UNL     1      28.655   1.273  53.397  1.00  0.00     0.008 A 
HETATM   11  C2  UNL     1      28.627  -0.113  53.291  1.00  0.00    -0.062 A 
HETATM   12  C1  UNL     1      29.844  -0.859  53.711  1.00  0.00     0.048 C 
HETATM   13  C14 UNL     1      27.475  -0.731  52.803  1.00  0.00     0.008 A 
HETATM   14  C13 UNL     1      26.364   0.008  52.423  1.00  0.00     0.026 A 
ENDBRANCH   5   8
ENDBRANCH   1   5
BRANCH   2  15
HETATM   15  C7  UNL     1      24.743   5.723  49.756  1.00  0.00     0.011 C 
HETATM   16  C8  UNL     1      24.210   5.851  48.553  1.00  0.00    -0.009 C 
HETATM   17  C9  UNL     1      24.517   7.128  47.821  1.00  0.00     0.074 C 
HETATM   18  C10 UNL     1      25.905   7.573  48.008  1.00  0.00    -0.011 C 
HETATM   19 BR1  UNL     1      27.037   8.356  46.657  1.00  0.00    -0.056 Br
HETATM   20  C11 UNL     1      26.410   7.417  49.215  1.00  0.00    -0.007 C 
HETATM   21  C12 UNL     1      25.588   6.824  50.288  1.00  0.00     0.072 C 
ENDBRANCH   2  15
TORSDOF 3
ENDMDL
MODEL 7
REMARK VINA RESULT:      -6.9      5.116      6.645
REMARK  3 active torsions:
REMARK  status: ('A' for Active; 'I' for Inactive)
REMARK    1  A    between atoms: C5_5  and  S1_6 
REMARK    2  A    between atoms: S1_6  and  N1_9 
REMARK       I    between atoms: N1_9  and  C6_10 
REMARK    3  A    between atoms: C6_10  and  C7_12 
ROOT
HETATM    1  N1  UNL     1      23.881   1.170  51.963  1.00  0.00    -0.246 N 
HETATM    2  C6  UNL     1      22.608   1.784  51.900  1.00  0.00     0.261 C 
HETATM    3  O3  UNL     1      22.581   3.010  52.176  1.00  0.00    -0.267 OA
HETATM    4  H6  UNL     1      23.987   0.174  51.752  1.00  0.00     0.182 HD
ENDROOT
BRANCH   1   5
HETATM    5  S1  UNL     1      25.168   2.244  52.414  1.00  0.00     0.265 S 
HETATM    6  O1  UNL     1      24.746   3.125  53.563  1.00  0.00    -0.200 OA
HETATM    7  O2  UNL     1      25.431   3.177  51.250  1.00  0.00    -0.200 OA
BRANCH   5   8
HETATM    8  C5  UNL     1      26.611   1.338  52.810  1.00  0.00     0.080 A 
HETATM    9  C4  UNL     1      26.622  -0.034  52.670  1.00  0.00     0.026 A 
HETATM   10  C3  UNL     1      27.698  -0.849  52.951  1.00  0.00     0.008 A 
HETATM   11  C2  UNL     1      28.863  -0.244  53.411  1.00  0.00    -0.062 A 
HETATM   12  C1  UNL     1      30.022  -1.127  53.712  1.00  0.00     0.048 C 
HETATM   13  C14 UNL     1      28.891   1.142  53.565  1.00  0.00     0.008 A 
HETATM   14  C13 UNL     1      27.782   1.924  53.270  1.00  0.00     0.026 A 
ENDBRANCH   5   8
ENDBRANCH   1   5
BRANCH   2  15
HETATM   15  C7  UNL     1      21.383   1.080  51.544  1.00  0.00     0.011 C 
HETATM   16  C8  UNL     1      20.637   1.455  50.520  1.00  0.00    -0.009 C 
HETATM   17  C9  UNL     1      19.399   0.642  50.264  1.00  0.00     0.074 C 
HETATM   18  C10 UNL     1      18.715   0.240  51.501  1.00  0.00    -0.011 C 
HETATM   19 BR1  UNL     1      16.807   0.187  51.776  1.00  0.00    -0.056 Br
HETATM   20  C11 UNL     1      19.488  -0.113  52.507  1.00  0.00    -0.007 C 
HETATM   21  C12 UNL     1      20.956  -0.092  52.352  1.00  0.00     0.072 C 
ENDBRANCH   2  15
TORSDOF 3
ENDMDL
MODEL 8
REMARK VINA RESULT:      -6.9      4.478      6.747
REMARK  3 active torsions:
REMARK  status: ('A' for Active; 'I' for Inactive)
REMARK    1  A    between atoms: C5_5  and  S1_6 
REMARK    2  A    between atoms: S1_6  and  N1_9 
REMARK       I    between atoms: N1_9  and  C6_10 
REMARK    3  A    between atoms: C6_10  and  C7_12 
ROOT
HETATM    1  N1  UNL     1      25.000   2.799  51.291  1.00  0.00    -0.246 N 
HETATM    2  C6  UNL     1      25.196   2.581  52.675  1.00  0.00     0.261 C 
HETATM    3  O3  UNL     1      24.251   2.939  53.421  1.00  0.00    -0.267 OA
HETATM    4  H6  UNL     1      25.723   2.534  50.617  1.00  0.00     0.182 HD
ENDROOT
BRANCH   1   5
HETATM    5  S1  UNL     1      23.474   3.526  50.893  1.00  0.00     0.265 S 
HETATM    6  O1  UNL     1      23.458   3.971  49.453  1.00  0.00    -0.200 OA
HETATM    7  O2  UNL     1      23.325   4.787  51.719  1.00  0.00    -0.200 OA
BRANCH   5   8
HETATM    8  C5  UNL     1      22.162   2.418  51.227  1.00  0.00     0.080 A 
HETATM    9  C4  UNL     1      21.050   2.856  51.917  1.00  0.00     0.026 A 
HETATM   10  C3  UNL     1      19.960   2.074  52.235  1.00  0.00     0.008 A 
HETATM   11  C2  UNL     1      19.979   0.743  51.831  1.00  0.00    -0.062 A 
HETATM   12  C1  UNL     1      18.800  -0.096  52.177  1.00  0.00     0.048 C 
HETATM   13  C14 UNL     1      21.087   0.265  51.131  1.00  0.00     0.008 A 
HETATM   14  C13 UNL     1      22.164   1.087  50.832  1.00  0.00     0.026 A 
ENDBRANCH   5   8
ENDBRANCH   1   5
BRANCH   2  15
HETATM   15  C7  UNL     1      26.399   1.985  53.240  1.00  0.00     0.011 C 
HETATM   16  C8  UNL     1      27.606   2.325  52.823  1.00  0.00    -0.009 C 
HETATM   17  C9  UNL     1      28.761   1.632  53.491  1.00  0.00     0.074 C 
HETATM   18  C10 UNL     1      28.500   0.210  53.752  1.00  0.00    -0.011 C 
HETATM   19 BR1  UNL     1      29.769  -1.230  53.560  1.00  0.00    -0.056 Br
HETATM   20  C11 UNL     1      27.283  -0.096  54.151  1.00  0.00    -0.007 C 
HETATM   21  C12 UNL     1      26.271   0.966  54.314  1.00  0.00     0.072 C 
ENDBRANCH   2  15
TORSDOF 3
ENDMDL
MODEL 9
REMARK VINA RESULT:      -6.8      5.190      7.608
REMARK  3 active torsions:
REMARK  status: ('A' for Active; 'I' for Inactive)
REMARK    1  A    between atoms: C5_5  and  S1_6 
REMARK    2  A    between atoms: S1_6  and  N1_9 
REMARK       I    between atoms: N1_9  and  C6_10 
REMARK    3  A    between atoms: C6_10  and  C7_12 
ROOT
HETATM    1  N1  UNL     1      23.717   0.665  51.599  1.00  0.00    -0.246 N 
HETATM    2  C6  UNL     1      24.278   1.066  52.834  1.00  0.00     0.261 C 
HETATM    3  O3  UNL     1      23.676   1.996  53.428  1.00  0.00    -0.267 OA
HETATM    4  H6  UNL     1      24.148  -0.087  51.053  1.00  0.00     0.182 HD
ENDROOT
BRANCH   1   5
HETATM    5  S1  UNL     1      22.291   1.545  51.143  1.00  0.00     0.265 S 
HETATM    6  O1  UNL     1      22.238   1.732  49.648  1.00  0.00    -0.200 OA
HETATM    7  O2  UNL     1      22.390   2.936  51.733  1.00  0.00    -0.200 OA
BRANCH   5   8
HETATM    8  C5  UNL     1      20.856   0.733  51.729  1.00  0.00     0.080 A 
HETATM    9  C4  UNL     1      19.725   0.682  50.942  1.00  0.00     0.026 A 
HETATM   10  C3  UNL     1      18.542   0.071  51.299  1.00  0.00     0.008 A 
HETATM   11  C2  UNL     1      18.480  -0.541  52.546  1.00  0.00    -0.062 A 
HETATM   12  C1  UNL     1      17.202  -1.198  52.927  1.00  0.00     0.048 C 
HETATM   13  C14 UNL     1      19.606  -0.510  53.371  1.00  0.00     0.008 A 
HETATM   14  C13 UNL     1      20.777   0.117  52.971  1.00  0.00     0.026 A 
ENDBRANCH   5   8
ENDBRANCH   1   5
BRANCH   2  15
HETATM   15  C7  UNL     1      25.473   0.470  53.415  1.00  0.00     0.011 C 
HETATM   16  C8  UNL     1      26.246   1.137  54.254  1.00  0.00    -0.009 C 
HETATM   17  C9  UNL     1      27.448   0.404  54.779  1.00  0.00     0.074 C 
HETATM   18  C10 UNL     1      28.101  -0.426  53.757  1.00  0.00    -0.011 C 
HETATM   19 BR1  UNL     1      30.002  -0.656  53.527  1.00  0.00    -0.056 Br
HETATM   20  C11 UNL     1      27.302  -1.065  52.928  1.00  0.00    -0.007 C 
HETATM   21  C12 UNL     1      25.839  -0.926  53.057  1.00  0.00     0.072 C 
ENDBRANCH   2  15
TORSDOF 3
ENDMDL
