MODEL 1
REMARK VINA RESULT:      -8.1      0.000      0.000
REMARK  3 active torsions:
REMARK  status: ('A' for Active; 'I' for Inactive)
REMARK    1  A    between atoms: N1_2  and  C2_3 
REMARK    2  A    between atoms: C6_7  and  N2_8 
REMARK    3  A    between atoms: C13_15  and  C14_16 
ROOT
HETATM    1  C2  UNL     1      20.738   1.585  51.747  1.00  0.00     0.421 C 
HETATM    2  C3  UNL     1      21.884   2.324  52.210  1.00  0.00    -0.048 C 
HETATM    3  C4  UNL     1      22.756   2.886  52.540  1.00  0.00    -0.100 C 
HETATM    4  C5  UNL     1      23.911   3.628  52.946  1.00  0.00     0.134 C 
HETATM    5  C6  UNL     1      25.002   3.217  51.858  1.00  0.00     0.265 C 
HETATM    6  C12 UNL     1      24.244   3.019  50.547  1.00  0.00    -0.011 C 
HETATM    7  C13 UNL     1      24.100   3.711  49.425  1.00  0.00     0.072 C 
HETATM    8  N3  UNL     1      23.114   3.556  48.426  1.00  0.00    -0.258 NA
HETATM    9  C21 UNL     1      22.162   2.641  48.510  1.00  0.00     0.144 C 
HETATM   10  C22 UNL     1      22.098   2.125  49.881  1.00  0.00     0.054 C 
HETATM   11  N4  UNL     1      20.772   2.110  50.264  1.00  0.00    -0.245 NA
HETATM   12  C23 UNL     1      23.465   1.745  50.394  1.00  0.00     0.099 C 
ENDROOT
BRANCH   7  13
HETATM   13  C14 UNL     1      25.146   4.756  49.279  1.00  0.00     0.001 A 
HETATM   14  C15 UNL     1      26.442   4.585  48.853  1.00  0.00     0.017 A 
HETATM   15  C16 UNL     1      27.317   5.644  48.779  1.00  0.00     0.045 A 
HETATM   16  C17 UNL     1      26.927   6.920  49.129  1.00  0.00     0.138 A 
HETATM   17  F1  UNL     1      27.866   7.902  49.021  1.00  0.00    -0.204 F 
HETATM   18  C18 UNL     1      25.635   7.092  49.554  1.00  0.00     0.079 A 
HETATM   19 CL1  UNL     1      25.213   8.752  49.982  1.00  0.00    -0.080 Cl
HETATM   20  C19 UNL     1      24.735   6.047  49.637  1.00  0.00    -0.025 A 
HETATM   21  C20 UNL     1      23.345   6.325  50.110  1.00  0.00     0.051 C 
ENDBRANCH   7  13
BRANCH   5  22
HETATM   22  N2  UNL     1      25.425   1.903  52.307  1.00  0.00     0.098 N 
HETATM   23  C7  UNL     1      26.531   1.391  51.520  1.00  0.00     0.273 C 
HETATM   24  C8  UNL     1      26.746  -0.049  51.951  1.00  0.00     0.030 C 
HETATM   25  C9  UNL     1      27.374   0.036  53.336  1.00  0.00     0.003 C 
HETATM   26  C10 UNL     1      27.188   1.367  53.970  1.00  0.00     0.030 C 
HETATM   27  C11 UNL     1      25.870   2.043  53.678  1.00  0.00     0.273 C 
ENDBRANCH   5  22
BRANCH   1  28
HETATM   28  N1  UNL     1      19.537   2.035  52.326  1.00  0.00     0.115 N 
HETATM   29  C1  UNL     1      18.889   3.091  51.606  1.00  0.00     0.310 C 
HETATM   30  H4  UNL     1      19.695   2.356  53.320  1.00  0.00     0.319 HD
ENDBRANCH   1  28
TORSDOF 3
ENDMDL
MODEL 2
REMARK VINA RESULT:      -7.8      3.447      6.538
REMARK  3 active torsions:
REMARK  status: ('A' for Active; 'I' for Inactive)
REMARK    1  A    between atoms: N1_2  and  C2_3 
REMARK    2  A    between atoms: C6_7  and  N2_8 
REMARK    3  A    between atoms: C13_15  and  C14_16 
ROOT
HETATM    1  C2  UNL     1      24.918   7.040  49.923  1.00  0.00     0.421 C 
HETATM    2  C3  UNL     1      24.244   6.269  50.935  1.00  0.00    -0.048 C 
HETATM    3  C4  UNL     1      23.747   5.668  51.696  1.00  0.00    -0.100 C 
HETATM    4  C5  UNL     1      23.107   4.856  52.686  1.00  0.00     0.134 C 
HETATM    5  C6  UNL     1      22.998   3.436  51.968  1.00  0.00     0.265 C 
HETATM    6  C12 UNL     1      24.242   3.303  51.091  1.00  0.00    -0.011 C 
HETATM    7  C13 UNL     1      25.381   2.629  51.164  1.00  0.00     0.072 C 
HETATM    8  N3  UNL     1      26.573   2.851  50.440  1.00  0.00    -0.258 NA
HETATM    9  C21 UNL     1      26.687   3.822  49.550  1.00  0.00     0.144 C 
HETATM   10  C22 UNL     1      25.583   4.773  49.718  1.00  0.00     0.054 C 
HETATM   11  N4  UNL     1      26.118   6.046  49.707  1.00  0.00    -0.245 NA
HETATM   12  C23 UNL     1      24.252   4.067  49.800  1.00  0.00     0.099 C 
ENDROOT
BRANCH   7  13
HETATM   13  C14 UNL     1      25.310   1.522  52.153  1.00  0.00     0.001 A 
HETATM   14  C15 UNL     1      24.277   0.632  52.335  1.00  0.00     0.017 A 
HETATM   15  C16 UNL     1      24.334  -0.342  53.305  1.00  0.00     0.045 A 
HETATM   16  C17 UNL     1      25.431  -0.464  54.132  1.00  0.00     0.138 A 
HETATM   17  F1  UNL     1      25.393  -1.460  55.061  1.00  0.00    -0.204 F 
HETATM   18  C18 UNL     1      26.461   0.422  53.952  1.00  0.00     0.079 A 
HETATM   19 CL1  UNL     1      27.828   0.200  55.048  1.00  0.00    -0.080 Cl
HETATM   20  C19 UNL     1      26.431   1.410  52.986  1.00  0.00    -0.025 A 
HETATM   21  C20 UNL     1      27.600   2.333  52.858  1.00  0.00     0.051 C 
ENDBRANCH   7  13
BRANCH   5  22
HETATM   22  N2  UNL     1      21.867   3.613  51.075  1.00  0.00     0.098 N 
HETATM   23  C7  UNL     1      21.484   2.370  50.431  1.00  0.00     0.273 C 
HETATM   24  C8  UNL     1      20.437   2.721  49.390  1.00  0.00     0.030 C 
HETATM   25  C9  UNL     1      19.178   3.051  50.181  1.00  0.00     0.003 C 
HETATM   26  C10 UNL     1      19.459   3.339  51.612  1.00  0.00     0.030 C 
HETATM   27  C11 UNL     1      20.753   4.067  51.882  1.00  0.00     0.273 C 
ENDBRANCH   5  22
BRANCH   1  28
HETATM   28  N1  UNL     1      25.451   8.241  50.426  1.00  0.00     0.115 N 
HETATM   29  C1  UNL     1      26.816   8.483  50.064  1.00  0.00     0.310 C 
HETATM   30  H4  UNL     1      25.372   8.276  51.479  1.00  0.00     0.319 HD
ENDBRANCH   1  28
TORSDOF 3
ENDMDL
MODEL 3
REMARK VINA RESULT:      -7.7      2.946      5.603
REMARK  3 active torsions:
REMARK  status: ('A' for Active; 'I' for Inactive)
REMARK    1  A    between atoms: N1_2  and  C2_3 
REMARK    2  A    between atoms: C6_7  and  N2_8 
REMARK    3  A    between atoms: C13_15  and  C14_16 
ROOT
HETATM    1  C2  UNL     1      18.792   0.711  51.588  1.00  0.00     0.421 C 
HETATM    2  C3  UNL     1      20.047   0.808  50.889  1.00  0.00    -0.048 C 
HETATM    3  C4  UNL     1      21.007   0.879  50.380  1.00  0.00    -0.100 C 
HETATM    4  C5  UNL     1      22.283   0.972  49.736  1.00  0.00     0.134 C 
HETATM    5  C6  UNL     1      23.155   1.797  50.786  1.00  0.00     0.265 C 
HETATM    6  C12 UNL     1      22.665   1.377  52.171  1.00  0.00    -0.011 C 
HETATM    7  C13 UNL     1      23.126   0.599  53.140  1.00  0.00     0.072 C 
HETATM    8  N3  UNL     1      22.416   0.053  54.232  1.00  0.00    -0.258 NA
HETATM    9  C21 UNL     1      21.124   0.273  54.414  1.00  0.00     0.144 C 
HETATM   10  C22 UNL     1      20.542   0.819  53.184  1.00  0.00     0.054 C 
HETATM   11  N4  UNL     1      19.375   0.128  52.927  1.00  0.00    -0.245 NA
HETATM   12  C23 UNL     1      21.365   1.961  52.641  1.00  0.00     0.099 C 
ENDROOT
BRANCH   7  13
HETATM   13  C14 UNL     1      24.577   0.318  52.985  1.00  0.00     0.001 A 
HETATM   14  C15 UNL     1      25.158  -0.847  52.544  1.00  0.00     0.017 A 
HETATM   15  C16 UNL     1      26.525  -0.980  52.462  1.00  0.00     0.045 A 
HETATM   16  C17 UNL     1      27.366   0.054  52.819  1.00  0.00     0.138 A 
HETATM   17  F1  UNL     1      28.705  -0.174  52.703  1.00  0.00    -0.204 F 
HETATM   18  C18 UNL     1      26.788   1.217  53.258  1.00  0.00     0.079 A 
HETATM   19 CL1  UNL     1      27.931   2.490  53.695  1.00  0.00    -0.080 Cl
HETATM   20  C19 UNL     1      25.419   1.377  53.350  1.00  0.00    -0.025 A 
HETATM   21  C20 UNL     1      24.874   2.681  53.839  1.00  0.00     0.051 C 
ENDBRANCH   7  13
BRANCH   5  22
HETATM   22  N2  UNL     1      22.709   3.161  50.573  1.00  0.00     0.098 N 
HETATM   23  C7  UNL     1      23.592   4.125  51.205  1.00  0.00     0.273 C 
HETATM   24  C8  UNL     1      22.919   5.481  51.082  1.00  0.00     0.030 C 
HETATM   25  C9  UNL     1      23.055   5.865  49.615  1.00  0.00     0.003 C 
HETATM   26  C10 UNL     1      23.375   4.703  48.745  1.00  0.00     0.030 C 
HETATM   27  C11 UNL     1      22.727   3.399  49.145  1.00  0.00     0.273 C 
ENDBRANCH   5  22
BRANCH   1  28
HETATM   28  N1  UNL     1      17.943  -0.267  51.036  1.00  0.00     0.115 N 
HETATM   29  C1  UNL     1      17.165   0.183  49.920  1.00  0.00     0.310 C 
HETATM   30  H4  UNL     1      17.286  -0.652  51.769  1.00  0.00     0.319 HD
ENDBRANCH   1  28
TORSDOF 3
ENDMDL
MODEL 4
REMARK VINA RESULT:      -7.7      3.566      7.259
REMARK  3 active torsions:
REMARK  status: ('A' for Active; 'I' for Inactive)
REMARK    1  A    between atoms: N1_2  and  C2_3 
REMARK    2  A    between atoms: C6_7  and  N2_8 
REMARK    3  A    between atoms: C13_15  and  C14_16 
ROOT
HETATM    1  C2  UNL     1      27.246   8.133  49.055  1.00  0.00     0.421 C 
HETATM    2  C3  UNL     1      26.126   7.817  49.902  1.00  0.00    -0.048 C 
HETATM    3  C4  UNL     1      25.281   7.556  50.537  1.00  0.00    -0.100 C 
HETATM    4  C5  UNL     1      24.172   7.186  51.364  1.00  0.00     0.134 C 
HETATM    5  C6  UNL     1      23.484   6.009  50.536  1.00  0.00     0.265 C 
HETATM    6  C12 UNL     1      24.618   5.259  49.839  1.00  0.00    -0.011 C 
HETATM    7  C13 UNL     1      25.240   4.103  50.025  1.00  0.00     0.072 C 
HETATM    8  N3  UNL     1      26.481   3.686  49.496  1.00  0.00    -0.258 NA
HETATM    9  C21 UNL     1      27.206   4.460  48.704  1.00  0.00     0.144 C 
HETATM   10  C22 UNL     1      26.714   5.839  48.782  1.00  0.00     0.054 C 
HETATM   11  N4  UNL     1      27.806   6.668  48.940  1.00  0.00    -0.245 NA
HETATM   12  C23 UNL     1      25.215   5.902  48.621  1.00  0.00     0.099 C 
ENDROOT
BRANCH   7  13
HETATM   13  C14 UNL     1      24.468   3.192  50.909  1.00  0.00     0.001 A 
HETATM   14  C15 UNL     1      24.642   2.994  52.258  1.00  0.00     0.017 A 
HETATM   15  C16 UNL     1      23.862   2.102  52.958  1.00  0.00     0.045 A 
HETATM   16  C17 UNL     1      22.873   1.373  52.332  1.00  0.00     0.138 A 
HETATM   17  F1  UNL     1      22.155   0.516  53.110  1.00  0.00    -0.204 F 
HETATM   18  C18 UNL     1      22.698   1.570  50.986  1.00  0.00     0.079 A 
HETATM   19 CL1  UNL     1      21.414   0.600  50.259  1.00  0.00    -0.080 Cl
HETATM   20  C19 UNL     1      23.466   2.458  50.259  1.00  0.00    -0.025 A 
HETATM   21  C20 UNL     1      23.206   2.611  48.795  1.00  0.00     0.051 C 
ENDBRANCH   7  13
BRANCH   5  22
HETATM   22  N2  UNL     1      22.753   6.725  49.507  1.00  0.00     0.098 N 
HETATM   23  C7  UNL     1      21.776   5.878  48.847  1.00  0.00     0.273 C 
HETATM   24  C8  UNL     1      21.226   6.673  47.677  1.00  0.00     0.030 C 
HETATM   25  C9  UNL     1      20.332   7.737  48.298  1.00  0.00     0.003 C 
HETATM   26  C10 UNL     1      20.600   7.938  49.746  1.00  0.00     0.030 C 
HETATM   27  C11 UNL     1      22.047   7.807  50.159  1.00  0.00     0.273 C 
ENDBRANCH   5  22
BRANCH   1  28
HETATM   28  N1  UNL     1      28.219   8.907  49.716  1.00  0.00     0.115 N 
HETATM   29  C1  UNL     1      29.497   8.935  49.066  1.00  0.00     0.310 C 
HETATM   30  H4  UNL     1      28.356   8.572  50.708  1.00  0.00     0.319 HD
ENDBRANCH   1  28
TORSDOF 3
ENDMDL
MODEL 5
REMARK VINA RESULT:      -7.3      9.260     11.050
REMARK  3 active torsions:
REMARK  status: ('A' for Active; 'I' for Inactive)
REMARK    1  A    between atoms: N1_2  and  C2_3 
REMARK    2  A    between atoms: C6_7  and  N2_8 
REMARK    3  A    between atoms: C13_15  and  C14_16 
ROOT
HETATM    1  C2  UNL     1      30.247   8.574  48.985  1.00  0.00     0.421 C 
HETATM    2  C3  UNL     1      31.573   8.114  48.667  1.00  0.00    -0.048 C 
HETATM    3  C4  UNL     1      32.572   7.769  48.405  1.00  0.00    -0.100 C 
HETATM    4  C5  UNL     1      33.879   7.317  48.032  1.00  0.00     0.134 C 
HETATM    5  C6  UNL     1      33.608   6.512  46.682  1.00  0.00     0.265 C 
HETATM    6  C12 UNL     1      32.466   7.238  45.974  1.00  0.00    -0.011 C 
HETATM    7  C13 UNL     1      32.367   8.052  44.931  1.00  0.00     0.072 C 
HETATM    8  N3  UNL     1      31.291   8.899  44.585  1.00  0.00    -0.258 NA
HETATM    9  C21 UNL     1      30.192   8.977  45.317  1.00  0.00     0.144 C 
HETATM   10  C22 UNL     1      30.433   8.371  46.630  1.00  0.00     0.054 C 
HETATM   11  N4  UNL     1      29.943   9.234  47.590  1.00  0.00    -0.245 NA
HETATM   12  C23 UNL     1      31.080   7.013  46.503  1.00  0.00     0.099 C 
ENDROOT
BRANCH   7  13
HETATM   13  C14 UNL     1      33.578   8.004  44.072  1.00  0.00     0.001 A 
HETATM   14  C15 UNL     1      33.857   7.101  43.073  1.00  0.00     0.017 A 
HETATM   15  C16 UNL     1      35.033   7.162  42.360  1.00  0.00     0.045 A 
HETATM   16  C17 UNL     1      35.977   8.133  42.621  1.00  0.00     0.138 A 
HETATM   17  F1  UNL     1      37.108   8.110  41.861  1.00  0.00    -0.204 F 
HETATM   18  C18 UNL     1      35.700   9.034  43.616  1.00  0.00     0.079 A 
HETATM   19 CL1  UNL     1      36.958  10.244  43.888  1.00  0.00    -0.080 Cl
HETATM   20  C19 UNL     1      34.529   8.996  44.347  1.00  0.00    -0.025 A 
HETATM   21  C20 UNL     1      34.308  10.019  45.415  1.00  0.00     0.051 C 
ENDBRANCH   7  13
BRANCH   5  22
HETATM   22  N2  UNL     1      33.075   5.250  47.162  1.00  0.00     0.098 N 
HETATM   23  C7  UNL     1      32.829   4.318  46.077  1.00  0.00     0.273 C 
HETATM   24  C8  UNL     1      32.098   3.130  46.678  1.00  0.00     0.030 C 
HETATM   25  C9  UNL     1      33.148   2.380  47.488  1.00  0.00     0.003 C 
HETATM   26  C10 UNL     1      34.346   3.210  47.782  1.00  0.00     0.030 C 
HETATM   27  C11 UNL     1      34.072   4.672  48.039  1.00  0.00     0.273 C 
ENDBRANCH   5  22
BRANCH   1  28
HETATM   28  N1  UNL     1      30.249   9.603  49.946  1.00  0.00     0.115 N 
HETATM   29  C1  UNL     1      30.562  10.901  49.426  1.00  0.00     0.310 C 
HETATM   30  H4  UNL     1      30.924   9.384  50.730  1.00  0.00     0.319 HD
ENDBRANCH   1  28
TORSDOF 3
ENDMDL
MODEL 6
REMARK VINA RESULT:      -7.1      3.496      6.073
REMARK  3 active torsions:
REMARK  status: ('A' for Active; 'I' for Inactive)
REMARK    1  A    between atoms: N1_2  and  C2_3 
REMARK    2  A    between atoms: C6_7  and  N2_8 
REMARK    3  A    between atoms: C13_15  and  C14_16 
ROOT
HETATM    1  C2  UNL     1      26.005   7.558  49.959  1.00  0.00     0.421 C 
HETATM    2  C3  UNL     1      25.759   6.169  49.674  1.00  0.00    -0.048 C 
HETATM    3  C4  UNL     1      25.552   5.120  49.464  1.00  0.00    -0.100 C 
HETATM    4  C5  UNL     1      25.253   3.745  49.199  1.00  0.00     0.134 C 
HETATM    5  C6  UNL     1      24.255   3.361  50.383  1.00  0.00     0.265 C 
HETATM    6  C12 UNL     1      23.433   4.615  50.673  1.00  0.00    -0.011 C 
HETATM    7  C13 UNL     1      22.194   5.013  50.416  1.00  0.00     0.072 C 
HETATM    8  N3  UNL     1      21.672   6.324  50.465  1.00  0.00    -0.258 NA
HETATM    9  C21 UNL     1      22.415   7.368  50.794  1.00  0.00     0.144 C 
HETATM   10  C22 UNL     1      23.833   7.000  50.729  1.00  0.00     0.054 C 
HETATM   11  N4  UNL     1      24.497   7.996  50.042  1.00  0.00    -0.245 NA
HETATM   12  C23 UNL     1      24.103   5.706  51.457  1.00  0.00     0.099 C 
ENDROOT
BRANCH   7  13
HETATM   13  C14 UNL     1      21.313   3.878  50.040  1.00  0.00     0.001 A 
HETATM   14  C15 UNL     1      21.003   3.447  48.772  1.00  0.00     0.017 A 
HETATM   15  C16 UNL     1      20.154   2.384  48.563  1.00  0.00     0.045 A 
HETATM   16  C17 UNL     1      19.582   1.709  49.621  1.00  0.00     0.138 A 
HETATM   17  F1  UNL     1      18.755   0.670  49.312  1.00  0.00    -0.204 F 
HETATM   18  C18 UNL     1      19.889   2.137  50.886  1.00  0.00     0.079 A 
HETATM   19 CL1  UNL     1      19.117   1.222  52.184  1.00  0.00    -0.080 Cl
HETATM   20  C19 UNL     1      20.738   3.201  51.124  1.00  0.00    -0.025 A 
HETATM   21  C20 UNL     1      21.020   3.600  52.537  1.00  0.00     0.051 C 
ENDBRANCH   7  13
BRANCH   5  22
HETATM   22  N2  UNL     1      25.150   3.171  51.509  1.00  0.00     0.098 N 
HETATM   23  C7  UNL     1      24.539   2.380  52.561  1.00  0.00     0.273 C 
HETATM   24  C8  UNL     1      25.486   2.421  53.747  1.00  0.00     0.030 C 
HETATM   25  C9  UNL     1      26.663   1.538  53.351  1.00  0.00     0.003 C 
HETATM   26  C10 UNL     1      26.729   1.293  51.887  1.00  0.00     0.030 C 
HETATM   27  C11 UNL     1      26.308   2.454  51.018  1.00  0.00     0.273 C 
ENDBRANCH   5  22
BRANCH   1  28
HETATM   28  N1  UNL     1      26.583   8.238  48.870  1.00  0.00     0.115 N 
HETATM   29  C1  UNL     1      27.981   8.516  49.017  1.00  0.00     0.310 C 
HETATM   30  H4  UNL     1      26.078   9.147  48.684  1.00  0.00     0.319 HD
ENDBRANCH   1  28
TORSDOF 3
ENDMDL
MODEL 7
REMARK VINA RESULT:      -6.9      3.241      5.481
REMARK  3 active torsions:
REMARK  status: ('A' for Active; 'I' for Inactive)
REMARK    1  A    between atoms: N1_2  and  C2_3 
REMARK    2  A    between atoms: C6_7  and  N2_8 
REMARK    3  A    between atoms: C13_15  and  C14_16 
ROOT
HETATM    1  C2  UNL     1      21.871   9.026  48.456  1.00  0.00     0.421 C 
HETATM    2  C3  UNL     1      22.886   8.497  49.329  1.00  0.00    -0.048 C 
HETATM    3  C4  UNL     1      23.667   8.095  49.973  1.00  0.00    -0.100 C 
HETATM    4  C5  UNL     1      24.710   7.562  50.796  1.00  0.00     0.134 C 
HETATM    5  C6  UNL     1      25.395   6.477  49.849  1.00  0.00     0.265 C 
HETATM    6  C12 UNL     1      25.308   7.034  48.429  1.00  0.00    -0.011 C 
HETATM    7  C13 UNL     1      26.160   7.594  47.580  1.00  0.00     0.072 C 
HETATM    8  N3  UNL     1      25.867   8.349  46.424  1.00  0.00    -0.258 NA
HETATM    9  C21 UNL     1      24.626   8.597  46.038  1.00  0.00     0.144 C 
HETATM   10  C22 UNL     1      23.703   8.299  47.137  1.00  0.00     0.054 C 
HETATM   11  N4  UNL     1      22.825   9.358  47.250  1.00  0.00    -0.245 NA
HETATM   12  C23 UNL     1      23.979   6.943  47.739  1.00  0.00     0.099 C 
ENDROOT
BRANCH   7  13
HETATM   13  C14 UNL     1      27.573   7.346  47.967  1.00  0.00     0.001 A 
HETATM   14  C15 UNL     1      28.265   6.161  47.884  1.00  0.00     0.017 A 
HETATM   15  C16 UNL     1      29.575   6.067  48.294  1.00  0.00     0.045 A 
HETATM   16  C17 UNL     1      30.245   7.159  48.804  1.00  0.00     0.138 A 
HETATM   17  F1  UNL     1      31.540   6.964  49.183  1.00  0.00    -0.204 F 
HETATM   18  C18 UNL     1      29.556   8.341  48.887  1.00  0.00     0.079 A 
HETATM   19 CL1  UNL     1      30.483   9.691  49.549  1.00  0.00    -0.080 Cl
HETATM   20  C19 UNL     1      28.242   8.465  48.483  1.00  0.00    -0.025 A 
HETATM   21  C20 UNL     1      27.567   9.793  48.607  1.00  0.00     0.051 C 
ENDBRANCH   7  13
BRANCH   5  22
HETATM   22  N2  UNL     1      24.474   5.358  49.923  1.00  0.00     0.098 N 
HETATM   23  C7  UNL     1      25.087   4.120  49.479  1.00  0.00     0.273 C 
HETATM   24  C8  UNL     1      23.981   3.081  49.415  1.00  0.00     0.030 C 
HETATM   25  C9  UNL     1      23.654   2.753  50.866  1.00  0.00     0.003 C 
HETATM   26  C10 UNL     1      24.156   3.782  51.814  1.00  0.00     0.030 C 
HETATM   27  C11 UNL     1      24.099   5.205  51.313  1.00  0.00     0.273 C 
ENDBRANCH   5  22
BRANCH   1  28
HETATM   28  N1  UNL     1      21.340  10.243  48.921  1.00  0.00     0.115 N 
HETATM   29  C1  UNL     1      19.950  10.191  49.267  1.00  0.00     0.310 C 
HETATM   30  H4  UNL     1      21.480  11.012  48.210  1.00  0.00     0.319 HD
ENDBRANCH   1  28
TORSDOF 3
ENDMDL
MODEL 8
REMARK VINA RESULT:      -6.8      7.711     10.958
REMARK  3 active torsions:
REMARK  status: ('A' for Active; 'I' for Inactive)
REMARK    1  A    between atoms: N1_2  and  C2_3 
REMARK    2  A    between atoms: C6_7  and  N2_8 
REMARK    3  A    between atoms: C13_15  and  C14_16 
ROOT
HETATM    1  C2  UNL     1      28.751  10.312  48.458  1.00  0.00     0.421 C 
HETATM    2  C3  UNL     1      29.179   9.505  47.346  1.00  0.00    -0.048 C 
HETATM    3  C4  UNL     1      29.519   8.886  46.516  1.00  0.00    -0.100 C 
HETATM    4  C5  UNL     1      29.989   8.064  45.442  1.00  0.00     0.134 C 
HETATM    5  C6  UNL     1      31.573   8.116  45.617  1.00  0.00     0.265 C 
HETATM    6  C12 UNL     1      31.834   8.193  47.120  1.00  0.00    -0.011 C 
HETATM    7  C13 UNL     1      32.250   7.345  48.052  1.00  0.00     0.072 C 
HETATM    8  N3  UNL     1      32.139   7.467  49.454  1.00  0.00    -0.258 NA
HETATM    9  C21 UNL     1      31.566   8.513  50.027  1.00  0.00     0.144 C 
HETATM   10  C22 UNL     1      30.800   9.263  49.027  1.00  0.00     0.054 C 
HETATM   11  N4  UNL     1      29.560   9.539  49.565  1.00  0.00    -0.245 NA
HETATM   12  C23 UNL     1      31.618   9.521  47.785  1.00  0.00     0.099 C 
ENDROOT
BRANCH   7  13
HETATM   13  C14 UNL     1      32.904   6.148  47.461  1.00  0.00     0.001 A 
HETATM   14  C15 UNL     1      34.210   6.030  47.048  1.00  0.00     0.017 A 
HETATM   15  C16 UNL     1      34.684   4.860  46.500  1.00  0.00     0.045 A 
HETATM   16  C17 UNL     1      33.867   3.760  46.346  1.00  0.00     0.138 A 
HETATM   17  F1  UNL     1      34.430   2.649  45.793  1.00  0.00    -0.204 F 
HETATM   18  C18 UNL     1      32.564   3.877  46.757  1.00  0.00     0.079 A 
HETATM   19 CL1  UNL     1      31.584   2.426  46.526  1.00  0.00    -0.080 Cl
HETATM   20  C19 UNL     1      32.062   5.038  47.310  1.00  0.00    -0.025 A 
HETATM   21  C20 UNL     1      30.628   5.077  47.734  1.00  0.00     0.051 C 
ENDBRANCH   7  13
BRANCH   5  22
HETATM   22  N2  UNL     1      31.917   9.411  45.060  1.00  0.00     0.098 N 
HETATM   23  C7  UNL     1      33.352   9.584  44.935  1.00  0.00     0.273 C 
HETATM   24  C8  UNL     1      33.585  11.030  44.534  1.00  0.00     0.030 C 
HETATM   25  C9  UNL     1      33.142  11.120  43.080  1.00  0.00     0.003 C 
HETATM   26  C10 UNL     1      32.278   9.983  42.672  1.00  0.00     0.030 C 
HETATM   27  C11 UNL     1      31.335   9.473  43.735  1.00  0.00     0.273 C 
ENDBRANCH   5  22
BRANCH   1  28
HETATM   28  N1  UNL     1      27.383  10.151  48.746  1.00  0.00     0.115 N 
HETATM   29  C1  UNL     1      27.098   9.163  49.744  1.00  0.00     0.310 C 
HETATM   30  H4  UNL     1      26.840   9.911  47.872  1.00  0.00     0.319 HD
ENDBRANCH   1  28
TORSDOF 3
ENDMDL
MODEL 9
REMARK VINA RESULT:      -6.8      7.091     10.748
REMARK  3 active torsions:
REMARK  status: ('A' for Active; 'I' for Inactive)
REMARK    1  A    between atoms: N1_2  and  C2_3 
REMARK    2  A    between atoms: C6_7  and  N2_8 
REMARK    3  A    between atoms: C13_15  and  C14_16 
ROOT
HETATM    1  C2  UNL     1      28.940   5.976  48.662  1.00  0.00     0.421 C 
HETATM    2  C3  UNL     1      29.224   6.914  47.607  1.00  0.00    -0.048 C 
HETATM    3  C4  UNL     1      29.461   7.620  46.812  1.00  0.00    -0.100 C 
HETATM    4  C5  UNL     1      29.800   8.546  45.775  1.00  0.00     0.134 C 
HETATM    5  C6  UNL     1      31.077   9.297  46.367  1.00  0.00     0.265 C 
HETATM    6  C12 UNL     1      31.839   8.259  47.190  1.00  0.00    -0.011 C 
HETATM    7  C13 UNL     1      32.945   7.548  47.022  1.00  0.00     0.072 C 
HETATM    8  N3  UNL     1      33.356   6.395  47.726  1.00  0.00    -0.258 NA
HETATM    9  C21 UNL     1      32.628   5.864  48.694  1.00  0.00     0.144 C 
HETATM   10  C22 UNL     1      31.270   6.414  48.645  1.00  0.00     0.054 C 
HETATM   11  N4  UNL     1      30.384   5.361  48.752  1.00  0.00    -0.245 NA
HETATM   12  C23 UNL     1      31.286   7.919  48.543  1.00  0.00     0.099 C 
ENDROOT
BRANCH   7  13
HETATM   13  C14 UNL     1      33.803   8.103  45.942  1.00  0.00     0.001 A 
HETATM   14  C15 UNL     1      34.706   9.135  46.042  1.00  0.00     0.017 A 
HETATM   15  C16 UNL     1      35.429   9.561  44.951  1.00  0.00     0.045 A 
HETATM   16  C17 UNL     1      35.276   8.968  43.715  1.00  0.00     0.138 A 
HETATM   17  F1  UNL     1      36.036   9.462  42.698  1.00  0.00    -0.204 F 
HETATM   18  C18 UNL     1      34.376   7.939  43.615  1.00  0.00     0.079 A 
HETATM   19 CL1  UNL     1      34.238   7.233  42.002  1.00  0.00    -0.080 Cl
HETATM   20  C19 UNL     1      33.637   7.490  44.692  1.00  0.00    -0.025 A 
HETATM   21  C20 UNL     1      32.679   6.360  44.493  1.00  0.00     0.051 C 
ENDBRANCH   7  13
BRANCH   5  22
HETATM   22  N2  UNL     1      30.490  10.235  47.307  1.00  0.00     0.098 N 
HETATM   23  C7  UNL     1      31.474  11.166  47.829  1.00  0.00     0.273 C 
HETATM   24  C8  UNL     1      30.789  11.953  48.932  1.00  0.00     0.030 C 
HETATM   25  C9  UNL     1      29.831  12.896  48.217  1.00  0.00     0.003 C 
HETATM   26  C10 UNL     1      29.557  12.483  46.817  1.00  0.00     0.030 C 
HETATM   27  C11 UNL     1      29.489  10.992  46.585  1.00  0.00     0.273 C 
ENDBRANCH   5  22
BRANCH   1  28
HETATM   28  N1  UNL     1      28.069   4.950  48.250  1.00  0.00     0.115 N 
HETATM   29  C1  UNL     1      26.848   4.872  48.998  1.00  0.00     0.310 C 
HETATM   30  H4  UNL     1      28.548   4.010  48.292  1.00  0.00     0.319 HD
ENDBRANCH   1  28
TORSDOF 3
ENDMDL
