MODEL 1
REMARK VINA RESULT:      -7.9      0.000      0.000
REMARK  4 active torsions:
REMARK  status: ('A' for Active; 'I' for Inactive)
REMARK    1  A    between atoms: C1_2  and  C2_3 
REMARK       I    between atoms: C1_2  and  N1_11 
REMARK    2  A    between atoms: C2_3  and  C3_4 
REMARK    3  A    between atoms: N1_11  and  S1_12 
REMARK    4  A    between atoms: S1_12  and  C9_15 
ROOT
HETATM    1  O1  UNL     1      27.343   2.864  51.373  1.00  0.00    -0.272 OA
HETATM    2  C1  UNL     1      26.280   2.841  50.734  1.00  0.00     0.235 C 
HETATM    3  N1  UNL     1      25.037   2.355  51.278  1.00  0.00    -0.250 N 
HETATM    4  H7  UNL     1      24.145   2.337  50.737  1.00  0.00     0.181 HD
ENDROOT
BRANCH   3   5
HETATM    5  S1  UNL     1      25.076   1.778  52.925  1.00  0.00     0.265 S 
HETATM    6  O2  UNL     1      25.081   2.920  53.878  1.00  0.00    -0.200 OA
HETATM    7  O3  UNL     1      23.785   1.008  53.166  1.00  0.00    -0.200 OA
BRANCH   5   8
HETATM    8  C9  UNL     1      26.363   0.642  53.166  1.00  0.00     0.080 A 
HETATM    9  C10 UNL     1      26.260  -0.498  52.402  1.00  0.00     0.027 A 
HETATM   10  C11 UNL     1      27.215  -1.515  52.476  1.00  0.00     0.025 A 
HETATM   11  C12 UNL     1      28.278  -1.340  53.349  1.00  0.00     0.034 A 
HETATM   12 CL1  UNL     1      29.503  -2.582  53.481  1.00  0.00    -0.084 Cl
HETATM   13  C13 UNL     1      28.379  -0.188  54.120  1.00  0.00     0.025 A 
HETATM   14  C14 UNL     1      27.423   0.810  54.035  1.00  0.00     0.027 A 
ENDBRANCH   5   8
ENDBRANCH   3   5
BRANCH   2  15
HETATM   15  C2  UNL     1      26.188   3.316  49.340  1.00  0.00     0.142 C 
BRANCH  15  16
HETATM   16  C3  UNL     1      26.592   4.711  49.143  1.00  0.00    -0.048 A 
HETATM   17  C4  UNL     1      27.812   4.977  48.522  1.00  0.00     0.007 A 
HETATM   18  C5  UNL     1      28.276   6.258  48.295  1.00  0.00     0.002 A 
HETATM   19  C6  UNL     1      27.519   7.344  48.689  1.00  0.00     0.019 A 
HETATM   20  C7  UNL     1      26.314   7.078  49.303  1.00  0.00     0.011 A 
HETATM   21 BR1  UNL     1      25.224   8.561  49.870  1.00  0.00    -0.051 Br
HETATM   22  C8  UNL     1      25.822   5.806  49.545  1.00  0.00     0.026 A 
ENDBRANCH  15  16
ENDBRANCH   2  15
TORSDOF 4
ENDMDL
MODEL 2
REMARK VINA RESULT:      -7.7      1.205      1.588
REMARK  4 active torsions:
REMARK  status: ('A' for Active; 'I' for Inactive)
REMARK    1  A    between atoms: C1_2  and  C2_3 
REMARK       I    between atoms: C1_2  and  N1_11 
REMARK    2  A    between atoms: C2_3  and  C3_4 
REMARK    3  A    between atoms: N1_11  and  S1_12 
REMARK    4  A    between atoms: S1_12  and  C9_15 
ROOT
HETATM    1  O1  UNL     1      27.273   2.888  51.349  1.00  0.00    -0.272 OA
HETATM    2  C1  UNL     1      26.203   2.897  50.723  1.00  0.00     0.235 C 
HETATM    3  N1  UNL     1      24.954   2.443  51.280  1.00  0.00    -0.250 N 
HETATM    4  H7  UNL     1      24.055   2.452  50.748  1.00  0.00     0.181 HD
ENDROOT
BRANCH   3   5
HETATM    5  S1  UNL     1      24.995   1.859  52.924  1.00  0.00     0.265 S 
HETATM    6  O2  UNL     1      25.022   2.996  53.881  1.00  0.00    -0.200 OA
HETATM    7  O3  UNL     1      23.696   1.104  53.170  1.00  0.00    -0.200 OA
BRANCH   5   8
HETATM    8  C9  UNL     1      26.269   0.704  53.151  1.00  0.00     0.080 A 
HETATM    9  C10 UNL     1      26.155  -0.423  52.370  1.00  0.00     0.027 A 
HETATM   10  C11 UNL     1      27.099  -1.451  52.431  1.00  0.00     0.025 A 
HETATM   11  C12 UNL     1      28.161  -1.301  53.310  1.00  0.00     0.034 A 
HETATM   12 CL1  UNL     1      29.371  -2.559  53.426  1.00  0.00    -0.084 Cl
HETATM   13  C13 UNL     1      28.273  -0.162  54.098  1.00  0.00     0.025 A 
HETATM   14  C14 UNL     1      27.328   0.848  54.025  1.00  0.00     0.027 A 
ENDBRANCH   5   8
ENDBRANCH   3   5
BRANCH   2  15
HETATM   15  C2  UNL     1      26.108   3.381  49.331  1.00  0.00     0.142 C 
BRANCH  15  16
HETATM   16  C3  UNL     1      26.599   4.746  49.126  1.00  0.00    -0.048 A 
HETATM   17  C4  UNL     1      25.810   5.815  49.547  1.00  0.00     0.007 A 
HETATM   18  C5  UNL     1      26.189   7.135  49.396  1.00  0.00     0.002 A 
HETATM   19  C6  UNL     1      27.400   7.440  48.804  1.00  0.00     0.019 A 
HETATM   20  C7  UNL     1      28.177   6.380  48.388  1.00  0.00     0.011 A 
HETATM   21 BR1  UNL     1      29.873   6.755  47.558  1.00  0.00    -0.051 Br
HETATM   22  C8  UNL     1      27.824   5.047  48.526  1.00  0.00     0.026 A 
ENDBRANCH  15  16
ENDBRANCH   2  15
TORSDOF 4
ENDMDL
MODEL 3
REMARK VINA RESULT:      -7.7      3.965      4.729
REMARK  4 active torsions:
REMARK  status: ('A' for Active; 'I' for Inactive)
REMARK    1  A    between atoms: C1_2  and  C2_3 
REMARK       I    between atoms: C1_2  and  N1_11 
REMARK    2  A    between atoms: C2_3  and  C3_4 
REMARK    3  A    between atoms: N1_11  and  S1_12 
REMARK    4  A    between atoms: S1_12  and  C9_15 
ROOT
HETATM    1  O1  UNL     1      26.706  -0.077  51.591  1.00  0.00    -0.272 OA
HETATM    2  C1  UNL     1      26.607   0.966  52.255  1.00  0.00     0.235 C 
HETATM    3  N1  UNL     1      26.047   1.012  53.582  1.00  0.00    -0.250 N 
HETATM    4  H7  UNL     1      25.966   1.893  54.137  1.00  0.00     0.181 HD
ENDROOT
BRANCH   3   5
HETATM    5  S1  UNL     1      25.492  -0.501  54.251  1.00  0.00     0.265 S 
HETATM    6  O2  UNL     1      26.253  -1.639  53.670  1.00  0.00    -0.200 OA
HETATM    7  O3  UNL     1      25.800  -0.478  55.741  1.00  0.00    -0.200 OA
BRANCH   5   8
HETATM    8  C9  UNL     1      23.770  -0.655  54.121  1.00  0.00     0.080 A 
HETATM    9  C10 UNL     1      23.238  -0.099  52.979  1.00  0.00     0.027 A 
HETATM   10  C11 UNL     1      21.865  -0.137  52.721  1.00  0.00     0.025 A 
HETATM   11  C12 UNL     1      21.049  -0.755  53.656  1.00  0.00     0.034 A 
HETATM   12 CL1  UNL     1      19.323  -0.830  53.382  1.00  0.00    -0.084 Cl
HETATM   13  C13 UNL     1      21.589  -1.314  54.808  1.00  0.00     0.025 A 
HETATM   14  C14 UNL     1      22.952  -1.268  55.049  1.00  0.00     0.027 A 
ENDBRANCH   5   8
ENDBRANCH   3   5
BRANCH   2  15
HETATM   15  C2  UNL     1      27.060   2.274  51.741  1.00  0.00     0.142 C 
BRANCH  15  16
HETATM   16  C3  UNL     1      26.100   2.951  50.865  1.00  0.00    -0.048 A 
HETATM   17  C4  UNL     1      26.558   3.954  50.013  1.00  0.00     0.007 A 
HETATM   18  C5  UNL     1      25.728   4.647  49.153  1.00  0.00     0.002 A 
HETATM   19  C6  UNL     1      24.379   4.353  49.113  1.00  0.00     0.019 A 
HETATM   20  C7  UNL     1      23.929   3.361  49.958  1.00  0.00     0.011 A 
HETATM   21 BR1  UNL     1      22.056   2.916  49.937  1.00  0.00    -0.051 Br
HETATM   22  C8  UNL     1      24.736   2.650  50.830  1.00  0.00     0.026 A 
ENDBRANCH  15  16
ENDBRANCH   2  15
TORSDOF 4
ENDMDL
MODEL 4
REMARK VINA RESULT:      -7.7      3.326      3.841
REMARK  4 active torsions:
REMARK  status: ('A' for Active; 'I' for Inactive)
REMARK    1  A    between atoms: C1_2  and  C2_3 
REMARK       I    between atoms: C1_2  and  N1_11 
REMARK    2  A    between atoms: C2_3  and  C3_4 
REMARK    3  A    between atoms: N1_11  and  S1_12 
REMARK    4  A    between atoms: S1_12  and  C9_15 
ROOT
HETATM    1  O1  UNL     1      27.379   2.724  51.650  1.00  0.00    -0.272 OA
HETATM    2  C1  UNL     1      26.446   2.588  50.845  1.00  0.00     0.235 C 
HETATM    3  N1  UNL     1      25.176   2.003  51.192  1.00  0.00    -0.250 N 
HETATM    4  H7  UNL     1      24.394   1.890  50.510  1.00  0.00     0.181 HD
ENDROOT
BRANCH   3   5
HETATM    5  S1  UNL     1      24.984   1.471  52.843  1.00  0.00     0.265 S 
HETATM    6  O2  UNL     1      26.143   0.637  53.261  1.00  0.00    -0.200 OA
HETATM    7  O3  UNL     1      24.994   2.713  53.724  1.00  0.00    -0.200 OA
BRANCH   5   8
HETATM    8  C9  UNL     1      23.440   0.722  53.090  1.00  0.00     0.080 A 
HETATM    9  C10 UNL     1      22.393   1.372  52.478  1.00  0.00     0.027 A 
HETATM   10  C11 UNL     1      21.082   0.899  52.578  1.00  0.00     0.025 A 
HETATM   11  C12 UNL     1      20.866  -0.253  53.318  1.00  0.00     0.034 A 
HETATM   12 CL1  UNL     1      19.244  -0.889  53.475  1.00  0.00    -0.084 Cl
HETATM   13  C13 UNL     1      21.926  -0.908  53.935  1.00  0.00     0.025 A 
HETATM   14  C14 UNL     1      23.219  -0.425  53.827  1.00  0.00     0.027 A 
ENDBRANCH   5   8
ENDBRANCH   3   5
BRANCH   2  15
HETATM   15  C2  UNL     1      26.551   3.020  49.437  1.00  0.00     0.142 C 
BRANCH  15  16
HETATM   16  C3  UNL     1      26.680   4.468  49.252  1.00  0.00    -0.048 A 
HETATM   17  C4  UNL     1      27.787   4.962  48.562  1.00  0.00     0.007 A 
HETATM   18  C5  UNL     1      27.993   6.310  48.340  1.00  0.00     0.002 A 
HETATM   19  C6  UNL     1      27.078   7.233  48.808  1.00  0.00     0.019 A 
HETATM   20  C7  UNL     1      25.985   6.741  49.490  1.00  0.00     0.011 A 
HETATM   21 BR1  UNL     1      24.683   7.990  50.161  1.00  0.00    -0.051 Br
HETATM   22  C8  UNL     1      25.751   5.396  49.728  1.00  0.00     0.026 A 
ENDBRANCH  15  16
ENDBRANCH   2  15
TORSDOF 4
ENDMDL
MODEL 5
REMARK VINA RESULT:      -7.5      3.991      7.296
REMARK  4 active torsions:
REMARK  status: ('A' for Active; 'I' for Inactive)
REMARK    1  A    between atoms: C1_2  and  C2_3 
REMARK       I    between atoms: C1_2  and  N1_11 
REMARK    2  A    between atoms: C2_3  and  C3_4 
REMARK    3  A    between atoms: N1_11  and  S1_12 
REMARK    4  A    between atoms: S1_12  and  C9_15 
ROOT
HETATM    1  O1  UNL     1      23.065   3.138  51.587  1.00  0.00    -0.272 OA
HETATM    2  C1  UNL     1      24.206   3.278  52.052  1.00  0.00     0.235 C 
HETATM    3  N1  UNL     1      25.270   3.953  51.353  1.00  0.00    -0.250 N 
HETATM    4  H7  UNL     1      26.230   4.069  51.748  1.00  0.00     0.181 HD
ENDROOT
BRANCH   3   5
HETATM    5  S1  UNL     1      24.890   4.589  49.773  1.00  0.00     0.265 S 
HETATM    6  O2  UNL     1      24.205   3.560  48.948  1.00  0.00    -0.200 OA
HETATM    7  O3  UNL     1      23.899   5.728  49.970  1.00  0.00    -0.200 OA
BRANCH   5   8
HETATM    8  C9  UNL     1      26.285   5.293  49.023  1.00  0.00     0.080 A 
HETATM    9  C10 UNL     1      26.096   6.581  48.574  1.00  0.00     0.027 A 
HETATM   10  C11 UNL     1      27.121   7.293  47.946  1.00  0.00     0.025 A 
HETATM   11  C12 UNL     1      28.343   6.659  47.786  1.00  0.00     0.034 A 
HETATM   12 CL1  UNL     1      29.661   7.505  47.006  1.00  0.00    -0.084 Cl
HETATM   13  C13 UNL     1      28.531   5.359  48.240  1.00  0.00     0.025 A 
HETATM   14  C14 UNL     1      27.504   4.667  48.860  1.00  0.00     0.027 A 
ENDBRANCH   5   8
ENDBRANCH   3   5
BRANCH   2  15
HETATM   15  C2  UNL     1      24.585   2.762  53.383  1.00  0.00     0.142 C 
BRANCH  15  16
HETATM   16  C3  UNL     1      25.423   1.561  53.354  1.00  0.00    -0.048 A 
HETATM   17  C4  UNL     1      24.822   0.327  53.108  1.00  0.00     0.007 A 
HETATM   18  C5  UNL     1      25.529  -0.859  53.062  1.00  0.00     0.002 A 
HETATM   19  C6  UNL     1      26.896  -0.853  53.264  1.00  0.00     0.019 A 
HETATM   20  C7  UNL     1      27.487   0.369  53.508  1.00  0.00     0.011 A 
HETATM   21 BR1  UNL     1      29.390   0.427  53.797  1.00  0.00    -0.051 Br
HETATM   22  C8  UNL     1      26.805   1.573  53.560  1.00  0.00     0.026 A 
ENDBRANCH  15  16
ENDBRANCH   2  15
TORSDOF 4
ENDMDL
MODEL 6
REMARK VINA RESULT:      -7.3      3.500      6.615
REMARK  4 active torsions:
REMARK  status: ('A' for Active; 'I' for Inactive)
REMARK    1  A    between atoms: C1_2  and  C2_3 
REMARK       I    between atoms: C1_2  and  N1_11 
REMARK    2  A    between atoms: C2_3  and  C3_4 
REMARK    3  A    between atoms: N1_11  and  S1_12 
REMARK    4  A    between atoms: S1_12  and  C9_15 
ROOT
HETATM    1  O1  UNL     1      23.887   3.065  53.000  1.00  0.00    -0.272 OA
HETATM    2  C1  UNL     1      23.765   1.922  52.535  1.00  0.00     0.235 C 
HETATM    3  N1  UNL     1      23.312   1.655  51.193  1.00  0.00    -0.250 N 
HETATM    4  H7  UNL     1      23.211   0.691  50.806  1.00  0.00     0.181 HD
ENDROOT
BRANCH   3   5
HETATM    5  S1  UNL     1      22.924   3.042  50.207  1.00  0.00     0.265 S 
HETATM    6  O2  UNL     1      22.007   2.656  49.103  1.00  0.00    -0.200 OA
HETATM    7  O3  UNL     1      22.166   4.026  51.088  1.00  0.00    -0.200 OA
BRANCH   5   8
HETATM    8  C9  UNL     1      24.357   3.870  49.689  1.00  0.00     0.080 A 
HETATM    9  C10 UNL     1      25.509   3.124  49.795  1.00  0.00     0.027 A 
HETATM   10  C11 UNL     1      26.750   3.643  49.418  1.00  0.00     0.025 A 
HETATM   11  C12 UNL     1      26.788   4.940  48.932  1.00  0.00     0.034 A 
HETATM   12 CL1  UNL     1      28.317   5.639  48.447  1.00  0.00    -0.084 Cl
HETATM   13  C13 UNL     1      25.623   5.691  48.828  1.00  0.00     0.025 A 
HETATM   14  C14 UNL     1      24.400   5.162  49.205  1.00  0.00     0.027 A 
ENDBRANCH   5   8
ENDBRANCH   3   5
BRANCH   2  15
HETATM   15  C2  UNL     1      24.080   0.713  53.321  1.00  0.00     0.142 C 
BRANCH  15  16
HETATM   16  C3  UNL     1      25.491   0.319  53.294  1.00  0.00    -0.048 A 
HETATM   17  C4  UNL     1      25.825  -0.958  52.845  1.00  0.00     0.007 A 
HETATM   18  C5  UNL     1      27.126  -1.418  52.785  1.00  0.00     0.002 A 
HETATM   19  C6  UNL     1      28.165  -0.597  53.179  1.00  0.00     0.019 A 
HETATM   20  C7  UNL     1      27.831   0.665  53.624  1.00  0.00     0.011 A 
HETATM   21 BR1  UNL     1      29.246   1.844  54.185  1.00  0.00    -0.051 Br
HETATM   22  C8  UNL     1      26.537   1.153  53.696  1.00  0.00     0.026 A 
ENDBRANCH  15  16
ENDBRANCH   2  15
TORSDOF 4
ENDMDL
MODEL 7
REMARK VINA RESULT:      -7.2      4.861      6.666
REMARK  4 active torsions:
REMARK  status: ('A' for Active; 'I' for Inactive)
REMARK    1  A    between atoms: C1_2  and  C2_3 
REMARK       I    between atoms: C1_2  and  N1_11 
REMARK    2  A    between atoms: C2_3  and  C3_4 
REMARK    3  A    between atoms: N1_11  and  S1_12 
REMARK    4  A    between atoms: S1_12  and  C9_15 
ROOT
HETATM    1  O1  UNL     1      22.263   3.110  51.665  1.00  0.00    -0.272 OA
HETATM    2  C1  UNL     1      22.501   1.976  51.223  1.00  0.00     0.235 C 
HETATM    3  N1  UNL     1      23.794   1.346  51.308  1.00  0.00    -0.250 N 
HETATM    4  H7  UNL     1      23.990   0.391  50.934  1.00  0.00     0.181 HD
ENDROOT
BRANCH   3   5
HETATM    5  S1  UNL     1      25.063   2.263  52.079  1.00  0.00     0.265 S 
HETATM    6  O2  UNL     1      25.447   3.430  51.240  1.00  0.00    -0.200 OA
HETATM    7  O3  UNL     1      24.495   2.820  53.377  1.00  0.00    -0.200 OA
BRANCH   5   8
HETATM    8  C9  UNL     1      26.390   1.245  52.535  1.00  0.00     0.080 A 
HETATM    9  C10 UNL     1      27.475   1.925  53.041  1.00  0.00     0.027 A 
HETATM   10  C11 UNL     1      28.627   1.253  53.457  1.00  0.00     0.025 A 
HETATM   11  C12 UNL     1      28.647  -0.128  53.342  1.00  0.00     0.034 A 
HETATM   12 CL1  UNL     1      30.065  -1.019  53.848  1.00  0.00    -0.084 Cl
HETATM   13  C13 UNL     1      27.550  -0.812  52.830  1.00  0.00     0.025 A 
HETATM   14  C14 UNL     1      26.416  -0.130  52.422  1.00  0.00     0.027 A 
ENDBRANCH   5   8
ENDBRANCH   3   5
BRANCH   2  15
HETATM   15  C2  UNL     1      21.467   1.154  50.563  1.00  0.00     0.142 C 
BRANCH  15  16
HETATM   16  C3  UNL     1      20.564   0.457  51.482  1.00  0.00    -0.048 A 
HETATM   17  C4  UNL     1      21.082  -0.069  52.665  1.00  0.00     0.007 A 
HETATM   18  C5  UNL     1      20.309  -0.742  53.591  1.00  0.00     0.002 A 
HETATM   19  C6  UNL     1      18.957  -0.915  53.362  1.00  0.00     0.019 A 
HETATM   20  C7  UNL     1      18.448  -0.394  52.192  1.00  0.00     0.011 A 
HETATM   21 BR1  UNL     1      16.570  -0.612  51.830  1.00  0.00    -0.051 Br
HETATM   22  C8  UNL     1      19.198   0.284  51.245  1.00  0.00     0.026 A 
ENDBRANCH  15  16
ENDBRANCH   2  15
TORSDOF 4
ENDMDL
MODEL 8
REMARK VINA RESULT:      -7.1      5.225      7.004
REMARK  4 active torsions:
REMARK  status: ('A' for Active; 'I' for Inactive)
REMARK    1  A    between atoms: C1_2  and  C2_3 
REMARK       I    between atoms: C1_2  and  N1_11 
REMARK    2  A    between atoms: C2_3  and  C3_4 
REMARK    3  A    between atoms: N1_11  and  S1_12 
REMARK    4  A    between atoms: S1_12  and  C9_15 
ROOT
HETATM    1  O1  UNL     1      22.493   1.697  49.452  1.00  0.00    -0.272 OA
HETATM    2  C1  UNL     1      21.604   2.068  50.233  1.00  0.00     0.235 C 
HETATM    3  N1  UNL     1      21.822   3.022  51.290  1.00  0.00    -0.250 N 
HETATM    4  H7  UNL     1      21.070   3.331  51.945  1.00  0.00     0.181 HD
ENDROOT
BRANCH   3   5
HETATM    5  S1  UNL     1      23.438   3.663  51.445  1.00  0.00     0.265 S 
HETATM    6  O2  UNL     1      23.785   4.494  50.261  1.00  0.00    -0.200 OA
HETATM    7  O3  UNL     1      23.445   4.589  52.653  1.00  0.00    -0.200 OA
BRANCH   5   8
HETATM    8  C9  UNL     1      24.584   2.410  51.797  1.00  0.00     0.080 A 
HETATM    9  C10 UNL     1      24.136   1.474  52.702  1.00  0.00     0.027 A 
HETATM   10  C11 UNL     1      24.936   0.397  53.094  1.00  0.00     0.025 A 
HETATM   11  C12 UNL     1      26.204   0.300  52.542  1.00  0.00     0.034 A 
HETATM   12 CL1  UNL     1      27.247  -1.028  52.999  1.00  0.00    -0.084 Cl
HETATM   13  C13 UNL     1      26.653   1.247  51.630  1.00  0.00     0.025 A 
HETATM   14  C14 UNL     1      25.848   2.308  51.251  1.00  0.00     0.027 A 
ENDBRANCH   5   8
ENDBRANCH   3   5
BRANCH   2  15
HETATM   15  C2  UNL     1      20.219   1.561  50.149  1.00  0.00     0.142 C 
BRANCH  15  16
HETATM   16  C3  UNL     1      19.827   0.676  51.249  1.00  0.00    -0.048 A 
HETATM   17  C4  UNL     1      18.499   0.262  51.339  1.00  0.00     0.007 A 
HETATM   18  C5  UNL     1      18.037  -0.570  52.340  1.00  0.00     0.002 A 
HETATM   19  C6  UNL     1      18.907  -1.030  53.310  1.00  0.00     0.019 A 
HETATM   20  C7  UNL     1      20.220  -0.617  53.219  1.00  0.00     0.011 A 
HETATM   21 BR1  UNL     1      21.470  -1.232  54.548  1.00  0.00    -0.051 Br
HETATM   22  C8  UNL     1      20.712   0.216  52.228  1.00  0.00     0.026 A 
ENDBRANCH  15  16
ENDBRANCH   2  15
TORSDOF 4
ENDMDL
MODEL 9
REMARK VINA RESULT:      -7.0      4.343      5.083
REMARK  4 active torsions:
REMARK  status: ('A' for Active; 'I' for Inactive)
REMARK    1  A    between atoms: C1_2  and  C2_3 
REMARK       I    between atoms: C1_2  and  N1_11 
REMARK    2  A    between atoms: C2_3  and  C3_4 
REMARK    3  A    between atoms: N1_11  and  S1_12 
REMARK    4  A    between atoms: S1_12  and  C9_15 
ROOT
HETATM    1  O1  UNL     1      21.762   4.449  51.877  1.00  0.00    -0.272 OA
HETATM    2  C1  UNL     1      21.820   3.996  50.725  1.00  0.00     0.235 C 
HETATM    3  N1  UNL     1      21.104   2.820  50.297  1.00  0.00    -0.250 N 
HETATM    4  H7  UNL     1      21.156   2.442  49.325  1.00  0.00     0.181 HD
ENDROOT
BRANCH   3   5
HETATM    5  S1  UNL     1      20.117   2.025  51.496  1.00  0.00     0.265 S 
HETATM    6  O2  UNL     1      19.253   3.012  52.198  1.00  0.00    -0.200 OA
HETATM    7  O3  UNL     1      19.188   1.071  50.759  1.00  0.00    -0.200 OA
BRANCH   5   8
HETATM    8  C9  UNL     1      21.076   1.039  52.551  1.00  0.00     0.080 A 
HETATM    9  C10 UNL     1      20.464   0.725  53.743  1.00  0.00     0.027 A 
HETATM   10  C11 UNL     1      21.100  -0.063  54.705  1.00  0.00     0.025 A 
HETATM   11  C12 UNL     1      22.377  -0.522  54.422  1.00  0.00     0.034 A 
HETATM   12 CL1  UNL     1      23.220  -1.512  55.593  1.00  0.00    -0.084 Cl
HETATM   13  C13 UNL     1      22.993  -0.203  53.218  1.00  0.00     0.025 A 
HETATM   14  C14 UNL     1      22.348   0.579  52.275  1.00  0.00     0.027 A 
ENDBRANCH   5   8
ENDBRANCH   3   5
BRANCH   2  15
HETATM   15  C2  UNL     1      22.637   4.626  49.669  1.00  0.00     0.142 C 
BRANCH  15  16
HETATM   16  C3  UNL     1      24.065   4.301  49.728  1.00  0.00    -0.048 A 
HETATM   17  C4  UNL     1      24.963   5.078  48.998  1.00  0.00     0.007 A 
HETATM   18  C5  UNL     1      26.325   4.847  48.991  1.00  0.00     0.002 A 
HETATM   19  C6  UNL     1      26.850   3.806  49.733  1.00  0.00     0.019 A 
HETATM   20  C7  UNL     1      25.959   3.039  50.453  1.00  0.00     0.011 A 
HETATM   21 BR1  UNL     1      26.644   1.577  51.501  1.00  0.00    -0.051 Br
HETATM   22  C8  UNL     1      24.589   3.246  50.479  1.00  0.00     0.026 A 
ENDBRANCH  15  16
ENDBRANCH   2  15
TORSDOF 4
ENDMDL
