MODEL 1
REMARK VINA RESULT:      -8.5      0.000      0.000
REMARK  4 active torsions:
REMARK  status: ('A' for Active; 'I' for Inactive)
REMARK    1  A    between atoms: O1_2  and  C2_3 
REMARK    2  A    between atoms: C7_8  and  C8_9 
REMARK    3  A    between atoms: C8_9  and  O2_10 
REMARK    4  A    between atoms: O2_10  and  C9_11 
ROOT
HETATM    1  C9  UNL     1      22.517  -0.794  53.671  1.00  0.00     0.043 C 
HETATM    2  C10 UNL     1      23.257  -1.113  54.746  1.00  0.00     0.006 C 
HETATM    3  C11 UNL     1      24.708  -0.898  54.986  1.00  0.00     0.041 C 
HETATM    4  C12 UNL     1      25.362  -0.044  53.922  1.00  0.00    -0.002 C 
HETATM    5  C13 UNL     1      24.363   0.789  53.174  1.00  0.00     0.018 C 
HETATM    6  C14 UNL     1      23.309  -0.135  52.601  1.00  0.00     0.065 C 
HETATM    7  C15 UNL     1      26.034  -0.967  52.927  1.00  0.00     0.042 C 
HETATM    8  C16 UNL     1      27.509  -0.825  53.084  1.00  0.00     0.274 C 
HETATM    9  N1  UNL     1      27.708  -0.027  54.242  1.00  0.00     0.098 N 
HETATM   10  C17 UNL     1      28.919   0.721  54.275  1.00  0.00     0.299 C 
HETATM   11  C18 UNL     1      28.829   2.066  53.605  1.00  0.00     0.198 C 
HETATM   12  O3  UNL     1      27.575   2.230  52.971  1.00  0.00    -0.387 OA
HETATM   13  C19 UNL     1      26.643   2.138  54.022  1.00  0.00     0.204 C 
HETATM   14  C20 UNL     1      26.513   0.733  54.485  1.00  0.00     0.255 C 
ENDROOT
BRANCH   1  15
HETATM   15  O2  UNL     1      21.181  -1.120  53.734  1.00  0.00    -0.351 OA
BRANCH  15  16
HETATM   16  C8  UNL     1      20.138  -0.207  53.859  1.00  0.00     0.216 C 
BRANCH  16  17
HETATM   17  C7  UNL     1      19.235  -0.143  52.675  1.00  0.00    -0.001 A 
HETATM   18  C2  UNL     1      17.992  -0.699  52.528  1.00  0.00     0.076 A 
HETATM   19  C3  UNL     1      17.277  -0.552  51.368  1.00  0.00     0.037 A 
HETATM   20  C4  UNL     1      17.746   0.154  50.283  1.00  0.00     0.003 A 
HETATM   21  C5  UNL     1      19.004   0.728  50.406  1.00  0.00     0.001 A 
HETATM   22  C6  UNL     1      19.718   0.576  51.576  1.00  0.00     0.012 A 
BRANCH  18  23
HETATM   23  O1  UNL     1      17.535  -1.412  53.642  1.00  0.00    -0.355 OA
HETATM   24  C1  UNL     1      17.616  -2.831  53.541  1.00  0.00     0.210 C 
ENDBRANCH  18  23
ENDBRANCH  16  17
ENDBRANCH  15  16
ENDBRANCH   1  15
TORSDOF 4
ENDMDL
MODEL 2
REMARK VINA RESULT:      -8.3      1.463      2.133
REMARK  4 active torsions:
REMARK  status: ('A' for Active; 'I' for Inactive)
REMARK    1  A    between atoms: O1_2  and  C2_3 
REMARK    2  A    between atoms: C7_8  and  C8_9 
REMARK    3  A    between atoms: C8_9  and  O2_10 
REMARK    4  A    between atoms: O2_10  and  C9_11 
ROOT
HETATM    1  C9  UNL     1      22.856   0.566  53.298  1.00  0.00     0.043 C 
HETATM    2  C10 UNL     1      23.752   1.408  52.757  1.00  0.00     0.006 C 
HETATM    3  C11 UNL     1      25.237   1.334  52.763  1.00  0.00     0.041 C 
HETATM    4  C12 UNL     1      25.760   0.024  53.312  1.00  0.00    -0.002 C 
HETATM    5  C13 UNL     1      24.728  -1.064  53.253  1.00  0.00     0.018 C 
HETATM    6  C14 UNL     1      23.492  -0.586  53.987  1.00  0.00     0.065 C 
HETATM    7  C15 UNL     1      26.126   0.237  54.765  1.00  0.00     0.042 C 
HETATM    8  C16 UNL     1      27.611   0.177  54.883  1.00  0.00     0.274 C 
HETATM    9  N1  UNL     1      28.111   0.141  53.554  1.00  0.00     0.098 N 
HETATM   10  C17 UNL     1      29.378  -0.488  53.389  1.00  0.00     0.299 C 
HETATM   11  C18 UNL     1      29.302  -1.978  53.190  1.00  0.00     0.198 C 
HETATM   12  O3  UNL     1      27.974  -2.440  53.343  1.00  0.00    -0.387 OA
HETATM   13  C19 UNL     1      27.257  -1.769  52.334  1.00  0.00     0.204 C 
HETATM   14  C20 UNL     1      27.072  -0.339  52.686  1.00  0.00     0.255 C 
ENDROOT
BRANCH   1  15
HETATM   15  O2  UNL     1      21.531   0.898  53.130  1.00  0.00    -0.351 OA
BRANCH  15  16
HETATM   16  C8  UNL     1      20.453   0.064  53.413  1.00  0.00     0.216 C 
BRANCH  16  17
HETATM   17  C7  UNL     1      19.391   0.060  52.368  1.00  0.00    -0.001 A 
HETATM   18  C2  UNL     1      18.138  -0.488  52.438  1.00  0.00     0.076 A 
HETATM   19  C3  UNL     1      17.265  -0.411  51.384  1.00  0.00     0.037 A 
HETATM   20  C4  UNL     1      17.577   0.213  50.197  1.00  0.00     0.003 A 
HETATM   21  C5  UNL     1      18.842   0.776  50.100  1.00  0.00     0.001 A 
HETATM   22  C6  UNL     1      19.715   0.695  51.164  1.00  0.00     0.012 A 
BRANCH  18  23
HETATM   23  O1  UNL     1      17.841  -1.117  53.653  1.00  0.00    -0.355 OA
HETATM   24  C1  UNL     1      17.757  -2.538  53.607  1.00  0.00     0.210 C 
ENDBRANCH  18  23
ENDBRANCH  16  17
ENDBRANCH  15  16
ENDBRANCH   1  15
TORSDOF 4
ENDMDL
MODEL 3
REMARK VINA RESULT:      -8.1      0.940      1.860
REMARK  4 active torsions:
REMARK  status: ('A' for Active; 'I' for Inactive)
REMARK    1  A    between atoms: O1_2  and  C2_3 
REMARK    2  A    between atoms: C7_8  and  C8_9 
REMARK    3  A    between atoms: C8_9  and  O2_10 
REMARK    4  A    between atoms: O2_10  and  C9_11 
ROOT
HETATM    1  C9  UNL     1      22.578  -0.951  53.797  1.00  0.00     0.043 C 
HETATM    2  C10 UNL     1      23.356  -1.203  54.862  1.00  0.00     0.006 C 
HETATM    3  C11 UNL     1      24.801  -0.915  55.062  1.00  0.00     0.041 C 
HETATM    4  C12 UNL     1      25.390  -0.063  53.959  1.00  0.00    -0.002 C 
HETATM    5  C13 UNL     1      24.336   0.700  53.211  1.00  0.00     0.018 C 
HETATM    6  C14 UNL     1      23.315  -0.288  52.690  1.00  0.00     0.065 C 
HETATM    7  C15 UNL     1      26.082  -0.983  52.975  1.00  0.00     0.042 C 
HETATM    8  C16 UNL     1      27.552  -0.768  53.093  1.00  0.00     0.274 C 
HETATM    9  N1  UNL     1      27.738   0.073  54.223  1.00  0.00     0.098 N 
HETATM   10  C17 UNL     1      28.914   0.876  54.207  1.00  0.00     0.299 C 
HETATM   11  C18 UNL     1      28.746   2.195  53.500  1.00  0.00     0.198 C 
HETATM   12  O3  UNL     1      27.472   2.283  52.892  1.00  0.00    -0.387 OA
HETATM   13  C19 UNL     1      26.568   2.178  53.967  1.00  0.00     0.204 C 
HETATM   14  C20 UNL     1      26.515   0.783  54.472  1.00  0.00     0.255 C 
ENDROOT
BRANCH   1  15
HETATM   15  O2  UNL     1      21.261  -1.336  53.900  1.00  0.00    -0.351 OA
BRANCH  15  16
HETATM   16  C8  UNL     1      20.197  -0.488  54.193  1.00  0.00     0.216 C 
BRANCH  16  17
HETATM   17  C7  UNL     1      19.168  -0.402  53.118  1.00  0.00    -0.001 A 
HETATM   18  C2  UNL     1      19.164   0.408  52.014  1.00  0.00     0.076 A 
HETATM   19  C3  UNL     1      18.137   0.373  51.107  1.00  0.00     0.037 A 
HETATM   20  C4  UNL     1      17.052  -0.465  51.235  1.00  0.00     0.003 A 
HETATM   21  C5  UNL     1      17.033  -1.297  52.346  1.00  0.00     0.001 A 
HETATM   22  C6  UNL     1      18.068  -1.256  53.255  1.00  0.00     0.012 A 
BRANCH  18  23
HETATM   23  O1  UNL     1      20.275   1.253  51.903  1.00  0.00    -0.355 OA
HETATM   24  C1  UNL     1      20.023   2.636  52.135  1.00  0.00     0.210 C 
ENDBRANCH  18  23
ENDBRANCH  16  17
ENDBRANCH  15  16
ENDBRANCH   1  15
TORSDOF 4
ENDMDL
MODEL 4
REMARK VINA RESULT:      -8.0      1.862      2.965
REMARK  4 active torsions:
REMARK  status: ('A' for Active; 'I' for Inactive)
REMARK    1  A    between atoms: O1_2  and  C2_3 
REMARK    2  A    between atoms: C7_8  and  C8_9 
REMARK    3  A    between atoms: C8_9  and  O2_10 
REMARK    4  A    between atoms: O2_10  and  C9_11 
ROOT
HETATM    1  C9  UNL     1      23.083   0.823  53.087  1.00  0.00     0.043 C 
HETATM    2  C10 UNL     1      24.048   1.619  52.597  1.00  0.00     0.006 C 
HETATM    3  C11 UNL     1      25.525   1.463  52.673  1.00  0.00     0.041 C 
HETATM    4  C12 UNL     1      25.948   0.124  53.235  1.00  0.00    -0.002 C 
HETATM    5  C13 UNL     1      24.863  -0.906  53.117  1.00  0.00     0.018 C 
HETATM    6  C14 UNL     1      23.621  -0.367  53.795  1.00  0.00     0.065 C 
HETATM    7  C15 UNL     1      26.255   0.308  54.706  1.00  0.00     0.042 C 
HETATM    8  C16 UNL     1      27.727   0.166  54.895  1.00  0.00     0.274 C 
HETATM    9  N1  UNL     1      28.288   0.111  53.591  1.00  0.00     0.098 N 
HETATM   10  C17 UNL     1      29.526  -0.585  53.481  1.00  0.00     0.299 C 
HETATM   11  C18 UNL     1      29.379  -2.068  53.266  1.00  0.00     0.198 C 
HETATM   12  O3  UNL     1      28.022  -2.458  53.351  1.00  0.00    -0.387 OA
HETATM   13  C19 UNL     1      27.392  -1.742  52.315  1.00  0.00     0.204 C 
HETATM   14  C20 UNL     1      27.268  -0.306  52.670  1.00  0.00     0.255 C 
ENDROOT
BRANCH   1  15
HETATM   15  O2  UNL     1      21.787   1.227  52.858  1.00  0.00    -0.351 OA
BRANCH  15  16
HETATM   16  C8  UNL     1      21.079   1.022  51.678  1.00  0.00     0.216 C 
BRANCH  16  17
HETATM   17  C7  UNL     1      19.770   0.332  51.862  1.00  0.00    -0.001 A 
HETATM   18  C2  UNL     1      18.683   0.345  51.028  1.00  0.00     0.076 A 
HETATM   19  C3  UNL     1      17.540  -0.345  51.336  1.00  0.00     0.037 A 
HETATM   20  C4  UNL     1      17.401  -1.091  52.485  1.00  0.00     0.003 A 
HETATM   21  C5  UNL     1      18.488  -1.121  53.346  1.00  0.00     0.001 A 
HETATM   22  C6  UNL     1      19.636  -0.424  53.031  1.00  0.00     0.012 A 
BRANCH  18  23
HETATM   23  O1  UNL     1      18.845   1.109  49.867  1.00  0.00    -0.355 OA
HETATM   24  C1  UNL     1      17.716   1.887  49.478  1.00  0.00     0.210 C 
ENDBRANCH  18  23
ENDBRANCH  16  17
ENDBRANCH  15  16
ENDBRANCH   1  15
TORSDOF 4
ENDMDL
MODEL 5
REMARK VINA RESULT:      -8.0      3.068      8.357
REMARK  4 active torsions:
REMARK  status: ('A' for Active; 'I' for Inactive)
REMARK    1  A    between atoms: O1_2  and  C2_3 
REMARK    2  A    between atoms: C7_8  and  C8_9 
REMARK    3  A    between atoms: C8_9  and  O2_10 
REMARK    4  A    between atoms: O2_10  and  C9_11 
ROOT
HETATM    1  C9  UNL     1      23.737   0.344  53.270  1.00  0.00     0.043 C 
HETATM    2  C10 UNL     1      22.608  -0.382  53.309  1.00  0.00     0.006 C 
HETATM    3  C11 UNL     1      21.290  -0.107  52.678  1.00  0.00     0.041 C 
HETATM    4  C12 UNL     1      21.324   1.072  51.730  1.00  0.00    -0.002 C 
HETATM    5  C13 UNL     1      22.715   1.374  51.255  1.00  0.00     0.018 C 
HETATM    6  C14 UNL     1      23.595   1.588  52.469  1.00  0.00     0.065 C 
HETATM    7  C15 UNL     1      20.814   2.288  52.474  1.00  0.00     0.042 C 
HETATM    8  C16 UNL     1      19.484   2.653  51.910  1.00  0.00     0.274 C 
HETATM    9  N1  UNL     1      19.125   1.598  51.029  1.00  0.00     0.098 N 
HETATM   10  C17 UNL     1      18.245   1.953  49.967  1.00  0.00     0.299 C 
HETATM   11  C18 UNL     1      18.944   2.475  48.741  1.00  0.00     0.198 C 
HETATM   12  O3  UNL     1      20.332   2.617  48.972  1.00  0.00    -0.387 OA
HETATM   13  C19 UNL     1      20.767   1.312  49.272  1.00  0.00     0.204 C 
HETATM   14  C20 UNL     1      20.320   0.909  50.629  1.00  0.00     0.255 C 
ENDROOT
BRANCH   1  15
HETATM   15  O2  UNL     1      24.813  -0.167  53.958  1.00  0.00    -0.351 OA
BRANCH  15  16
HETATM   16  C8  UNL     1      26.026   0.488  54.153  1.00  0.00     0.216 C 
BRANCH  16  17
HETATM   17  C7  UNL     1      27.226  -0.342  53.848  1.00  0.00    -0.001 A 
HETATM   18  C2  UNL     1      28.528  -0.108  54.203  1.00  0.00     0.076 A 
HETATM   19  C3  UNL     1      29.532  -0.970  53.845  1.00  0.00     0.037 A 
HETATM   20  C4  UNL     1      29.309  -2.117  53.115  1.00  0.00     0.003 A 
HETATM   21  C5  UNL     1      27.998  -2.377  52.743  1.00  0.00     0.001 A 
HETATM   22  C6  UNL     1      26.994  -1.505  53.106  1.00  0.00     0.012 A 
BRANCH  18  23
HETATM   23  O1  UNL     1      28.732   1.063  54.943  1.00  0.00    -0.355 OA
HETATM   24  C1  UNL     1      29.289   2.158  54.223  1.00  0.00     0.210 C 
ENDBRANCH  18  23
ENDBRANCH  16  17
ENDBRANCH  15  16
ENDBRANCH   1  15
TORSDOF 4
ENDMDL
MODEL 6
REMARK VINA RESULT:      -8.0      3.159      4.642
REMARK  4 active torsions:
REMARK  status: ('A' for Active; 'I' for Inactive)
REMARK    1  A    between atoms: O1_2  and  C2_3 
REMARK    2  A    between atoms: C7_8  and  C8_9 
REMARK    3  A    between atoms: C8_9  and  O2_10 
REMARK    4  A    between atoms: O2_10  and  C9_11 
ROOT
HETATM    1  C9  UNL     1      23.488   1.352  53.069  1.00  0.00     0.043 C 
HETATM    2  C10 UNL     1      24.559   2.050  52.656  1.00  0.00     0.006 C 
HETATM    3  C11 UNL     1      26.003   1.716  52.775  1.00  0.00     0.041 C 
HETATM    4  C12 UNL     1      26.243   0.309  53.277  1.00  0.00    -0.002 C 
HETATM    5  C13 UNL     1      25.051  -0.577  53.067  1.00  0.00     0.018 C 
HETATM    6  C14 UNL     1      23.854   0.073  53.730  1.00  0.00     0.065 C 
HETATM    7  C15 UNL     1      26.510   0.382  54.766  1.00  0.00     0.042 C 
HETATM    8  C16 UNL     1      27.946   0.056  54.997  1.00  0.00     0.274 C 
HETATM    9  N1  UNL     1      28.549  -0.000  53.712  1.00  0.00     0.098 N 
HETATM   10  C17 UNL     1      29.700  -0.833  53.607  1.00  0.00     0.299 C 
HETATM   11  C18 UNL     1      29.389  -2.275  53.307  1.00  0.00     0.198 C 
HETATM   12  O3  UNL     1      27.993  -2.504  53.325  1.00  0.00    -0.387 OA
HETATM   13  C19 UNL     1      27.494  -1.668  52.308  1.00  0.00     0.204 C 
HETATM   14  C20 UNL     1      27.526  -0.246  52.736  1.00  0.00     0.255 C 
ENDROOT
BRANCH   1  15
HETATM   15  O2  UNL     1      22.259   1.919  52.819  1.00  0.00    -0.351 OA
BRANCH  15  16
HETATM   16  C8  UNL     1      22.028   2.980  51.948  1.00  0.00     0.216 C 
BRANCH  16  17
HETATM   17  C7  UNL     1      22.134   2.622  50.505  1.00  0.00    -0.001 A 
HETATM   18  C2  UNL     1      22.868   3.246  49.531  1.00  0.00     0.076 A 
HETATM   19  C3  UNL     1      22.864   2.796  48.237  1.00  0.00     0.037 A 
HETATM   20  C4  UNL     1      22.135   1.703  47.825  1.00  0.00     0.003 A 
HETATM   21  C5  UNL     1      21.382   1.054  48.793  1.00  0.00     0.001 A 
HETATM   22  C6  UNL     1      21.390   1.511  50.094  1.00  0.00     0.012 A 
BRANCH  18  23
HETATM   23  O1  UNL     1      23.602   4.354  49.971  1.00  0.00    -0.355 OA
HETATM   24  C1  UNL     1      24.980   4.363  49.611  1.00  0.00     0.210 C 
ENDBRANCH  18  23
ENDBRANCH  16  17
ENDBRANCH  15  16
ENDBRANCH   1  15
TORSDOF 4
ENDMDL
MODEL 7
REMARK VINA RESULT:      -7.9      4.511      8.112
REMARK  4 active torsions:
REMARK  status: ('A' for Active; 'I' for Inactive)
REMARK    1  A    between atoms: O1_2  and  C2_3 
REMARK    2  A    between atoms: C7_8  and  C8_9 
REMARK    3  A    between atoms: C8_9  and  O2_10 
REMARK    4  A    between atoms: O2_10  and  C9_11 
ROOT
HETATM    1  C9  UNL     1      24.690   1.728  52.185  1.00  0.00     0.043 C 
HETATM    2  C10 UNL     1      25.685   2.176  51.400  1.00  0.00     0.006 C 
HETATM    3  C11 UNL     1      25.711   3.353  50.493  1.00  0.00     0.041 C 
HETATM    4  C12 UNL     1      24.491   4.237  50.638  1.00  0.00    -0.002 C 
HETATM    5  C13 UNL     1      23.802   4.035  51.956  1.00  0.00     0.018 C 
HETATM    6  C14 UNL     1      23.466   2.565  52.095  1.00  0.00     0.065 C 
HETATM    7  C15 UNL     1      23.512   3.870  49.543  1.00  0.00     0.042 C 
HETATM    8  C16 UNL     1      23.460   4.998  48.571  1.00  0.00     0.274 C 
HETATM    9  N1  UNL     1      24.498   5.893  48.947  1.00  0.00     0.098 N 
HETATM   10  C17 UNL     1      24.298   7.256  48.586  1.00  0.00     0.299 C 
HETATM   11  C18 UNL     1      23.516   8.050  49.598  1.00  0.00     0.198 C 
HETATM   12  O3  UNL     1      23.039   7.215  50.636  1.00  0.00    -0.387 OA
HETATM   13  C19 UNL     1      24.207   6.685  51.217  1.00  0.00     0.204 C 
HETATM   14  C20 UNL     1      24.819   5.666  50.328  1.00  0.00     0.255 C 
ENDROOT
BRANCH   1  15
HETATM   15  O2  UNL     1      24.960   0.599  52.923  1.00  0.00    -0.351 OA
BRANCH  15  16
HETATM   16  C8  UNL     1      25.851   0.532  53.990  1.00  0.00     0.216 C 
BRANCH  16  17
HETATM   17  C7  UNL     1      27.045  -0.325  53.738  1.00  0.00    -0.001 A 
HETATM   18  C2  UNL     1      28.336  -0.117  54.144  1.00  0.00     0.076 A 
HETATM   19  C3  UNL     1      29.334  -1.003  53.831  1.00  0.00     0.037 A 
HETATM   20  C4  UNL     1      29.117  -2.149  53.099  1.00  0.00     0.003 A 
HETATM   21  C5  UNL     1      27.816  -2.383  52.676  1.00  0.00     0.001 A 
HETATM   22  C6  UNL     1      26.817  -1.488  52.993  1.00  0.00     0.012 A 
BRANCH  18  23
HETATM   23  O1  UNL     1      28.535   1.053  54.885  1.00  0.00    -0.355 OA
HETATM   24  C1  UNL     1      29.373   2.033  54.278  1.00  0.00     0.210 C 
ENDBRANCH  18  23
ENDBRANCH  16  17
ENDBRANCH  15  16
ENDBRANCH   1  15
TORSDOF 4
ENDMDL
MODEL 8
REMARK VINA RESULT:      -7.6      6.418      8.536
REMARK  4 active torsions:
REMARK  status: ('A' for Active; 'I' for Inactive)
REMARK    1  A    between atoms: O1_2  and  C2_3 
REMARK    2  A    between atoms: C7_8  and  C8_9 
REMARK    3  A    between atoms: C8_9  and  O2_10 
REMARK    4  A    between atoms: O2_10  and  C9_11 
ROOT
HETATM    1  C9  UNL     1      25.908   4.509  49.477  1.00  0.00     0.043 C 
HETATM    2  C10 UNL     1      27.132   4.645  48.940  1.00  0.00     0.006 C 
HETATM    3  C11 UNL     1      27.802   5.866  48.422  1.00  0.00     0.041 C 
HETATM    4  C12 UNL     1      27.030   7.134  48.721  1.00  0.00    -0.002 C 
HETATM    5  C13 UNL     1      26.073   6.956  49.862  1.00  0.00     0.018 C 
HETATM    6  C14 UNL     1      25.160   5.791  49.539  1.00  0.00     0.065 C 
HETATM    7  C15 UNL     1      26.224   7.493  47.491  1.00  0.00     0.042 C 
HETATM    8  C16 UNL     1      26.817   8.722  46.890  1.00  0.00     0.274 C 
HETATM    9  N1  UNL     1      28.028   8.960  47.593  1.00  0.00     0.098 N 
HETATM   10  C17 UNL     1      28.462  10.316  47.632  1.00  0.00     0.299 C 
HETATM   11  C18 UNL     1      27.876  11.115  48.766  1.00  0.00     0.198 C 
HETATM   12  O3  UNL     1      26.912  10.358  49.472  1.00  0.00    -0.387 OA
HETATM   13  C19 UNL     1      27.634   9.255  49.965  1.00  0.00     0.204 C 
HETATM   14  C20 UNL     1      27.953   8.305  48.869  1.00  0.00     0.255 C 
ENDROOT
BRANCH   1  15
HETATM   15  O2  UNL     1      25.555   3.239  49.873  1.00  0.00    -0.351 OA
BRANCH  15  16
HETATM   16  C8  UNL     1      24.700   2.936  50.928  1.00  0.00     0.216 C 
BRANCH  16  17
HETATM   17  C7  UNL     1      25.082   1.717  51.696  1.00  0.00    -0.001 A 
HETATM   18  C2  UNL     1      24.287   0.936  52.493  1.00  0.00     0.076 A 
HETATM   19  C3  UNL     1      24.788  -0.164  53.141  1.00  0.00     0.037 A 
HETATM   20  C4  UNL     1      26.103  -0.559  53.040  1.00  0.00     0.003 A 
HETATM   21  C5  UNL     1      26.929   0.217  52.239  1.00  0.00     0.001 A 
HETATM   22  C6  UNL     1      26.420   1.321  51.590  1.00  0.00     0.012 A 
BRANCH  18  23
HETATM   23  O1  UNL     1      22.955   1.355  52.581  1.00  0.00    -0.355 OA
HETATM   24  C1  UNL     1      21.994   0.481  51.995  1.00  0.00     0.210 C 
ENDBRANCH  18  23
ENDBRANCH  16  17
ENDBRANCH  15  16
ENDBRANCH   1  15
TORSDOF 4
ENDMDL
MODEL 9
REMARK VINA RESULT:      -7.6      6.351      8.759
REMARK  4 active torsions:
REMARK  status: ('A' for Active; 'I' for Inactive)
REMARK    1  A    between atoms: O1_2  and  C2_3 
REMARK    2  A    between atoms: C7_8  and  C8_9 
REMARK    3  A    between atoms: C8_9  and  O2_10 
REMARK    4  A    between atoms: O2_10  and  C9_11 
ROOT
HETATM    1  C9  UNL     1      25.864   4.484  49.670  1.00  0.00     0.043 C 
HETATM    2  C10 UNL     1      27.042   4.622  49.039  1.00  0.00     0.006 C 
HETATM    3  C11 UNL     1      27.656   5.840  48.448  1.00  0.00     0.041 C 
HETATM    4  C12 UNL     1      26.894   7.105  48.781  1.00  0.00    -0.002 C 
HETATM    5  C13 UNL     1      26.029   6.939  49.995  1.00  0.00     0.018 C 
HETATM    6  C14 UNL     1      25.108   5.759  49.764  1.00  0.00     0.065 C 
HETATM    7  C15 UNL     1      25.992   7.431  47.609  1.00  0.00     0.042 C 
HETATM    8  C16 UNL     1      26.523   8.654  46.942  1.00  0.00     0.274 C 
HETATM    9  N1  UNL     1      27.781   8.919  47.546  1.00  0.00     0.098 N 
HETATM   10  C17 UNL     1      28.200  10.280  47.525  1.00  0.00     0.299 C 
HETATM   11  C18 UNL     1      27.693  11.095  48.685  1.00  0.00     0.198 C 
HETATM   12  O3  UNL     1      26.795  10.342  49.477  1.00  0.00    -0.387 OA
HETATM   13  C19 UNL     1      27.566   9.256  49.934  1.00  0.00     0.204 C 
HETATM   14  C20 UNL     1      27.812   8.289  48.836  1.00  0.00     0.255 C 
ENDROOT
BRANCH   1  15
HETATM   15  O2  UNL     1      25.558   3.218  50.116  1.00  0.00    -0.351 OA
BRANCH  15  16
HETATM   16  C8  UNL     1      26.372   2.435  50.929  1.00  0.00     0.216 C 
BRANCH  16  17
HETATM   17  C7  UNL     1      25.631   1.468  51.788  1.00  0.00    -0.001 A 
HETATM   18  C2  UNL     1      26.144   0.482  52.589  1.00  0.00     0.076 A 
HETATM   19  C3  UNL     1      25.328  -0.336  53.326  1.00  0.00     0.037 A 
HETATM   20  C4  UNL     1      23.955  -0.229  53.317  1.00  0.00     0.003 A 
HETATM   21  C5  UNL     1      23.410   0.762  52.513  1.00  0.00     0.001 A 
HETATM   22  C6  UNL     1      24.236   1.581  51.774  1.00  0.00     0.012 A 
BRANCH  18  23
HETATM   23  O1  UNL     1      27.541   0.391  52.583  1.00  0.00    -0.355 OA
HETATM   24  C1  UNL     1      28.095  -0.632  53.404  1.00  0.00     0.210 C 
ENDBRANCH  18  23
ENDBRANCH  16  17
ENDBRANCH  15  16
ENDBRANCH   1  15
TORSDOF 4
ENDMDL
