MODEL 1
REMARK VINA RESULT:      -8.1      0.000      0.000
REMARK  2 active torsions:
REMARK  status: ('A' for Active; 'I' for Inactive)
REMARK       I    between atoms: N1_5  and  C5_6 
REMARK    1  A    between atoms: C5_6  and  C6_8 
REMARK    2  A    between atoms: C9_12  and  N3_13 
ROOT
HETATM    1  C6  UNL     1      28.183   0.821  53.053  1.00  0.00     0.226 C 
HETATM    2  C7  UNL     1      28.857   1.596  54.091  1.00  0.00     0.068 C 
HETATM    3  N2  UNL     1      29.397   2.197  54.895  1.00  0.00    -0.197 NA
ENDROOT
BRANCH   1   4
HETATM    4  C5  UNL     1      26.967   0.147  53.611  1.00  0.00     0.232 C 
HETATM    5  N1  UNL     1      25.635   0.303  53.100  1.00  0.00    -0.350 N 
HETATM    6  C4  UNL     1      24.676  -0.464  53.851  1.00  0.00     0.126 C 
HETATM    7  C8  UNL     1      25.327   1.159  51.943  1.00  0.00     0.147 C 
HETATM    8  C3  UNL     1      23.267   0.049  53.715  1.00  0.00     0.026 C 
HETATM    9  C2  UNL     1      23.021   0.649  52.350  1.00  0.00     0.004 C 
HETATM   10  C1  UNL     1      21.583   0.944  52.172  1.00  0.00     0.011 C 
HETATM   11  C9  UNL     1      23.992   1.779  52.159  1.00  0.00     0.096 C 
HETATM   12  O1  UNL     1      26.866  -0.642  54.580  1.00  0.00    -0.272 OA
BRANCH  11  13
HETATM   13  N3  UNL     1      23.557   2.742  51.193  1.00  0.00    -0.245 NA
HETATM   14  C10 UNL     1      24.445   2.861  50.022  1.00  0.00     0.112 C 
HETATM   15  C11 UNL     1      25.723   3.554  50.461  1.00  0.00     0.044 C 
HETATM   16  C12 UNL     1      26.518   4.078  49.330  1.00  0.00    -0.009 C 
HETATM   17  C13 UNL     1      26.415   5.440  49.346  1.00  0.00     0.079 C 
HETATM   18  N4  UNL     1      25.588   5.934  50.423  1.00  0.00    -0.398 N 
HETATM   19  C14 UNL     1      24.271   6.326  50.922  1.00  0.00     0.134 C 
HETATM   20  H20 UNL     1      26.457   6.026  51.034  1.00  0.00     0.158 HD
HETATM   21  C15 UNL     1      23.323   5.106  50.986  1.00  0.00     0.124 C 
HETATM   22  N5  UNL     1      23.821   4.060  51.777  1.00  0.00    -0.257 NA
HETATM   23  H25 UNL     1      23.636   4.056  52.746  1.00  0.00     0.140 HD
ENDBRANCH  11  13
ENDBRANCH   1   4
TORSDOF 2
ENDMDL
MODEL 2
REMARK VINA RESULT:      -8.1      2.234      3.016
REMARK  2 active torsions:
REMARK  status: ('A' for Active; 'I' for Inactive)
REMARK       I    between atoms: N1_5  and  C5_6 
REMARK    1  A    between atoms: C5_6  and  C6_8 
REMARK    2  A    between atoms: C9_12  and  N3_13 
ROOT
HETATM    1  C6  UNL     1      27.262   0.817  53.106  1.00  0.00     0.226 C 
HETATM    2  C7  UNL     1      28.200   1.766  53.697  1.00  0.00     0.068 C 
HETATM    3  N2  UNL     1      28.943   2.506  54.146  1.00  0.00    -0.197 NA
ENDROOT
BRANCH   1   4
HETATM    4  C5  UNL     1      26.545   0.055  54.178  1.00  0.00     0.232 C 
HETATM    5  N1  UNL     1      25.189  -0.405  54.091  1.00  0.00    -0.350 N 
HETATM    6  C4  UNL     1      24.777  -1.099  55.283  1.00  0.00     0.126 C 
HETATM    7  C8  UNL     1      24.349  -0.172  52.905  1.00  0.00     0.147 C 
HETATM    8  C3  UNL     1      23.282  -1.131  55.466  1.00  0.00     0.026 C 
HETATM    9  C2  UNL     1      22.559  -1.180  54.139  1.00  0.00     0.004 C 
HETATM   10  C1  UNL     1      21.117  -1.429  54.352  1.00  0.00     0.011 C 
HETATM   11  C9  UNL     1      22.948   0.041  53.355  1.00  0.00     0.096 C 
HETATM   12  O1  UNL     1      26.955  -0.314  55.305  1.00  0.00    -0.272 OA
BRANCH  11  13
HETATM   13  N3  UNL     1      21.988   0.399  52.355  1.00  0.00    -0.245 NA
HETATM   14  C10 UNL     1      22.561   1.130  51.209  1.00  0.00     0.112 C 
HETATM   15  C11 UNL     1      22.929   2.529  51.670  1.00  0.00     0.044 C 
HETATM   16  C12 UNL     1      23.144   3.472  50.553  1.00  0.00    -0.009 C 
HETATM   17  C13 UNL     1      22.090   4.340  50.533  1.00  0.00     0.079 C 
HETATM   18  N4  UNL     1      21.120   4.079  51.573  1.00  0.00    -0.398 N 
HETATM   19  C14 UNL     1      19.907   3.397  52.022  1.00  0.00     0.134 C 
HETATM   20  H20 UNL     1      21.632   4.766  52.208  1.00  0.00     0.158 HD
HETATM   21  C15 UNL     1      20.130   1.868  52.086  1.00  0.00     0.124 C 
HETATM   22  N5  UNL     1      21.198   1.499  52.915  1.00  0.00    -0.257 NA
HETATM   23  H25 UNL     1      21.036   1.357  53.878  1.00  0.00     0.140 HD
ENDBRANCH  11  13
ENDBRANCH   1   4
TORSDOF 2
ENDMDL
MODEL 3
REMARK VINA RESULT:      -7.8      2.434      5.367
REMARK  2 active torsions:
REMARK  status: ('A' for Active; 'I' for Inactive)
REMARK       I    between atoms: N1_5  and  C5_6 
REMARK    1  A    between atoms: C5_6  and  C6_8 
REMARK    2  A    between atoms: C9_12  and  N3_13 
ROOT
HETATM    1  C6  UNL     1      25.395   5.357  49.861  1.00  0.00     0.226 C 
HETATM    2  C7  UNL     1      26.616   4.815  49.274  1.00  0.00     0.068 C 
HETATM    3  N2  UNL     1      27.575   4.406  48.813  1.00  0.00    -0.197 NA
ENDROOT
BRANCH   1   4
HETATM    4  C5  UNL     1      24.217   4.506  49.497  1.00  0.00     0.232 C 
HETATM    5  N1  UNL     1      23.674   3.462  50.318  1.00  0.00    -0.350 N 
HETATM    6  C4  UNL     1      22.548   2.816  49.694  1.00  0.00     0.126 C 
HETATM    7  C8  UNL     1      24.232   3.120  51.636  1.00  0.00     0.147 C 
HETATM    8  C3  UNL     1      22.285   1.433  50.229  1.00  0.00     0.026 C 
HETATM    9  C2  UNL     1      22.648   1.323  51.692  1.00  0.00     0.004 C 
HETATM   10  C1  UNL     1      22.180   0.031  52.240  1.00  0.00     0.011 C 
HETATM   11  C9  UNL     1      24.107   1.651  51.833  1.00  0.00     0.096 C 
HETATM   12  O1  UNL     1      23.507   4.527  48.464  1.00  0.00    -0.272 OA
BRANCH  11  13
HETATM   13  N3  UNL     1      24.699   1.099  53.014  1.00  0.00    -0.245 NA
HETATM   14  C10 UNL     1      25.739   1.953  53.619  1.00  0.00     0.112 C 
HETATM   15  C11 UNL     1      26.965   1.921  52.723  1.00  0.00     0.044 C 
HETATM   16  C12 UNL     1      28.189   2.406  53.395  1.00  0.00    -0.009 C 
HETATM   17  C13 UNL     1      28.994   1.327  53.622  1.00  0.00     0.079 C 
HETATM   18  N4  UNL     1      28.423   0.084  53.155  1.00  0.00    -0.398 N 
HETATM   19  C14 UNL     1      27.604  -1.101  53.409  1.00  0.00     0.134 C 
HETATM   20  H20 UNL     1      28.921   0.218  52.222  1.00  0.00     0.158 HD
HETATM   21  C15 UNL     1      26.126  -0.707  53.637  1.00  0.00     0.124 C 
HETATM   22  N5  UNL     1      25.574   0.011  52.566  1.00  0.00    -0.257 NA
HETATM   23  H25 UNL     1      25.164  -0.480  51.815  1.00  0.00     0.140 HD
ENDBRANCH  11  13
ENDBRANCH   1   4
TORSDOF 2
ENDMDL
MODEL 4
REMARK VINA RESULT:      -7.5      2.417      5.633
REMARK  2 active torsions:
REMARK  status: ('A' for Active; 'I' for Inactive)
REMARK       I    between atoms: N1_5  and  C5_6 
REMARK    1  A    between atoms: C5_6  and  C6_8 
REMARK    2  A    between atoms: C9_12  and  N3_13 
ROOT
HETATM    1  C6  UNL     1      22.597  -0.422  54.188  1.00  0.00     0.226 C 
HETATM    2  C7  UNL     1      21.483  -1.346  54.373  1.00  0.00     0.068 C 
HETATM    3  N2  UNL     1      20.623  -2.081  54.517  1.00  0.00    -0.197 NA
ENDROOT
BRANCH   1   4
HETATM    4  C5  UNL     1      22.163   0.767  53.386  1.00  0.00     0.232 C 
HETATM    5  N1  UNL     1      23.005   1.504  52.489  1.00  0.00    -0.350 N 
HETATM    6  C4  UNL     1      22.305   2.599  51.869  1.00  0.00     0.126 C 
HETATM    7  C8  UNL     1      24.416   1.152  52.259  1.00  0.00     0.147 C 
HETATM    8  C3  UNL     1      23.223   3.680  51.362  1.00  0.00     0.026 C 
HETATM    9  C2  UNL     1      24.543   3.115  50.889  1.00  0.00     0.004 C 
HETATM   10  C1  UNL     1      25.330   4.160  50.202  1.00  0.00     0.011 C 
HETATM   11  C9  UNL     1      25.185   2.407  52.048  1.00  0.00     0.096 C 
HETATM   12  O1  UNL     1      21.042   1.328  53.336  1.00  0.00    -0.272 OA
BRANCH  11  13
HETATM   13  N3  UNL     1      26.606   2.288  51.920  1.00  0.00    -0.245 NA
HETATM   14  C10 UNL     1      27.072   0.911  51.672  1.00  0.00     0.112 C 
HETATM   15  C11 UNL     1      26.899   0.109  52.950  1.00  0.00     0.044 C 
HETATM   16  C12 UNL     1      27.673  -1.149  52.957  1.00  0.00    -0.009 C 
HETATM   17  C13 UNL     1      28.709  -0.996  53.833  1.00  0.00     0.079 C 
HETATM   18  N4  UNL     1      28.732   0.306  54.462  1.00  0.00    -0.398 N 
HETATM   19  C14 UNL     1      29.180   1.698  54.462  1.00  0.00     0.134 C 
HETATM   20  H20 UNL     1      28.152  -0.085  55.267  1.00  0.00     0.158 HD
HETATM   21  C15 UNL     1      28.558   2.473  53.277  1.00  0.00     0.124 C 
HETATM   22  N5  UNL     1      27.156   2.442  53.270  1.00  0.00    -0.257 NA
HETATM   23  H25 UNL     1      26.655   3.125  53.776  1.00  0.00     0.140 HD
ENDBRANCH  11  13
ENDBRANCH   1   4
TORSDOF 2
ENDMDL
MODEL 5
REMARK VINA RESULT:      -7.2      2.193      4.846
REMARK  2 active torsions:
REMARK  status: ('A' for Active; 'I' for Inactive)
REMARK       I    between atoms: N1_5  and  C5_6 
REMARK    1  A    between atoms: C5_6  and  C6_8 
REMARK    2  A    between atoms: C9_12  and  N3_13 
ROOT
HETATM    1  C6  UNL     1      26.164   1.455  54.037  1.00  0.00     0.226 C 
HETATM    2  C7  UNL     1      27.121   0.472  54.533  1.00  0.00     0.068 C 
HETATM    3  N2  UNL     1      27.866  -0.292  54.937  1.00  0.00    -0.197 NA
ENDROOT
BRANCH   1   4
HETATM    4  C5  UNL     1      26.616   2.005  52.719  1.00  0.00     0.232 C 
HETATM    5  N1  UNL     1      25.795   2.765  51.821  1.00  0.00    -0.350 N 
HETATM    6  C4  UNL     1      26.508   3.148  50.631  1.00  0.00     0.126 C 
HETATM    7  C8  UNL     1      24.390   3.091  52.117  1.00  0.00     0.147 C 
HETATM    8  C3  UNL     1      25.602   3.462  49.469  1.00  0.00     0.026 C 
HETATM    9  C2  UNL     1      24.295   4.065  49.930  1.00  0.00     0.004 C 
HETATM   10  C1  UNL     1      23.523   4.560  48.770  1.00  0.00     0.011 C 
HETATM   11  C9  UNL     1      23.625   3.078  50.842  1.00  0.00     0.096 C 
HETATM   12  O1  UNL     1      27.737   1.921  52.162  1.00  0.00    -0.272 OA
BRANCH  11  13
HETATM   13  N3  UNL     1      22.208   3.260  50.930  1.00  0.00    -0.245 NA
HETATM   14  C10 UNL     1      21.631   2.857  52.227  1.00  0.00     0.112 C 
HETATM   15  C11 UNL     1      21.663   1.342  52.314  1.00  0.00     0.044 C 
HETATM   16  C12 UNL     1      20.777   0.801  53.367  1.00  0.00    -0.009 C 
HETATM   17  C13 UNL     1      19.715   0.204  52.750  1.00  0.00     0.079 C 
HETATM   18  N4  UNL     1      19.779   0.282  51.308  1.00  0.00    -0.398 N 
HETATM   19  C14 UNL     1      19.462   0.990  50.069  1.00  0.00     0.134 C 
HETATM   20  H20 UNL     1      20.278  -0.660  51.290  1.00  0.00     0.158 HD
HETATM   21  C15 UNL     1      20.213   2.341  50.002  1.00  0.00     0.124 C 
HETATM   22  N5  UNL     1      21.605   2.205  50.110  1.00  0.00    -0.257 NA
HETATM   23  H25 UNL     1      22.140   2.046  49.297  1.00  0.00     0.140 HD
ENDBRANCH  11  13
ENDBRANCH   1   4
TORSDOF 2
ENDMDL
MODEL 6
REMARK VINA RESULT:      -7.0      3.654      7.403
REMARK  2 active torsions:
REMARK  status: ('A' for Active; 'I' for Inactive)
REMARK       I    between atoms: N1_5  and  C5_6 
REMARK    1  A    between atoms: C5_6  and  C6_8 
REMARK    2  A    between atoms: C9_12  and  N3_13 
ROOT
HETATM    1  C6  UNL     1      19.787   4.945  50.204  1.00  0.00     0.226 C 
HETATM    2  C7  UNL     1      18.911   4.196  51.099  1.00  0.00     0.068 C 
HETATM    3  N2  UNL     1      18.214   3.618  51.792  1.00  0.00    -0.197 NA
ENDROOT
BRANCH   1   4
HETATM    4  C5  UNL     1      21.086   5.256  50.884  1.00  0.00     0.232 C 
HETATM    5  N1  UNL     1      22.084   4.285  51.229  1.00  0.00    -0.350 N 
HETATM    6  C4  UNL     1      23.219   4.887  51.881  1.00  0.00     0.126 C 
HETATM    7  C8  UNL     1      21.929   2.851  50.938  1.00  0.00     0.147 C 
HETATM    8  C3  UNL     1      24.014   3.913  52.710  1.00  0.00     0.026 C 
HETATM    9  C2  UNL     1      23.991   2.524  52.114  1.00  0.00     0.004 C 
HETATM   10  C1  UNL     1      24.948   1.648  52.822  1.00  0.00     0.011 C 
HETATM   11  C9  UNL     1      22.559   2.076  52.039  1.00  0.00     0.096 C 
HETATM   12  O1  UNL     1      21.541   6.360  51.268  1.00  0.00    -0.272 OA
BRANCH  11  13
HETATM   13  N3  UNL     1      22.414   0.652  52.000  1.00  0.00    -0.245 NA
HETATM   14  C10 UNL     1      21.125   0.195  51.447  1.00  0.00     0.112 C 
HETATM   15  C11 UNL     1      20.036   0.499  52.461  1.00  0.00     0.044 C 
HETATM   16  C12 UNL     1      18.784  -0.244  52.209  1.00  0.00    -0.009 C 
HETATM   17  C13 UNL     1      18.666  -1.201  53.176  1.00  0.00     0.079 C 
HETATM   18  N4  UNL     1      19.764  -1.195  54.116  1.00  0.00    -0.398 N 
HETATM   19  C14 UNL     1      21.091  -1.671  54.507  1.00  0.00     0.134 C 
HETATM   20  H20 UNL     1      19.209  -0.537  54.745  1.00  0.00     0.158 HD
HETATM   21  C15 UNL     1      22.166  -1.174  53.513  1.00  0.00     0.124 C 
HETATM   22  N5  UNL     1      22.198   0.222  53.385  1.00  0.00    -0.257 NA
HETATM   23  H25 UNL     1      22.753   0.752  54.006  1.00  0.00     0.140 HD
ENDBRANCH  11  13
ENDBRANCH   1   4
TORSDOF 2
ENDMDL
MODEL 7
REMARK VINA RESULT:      -7.0      2.068      2.644
REMARK  2 active torsions:
REMARK  status: ('A' for Active; 'I' for Inactive)
REMARK       I    between atoms: N1_5  and  C5_6 
REMARK    1  A    between atoms: C5_6  and  C6_8 
REMARK    2  A    between atoms: C9_12  and  N3_13 
ROOT
HETATM    1  C6  UNL     1      26.990   1.049  52.903  1.00  0.00     0.226 C 
HETATM    2  C7  UNL     1      28.076   1.473  53.781  1.00  0.00     0.068 C 
HETATM    3  N2  UNL     1      28.935   1.805  54.454  1.00  0.00    -0.197 NA
ENDROOT
BRANCH   1   4
HETATM    4  C5  UNL     1      26.068   0.115  53.627  1.00  0.00     0.232 C 
HETATM    5  N1  UNL     1      24.648   0.050  53.434  1.00  0.00    -0.350 N 
HETATM    6  C4  UNL     1      24.033  -0.940  54.279  1.00  0.00     0.126 C 
HETATM    7  C8  UNL     1      23.939   0.915  52.476  1.00  0.00     0.147 C 
HETATM    8  C3  UNL     1      22.565  -0.697  54.509  1.00  0.00     0.026 C 
HETATM    9  C2  UNL     1      21.911  -0.055  53.306  1.00  0.00     0.004 C 
HETATM   10  C1  UNL     1      20.443  -0.029  53.475  1.00  0.00     0.011 C 
HETATM   11  C9  UNL     1      22.606   1.250  53.043  1.00  0.00     0.096 C 
HETATM   12  O1  UNL     1      26.331  -0.749  54.498  1.00  0.00    -0.272 OA
BRANCH  11  13
HETATM   13  N3  UNL     1      21.802   2.181  52.310  1.00  0.00    -0.245 NA
HETATM   14  C10 UNL     1      21.177   1.612  51.101  1.00  0.00     0.112 C 
HETATM   15  C11 UNL     1      22.261   1.394  50.060  1.00  0.00     0.044 C 
HETATM   16  C12 UNL     1      21.727   1.201  48.696  1.00  0.00    -0.009 C 
HETATM   17  C13 UNL     1      22.016   2.324  47.975  1.00  0.00     0.079 C 
HETATM   18  N4  UNL     1      22.727   3.323  48.739  1.00  0.00    -0.398 N 
HETATM   19  C14 UNL     1      22.702   4.494  49.614  1.00  0.00     0.134 C 
HETATM   20  H20 UNL     1      23.650   2.909  48.402  1.00  0.00     0.158 HD
HETATM   21  C15 UNL     1      22.074   4.143  50.983  1.00  0.00     0.124 C 
HETATM   22  N5  UNL     1      22.732   3.093  51.640  1.00  0.00    -0.257 NA
HETATM   23  H25 UNL     1      23.504   3.295  52.222  1.00  0.00     0.140 HD
ENDBRANCH  11  13
ENDBRANCH   1   4
TORSDOF 2
ENDMDL
MODEL 8
REMARK VINA RESULT:      -6.8      1.940      2.461
REMARK  2 active torsions:
REMARK  status: ('A' for Active; 'I' for Inactive)
REMARK       I    between atoms: N1_5  and  C5_6 
REMARK    1  A    between atoms: C5_6  and  C6_8 
REMARK    2  A    between atoms: C9_12  and  N3_13 
ROOT
HETATM    1  C6  UNL     1      25.369   0.406  53.594  1.00  0.00     0.226 C 
HETATM    2  C7  UNL     1      26.238  -0.757  53.446  1.00  0.00     0.068 C 
HETATM    3  N2  UNL     1      26.928  -1.657  53.323  1.00  0.00    -0.197 NA
ENDROOT
BRANCH   1   4
HETATM    4  C5  UNL     1      23.932   0.004  53.465  1.00  0.00     0.232 C 
HETATM    5  N1  UNL     1      23.045   0.450  52.429  1.00  0.00    -0.350 N 
HETATM    6  C4  UNL     1      21.723  -0.100  52.577  1.00  0.00     0.126 C 
HETATM    7  C8  UNL     1      23.474   1.367  51.360  1.00  0.00     0.147 C 
HETATM    8  C3  UNL     1      20.661   0.708  51.878  1.00  0.00     0.026 C 
HETATM    9  C2  UNL     1      21.194   1.363  50.624  1.00  0.00     0.004 C 
HETATM   10  C1  UNL     1      20.086   1.964  49.851  1.00  0.00     0.011 C 
HETATM   11  C9  UNL     1      22.334   2.258  51.018  1.00  0.00     0.096 C 
HETATM   12  O1  UNL     1      23.248  -0.756  54.191  1.00  0.00    -0.272 OA
BRANCH  11  13
HETATM   13  N3  UNL     1      22.584   3.304  50.073  1.00  0.00    -0.245 NA
HETATM   14  C10 UNL     1      23.797   3.099  49.259  1.00  0.00     0.112 C 
HETATM   15  C11 UNL     1      25.010   3.312  50.147  1.00  0.00     0.044 C 
HETATM   16  C12 UNL     1      26.259   3.520  49.385  1.00  0.00    -0.009 C 
HETATM   17  C13 UNL     1      26.610   4.833  49.513  1.00  0.00     0.079 C 
HETATM   18  N4  UNL     1      25.684   5.592  50.323  1.00  0.00    -0.398 N 
HETATM   19  C14 UNL     1      24.482   6.419  50.423  1.00  0.00     0.134 C 
HETATM   20  H20 UNL     1      26.281   5.383  51.181  1.00  0.00     0.158 HD
HETATM   21  C15 UNL     1      23.222   5.601  50.057  1.00  0.00     0.124 C 
HETATM   22  N5  UNL     1      23.058   4.455  50.847  1.00  0.00    -0.257 NA
HETATM   23  H25 UNL     1      22.573   4.523  51.704  1.00  0.00     0.140 HD
ENDBRANCH  11  13
ENDBRANCH   1   4
TORSDOF 2
ENDMDL
MODEL 9
REMARK VINA RESULT:      -6.8      5.014      8.354
REMARK  2 active torsions:
REMARK  status: ('A' for Active; 'I' for Inactive)
REMARK       I    between atoms: N1_5  and  C5_6 
REMARK    1  A    between atoms: C5_6  and  C6_8 
REMARK    2  A    between atoms: C9_12  and  N3_13 
ROOT
HETATM    1  C6  UNL     1      26.290   4.564  49.040  1.00  0.00     0.226 C 
HETATM    2  C7  UNL     1      26.524   3.587  50.098  1.00  0.00     0.068 C 
HETATM    3  N2  UNL     1      26.699   2.813  50.917  1.00  0.00    -0.197 NA
ENDROOT
BRANCH   1   4
HETATM    4  C5  UNL     1      26.071   5.927  49.625  1.00  0.00     0.232 C 
HETATM    5  N1  UNL     1      26.817   7.100  49.274  1.00  0.00    -0.350 N 
HETATM    6  C4  UNL     1      26.382   8.257  50.012  1.00  0.00     0.126 C 
HETATM    7  C8  UNL     1      27.898   7.082  48.274  1.00  0.00     0.147 C 
HETATM    8  C3  UNL     1      27.423   9.342  50.086  1.00  0.00     0.026 C 
HETATM    9  C2  UNL     1      28.280   9.378  48.842  1.00  0.00     0.004 C 
HETATM   10  C1  UNL     1      29.142  10.580  48.848  1.00  0.00     0.011 C 
HETATM   11  C9  UNL     1      28.950   8.041  48.702  1.00  0.00     0.096 C 
HETATM   12  O1  UNL     1      25.242   6.299  50.489  1.00  0.00    -0.272 OA
BRANCH  11  13
HETATM   13  N3  UNL     1      30.147   8.088  47.917  1.00  0.00    -0.245 NA
HETATM   14  C10 UNL     1      30.413   6.854  47.154  1.00  0.00     0.112 C 
HETATM   15  C11 UNL     1      30.833   5.770  48.130  1.00  0.00     0.044 C 
HETATM   16  C12 UNL     1      31.493   4.621  47.475  1.00  0.00    -0.009 C 
HETATM   17  C13 UNL     1      32.820   4.667  47.793  1.00  0.00     0.079 C 
HETATM   18  N4  UNL     1      33.162   5.787  48.641  1.00  0.00    -0.398 N 
HETATM   19  C14 UNL     1      33.591   7.177  48.780  1.00  0.00     0.134 C 
HETATM   20  H20 UNL     1      33.012   5.170  49.497  1.00  0.00     0.158 HD
HETATM   21  C15 UNL     1      32.509   8.141  48.238  1.00  0.00     0.124 C 
HETATM   22  N5  UNL     1      31.263   7.980  48.861  1.00  0.00    -0.257 NA
HETATM   23  H25 UNL     1      31.069   8.479  49.690  1.00  0.00     0.140 HD
ENDBRANCH  11  13
ENDBRANCH   1   4
TORSDOF 2
ENDMDL
