MODEL 1
REMARK VINA RESULT:      -7.7      0.000      0.000
REMARK  5 active torsions:
REMARK  status: ('A' for Active; 'I' for Inactive)
REMARK    1  A    between atoms: C3_3  and  N1_4 
REMARK    2  A    between atoms: C10_15  and  O3_16 
REMARK    3  A    between atoms: O3_16  and  C11_17 
REMARK    4  A    between atoms: C11_17  and  C12_18 
REMARK    5  A    between atoms: C16_23  and  C17_24 
ROOT
HETATM    1  C1  UNL     1      18.931   5.243  49.665  1.00  0.00     0.015 C 
HETATM    2  C2  UNL     1      19.834   4.482  49.379  1.00  0.00    -0.081 C 
HETATM    3  C3  UNL     1      20.916   3.557  49.029  1.00  0.00     0.122 A 
HETATM    4  C19 UNL     1      22.151   4.192  48.574  1.00  0.00     0.014 A 
HETATM    5  C20 UNL     1      21.996   3.648  47.360  1.00  0.00    -0.023 A 
HETATM    6  C21 UNL     1      20.725   2.946  47.695  1.00  0.00     0.076 A 
ENDROOT
BRANCH   3   7
HETATM    7  N1  UNL     1      21.049   2.597  50.152  1.00  0.00    -0.294 N 
HETATM    8  C4  UNL     1      20.270   1.370  49.737  1.00  0.00     0.213 C 
HETATM    9  N2  UNL     1      21.013   0.370  50.277  1.00  0.00    -0.228 NA
HETATM   10  C5  UNL     1      21.392   0.614  51.633  1.00  0.00     0.138 C 
HETATM   11  N3  UNL     1      20.997   1.740  52.272  1.00  0.00    -0.209 NA
HETATM   12  C16 UNL     1      22.413   0.071  52.555  1.00  0.00     0.116 C 
HETATM   13  C6  UNL     1      21.726   2.787  51.422  1.00  0.00     0.296 C 
HETATM   14  O1  UNL     1      21.534   4.034  51.895  1.00  0.00    -0.334 OA
HETATM   15  C9  UNL     1      23.114   2.275  51.596  1.00  0.00     0.156 C 
HETATM   16  C7  UNL     1      22.630   4.678  52.394  1.00  0.00     0.200 C 
HETATM   17  C8  UNL     1      23.885   4.604  51.595  1.00  0.00     0.202 C 
HETATM   18  O2  UNL     1      23.951   3.250  51.071  1.00  0.00    -0.344 OA
HETATM   19  C10 UNL     1      23.550   1.078  52.169  1.00  0.00     0.094 C 
BRANCH  19  20
HETATM   20  O3  UNL     1      24.909   0.879  52.344  1.00  0.00    -0.349 OA
BRANCH  20  21
HETATM   21  C11 UNL     1      25.521   1.487  53.464  1.00  0.00     0.207 C 
BRANCH  21  22
HETATM   22  C12 UNL     1      26.997   1.180  53.538  1.00  0.00     0.145 C 
HETATM   23  C13 UNL     1      27.316  -0.131  52.829  1.00  0.00     0.036 C 
HETATM   24  C14 UNL     1      28.628  -0.503  53.477  1.00  0.00     0.029 C 
HETATM   25  C15 UNL     1      28.491   0.110  54.831  1.00  0.00     0.168 C 
HETATM   26  O4  UNL     1      27.398   0.939  54.825  1.00  0.00    -0.384 OA
ENDBRANCH  21  22
ENDBRANCH  20  21
ENDBRANCH  19  20
BRANCH  12  27
HETATM   27  C17 UNL     1      22.076   0.164  53.985  1.00  0.00     0.015 C 
HETATM   28  C18 UNL     1      21.553  -1.198  54.421  1.00  0.00     0.006 C 
ENDBRANCH  12  27
ENDBRANCH   3   7
TORSDOF 5
ENDMDL
MODEL 2
REMARK VINA RESULT:      -7.6      2.924      5.422
REMARK  5 active torsions:
REMARK  status: ('A' for Active; 'I' for Inactive)
REMARK    1  A    between atoms: C3_3  and  N1_4 
REMARK    2  A    between atoms: C10_15  and  O3_16 
REMARK    3  A    between atoms: O3_16  and  C11_17 
REMARK    4  A    between atoms: C11_17  and  C12_18 
REMARK    5  A    between atoms: C16_23  and  C17_24 
ROOT
HETATM    1  C1  UNL     1      21.584   0.596  50.117  1.00  0.00     0.015 C 
HETATM    2  C2  UNL     1      21.782   0.584  51.316  1.00  0.00    -0.081 C 
HETATM    3  C3  UNL     1      22.021   0.580  52.763  1.00  0.00     0.122 A 
HETATM    4  C19 UNL     1      21.459  -0.563  53.481  1.00  0.00     0.014 A 
HETATM    5  C20 UNL     1      20.627   0.250  54.145  1.00  0.00    -0.023 A 
HETATM    6  C21 UNL     1      21.111   1.496  53.486  1.00  0.00     0.076 A 
ENDROOT
BRANCH   3   7
HETATM    7  N1  UNL     1      23.468   0.834  52.967  1.00  0.00    -0.294 N 
HETATM    8  C4  UNL     1      24.040  -0.459  53.502  1.00  0.00     0.213 C 
HETATM    9  N2  UNL     1      25.273  -0.476  52.934  1.00  0.00    -0.228 NA
HETATM   10  C5  UNL     1      25.964   0.770  53.042  1.00  0.00     0.138 C 
HETATM   11  N3  UNL     1      25.402   1.822  53.682  1.00  0.00    -0.209 NA
HETATM   12  C16 UNL     1      27.119   1.396  52.362  1.00  0.00     0.116 C 
HETATM   13  C6  UNL     1      24.201   2.069  52.763  1.00  0.00     0.296 C 
HETATM   14  O1  UNL     1      23.479   3.136  53.162  1.00  0.00    -0.334 OA
HETATM   15  C9  UNL     1      24.945   2.279  51.489  1.00  0.00     0.156 C 
HETATM   16  C7  UNL     1      23.468   4.217  52.328  1.00  0.00     0.200 C 
HETATM   17  C8  UNL     1      23.262   3.955  50.877  1.00  0.00     0.202 C 
HETATM   18  O2  UNL     1      24.014   2.748  50.574  1.00  0.00    -0.344 OA
HETATM   19  C10 UNL     1      26.299   2.073  51.212  1.00  0.00     0.094 C 
BRANCH  19  20
HETATM   20  O3  UNL     1      26.795   2.469  49.982  1.00  0.00    -0.349 OA
BRANCH  20  21
HETATM   21  C11 UNL     1      26.220   3.614  49.382  1.00  0.00     0.207 C 
BRANCH  21  22
HETATM   22  C12 UNL     1      27.165   4.790  49.388  1.00  0.00     0.145 C 
HETATM   23  C13 UNL     1      26.507   6.018  48.769  1.00  0.00     0.036 C 
HETATM   24  C14 UNL     1      27.717   6.832  48.376  1.00  0.00     0.029 C 
HETATM   25  C15 UNL     1      28.733   5.771  48.112  1.00  0.00     0.168 C 
HETATM   26  O4  UNL     1      28.243   4.575  48.571  1.00  0.00    -0.384 OA
ENDBRANCH  21  22
ENDBRANCH  20  21
ENDBRANCH  19  20
BRANCH  12  27
HETATM   27  C17 UNL     1      27.849   2.393  53.161  1.00  0.00     0.015 C 
HETATM   28  C18 UNL     1      28.977   1.667  53.882  1.00  0.00     0.006 C 
ENDBRANCH  12  27
ENDBRANCH   3   7
TORSDOF 5
ENDMDL
MODEL 3
REMARK VINA RESULT:      -7.0      1.518      1.796
REMARK  5 active torsions:
REMARK  status: ('A' for Active; 'I' for Inactive)
REMARK    1  A    between atoms: C3_3  and  N1_4 
REMARK    2  A    between atoms: C10_15  and  O3_16 
REMARK    3  A    between atoms: O3_16  and  C11_17 
REMARK    4  A    between atoms: C11_17  and  C12_18 
REMARK    5  A    between atoms: C16_23  and  C17_24 
ROOT
HETATM    1  C1  UNL     1      19.255   6.235  49.252  1.00  0.00     0.015 C 
HETATM    2  C2  UNL     1      20.201   5.612  48.814  1.00  0.00    -0.081 C 
HETATM    3  C3  UNL     1      21.337   4.852  48.280  1.00  0.00     0.122 A 
HETATM    4  C19 UNL     1      22.442   5.664  47.774  1.00  0.00     0.014 A 
HETATM    5  C20 UNL     1      22.223   5.207  46.533  1.00  0.00    -0.023 A 
HETATM    6  C21 UNL     1      21.078   4.334  46.919  1.00  0.00     0.076 A 
ENDROOT
BRANCH   3   7
HETATM    7  N1  UNL     1      21.688   3.826  49.292  1.00  0.00    -0.294 N 
HETATM    8  C4  UNL     1      21.313   2.498  48.676  1.00  0.00     0.213 C 
HETATM    9  N2  UNL     1      22.287   1.681  49.155  1.00  0.00    -0.228 NA
HETATM   10  C5  UNL     1      22.518   1.838  50.557  1.00  0.00     0.138 C 
HETATM   11  N3  UNL     1      21.789   2.713  51.287  1.00  0.00    -0.209 NA
HETATM   12  C16 UNL     1      23.610   1.483  51.489  1.00  0.00     0.116 C 
HETATM   13  C6  UNL     1      22.225   4.026  50.625  1.00  0.00     0.296 C 
HETATM   14  O1  UNL     1      21.662   5.095  51.222  1.00  0.00    -0.334 OA
HETATM   15  C9  UNL     1      23.692   3.902  50.852  1.00  0.00     0.156 C 
HETATM   16  C7  UNL     1      22.505   5.946  51.880  1.00  0.00     0.200 C 
HETATM   17  C8  UNL     1      23.763   6.332  51.182  1.00  0.00     0.202 C 
HETATM   18  O2  UNL     1      24.237   5.132  50.511  1.00  0.00    -0.344 OA
HETATM   19  C10 UNL     1      24.427   2.808  51.315  1.00  0.00     0.094 C 
BRANCH  19  20
HETATM   20  O3  UNL     1      25.777   2.974  51.576  1.00  0.00    -0.349 OA
BRANCH  20  21
HETATM   21  C11 UNL     1      26.655   1.945  51.162  1.00  0.00     0.207 C 
BRANCH  21  22
HETATM   22  C12 UNL     1      27.173   1.141  52.330  1.00  0.00     0.145 C 
HETATM   23  C13 UNL     1      26.726  -0.312  52.229  1.00  0.00     0.036 C 
HETATM   24  C14 UNL     1      26.847  -0.757  53.667  1.00  0.00     0.029 C 
HETATM   25  C15 UNL     1      26.591   0.515  54.407  1.00  0.00     0.168 C 
HETATM   26  O4  UNL     1      26.617   1.552  53.511  1.00  0.00    -0.384 OA
ENDBRANCH  21  22
ENDBRANCH  20  21
ENDBRANCH  19  20
BRANCH  12  27
HETATM   27  C17 UNL     1      23.197   1.286  52.888  1.00  0.00     0.015 C 
HETATM   28  C18 UNL     1      23.076  -0.214  53.123  1.00  0.00     0.006 C 
ENDBRANCH  12  27
ENDBRANCH   3   7
TORSDOF 5
ENDMDL
MODEL 4
REMARK VINA RESULT:      -6.9      2.396      4.934
REMARK  5 active torsions:
REMARK  status: ('A' for Active; 'I' for Inactive)
REMARK    1  A    between atoms: C3_3  and  N1_4 
REMARK    2  A    between atoms: C10_15  and  O3_16 
REMARK    3  A    between atoms: O3_16  and  C11_17 
REMARK    4  A    between atoms: C11_17  and  C12_18 
REMARK    5  A    between atoms: C16_23  and  C17_24 
ROOT
HETATM    1  C1  UNL     1      19.245   4.564  50.388  1.00  0.00     0.015 C 
HETATM    2  C2  UNL     1      20.366   4.981  50.176  1.00  0.00    -0.081 C 
HETATM    3  C3  UNL     1      21.720   5.477  49.910  1.00  0.00     0.122 A 
HETATM    4  C19 UNL     1      21.927   6.896  50.194  1.00  0.00     0.014 A 
HETATM    5  C20 UNL     1      22.145   7.136  48.895  1.00  0.00    -0.023 A 
HETATM    6  C21 UNL     1      21.959   5.719  48.470  1.00  0.00     0.076 A 
ENDROOT
BRANCH   3   7
HETATM    7  N1  UNL     1      22.665   4.536  50.559  1.00  0.00    -0.294 N 
HETATM    8  C4  UNL     1      23.201   5.262  51.771  1.00  0.00     0.213 C 
HETATM    9  N2  UNL     1      23.340   4.250  52.666  1.00  0.00    -0.228 NA
HETATM   10  C5  UNL     1      23.980   3.095  52.120  1.00  0.00     0.138 C 
HETATM   11  N3  UNL     1      24.406   3.080  50.837  1.00  0.00    -0.209 NA
HETATM   12  C16 UNL     1      24.086   1.670  52.504  1.00  0.00     0.116 C 
HETATM   13  C6  UNL     1      23.059   3.211  50.116  1.00  0.00     0.296 C 
HETATM   14  O1  UNL     1      23.204   3.168  48.777  1.00  0.00    -0.334 OA
HETATM   15  C9  UNL     1      22.389   2.014  50.696  1.00  0.00     0.156 C 
HETATM   16  C7  UNL     1      22.664   2.090  48.135  1.00  0.00     0.200 C 
HETATM   17  C8  UNL     1      21.287   1.683  48.530  1.00  0.00     0.202 C 
HETATM   18  O2  UNL     1      21.217   1.843  49.973  1.00  0.00    -0.344 OA
HETATM   19  C10 UNL     1      22.805   1.188  51.744  1.00  0.00     0.094 C 
BRANCH  19  20
HETATM   20  O3  UNL     1      22.075   0.044  52.020  1.00  0.00    -0.349 OA
BRANCH  20  21
HETATM   21  C11 UNL     1      21.587  -0.119  53.337  1.00  0.00     0.207 C 
BRANCH  21  22
HETATM   22  C12 UNL     1      20.079  -0.112  53.387  1.00  0.00     0.145 C 
HETATM   23  C13 UNL     1      19.542  -1.478  53.798  1.00  0.00     0.036 C 
HETATM   24  C14 UNL     1      18.133  -1.414  53.258  1.00  0.00     0.029 C 
HETATM   25  C15 UNL     1      18.292  -0.506  52.084  1.00  0.00     0.168 C 
HETATM   26  O4  UNL     1      19.535   0.070  52.144  1.00  0.00    -0.384 OA
ENDBRANCH  21  22
ENDBRANCH  20  21
ENDBRANCH  19  20
BRANCH  12  27
HETATM   27  C17 UNL     1      25.292   0.981  52.018  1.00  0.00     0.015 C 
HETATM   28  C18 UNL     1      25.496  -0.254  52.885  1.00  0.00     0.006 C 
ENDBRANCH  12  27
ENDBRANCH   3   7
TORSDOF 5
ENDMDL
MODEL 5
REMARK VINA RESULT:      -6.9      9.512     12.054
REMARK  5 active torsions:
REMARK  status: ('A' for Active; 'I' for Inactive)
REMARK    1  A    between atoms: C3_3  and  N1_4 
REMARK    2  A    between atoms: C10_15  and  O3_16 
REMARK    3  A    between atoms: O3_16  and  C11_17 
REMARK    4  A    between atoms: C11_17  and  C12_18 
REMARK    5  A    between atoms: C16_23  and  C17_24 
ROOT
HETATM    1  C1  UNL     1      31.458   3.050  46.612  1.00  0.00     0.015 C 
HETATM    2  C2  UNL     1      32.378   3.746  46.228  1.00  0.00    -0.081 C 
HETATM    3  C3  UNL     1      33.490   4.588  45.775  1.00  0.00     0.122 A 
HETATM    4  C19 UNL     1      34.169   4.121  44.568  1.00  0.00     0.014 A 
HETATM    5  C20 UNL     1      35.293   3.915  45.267  1.00  0.00    -0.023 A 
HETATM    6  C21 UNL     1      34.720   4.369  46.567  1.00  0.00     0.076 A 
ENDROOT
BRANCH   3   7
HETATM    7  N1  UNL     1      32.995   5.986  45.748  1.00  0.00    -0.294 N 
HETATM    8  C4  UNL     1      32.795   6.323  44.289  1.00  0.00     0.213 C 
HETATM    9  N2  UNL     1      31.702   7.127  44.333  1.00  0.00    -0.228 NA
HETATM   10  C5  UNL     1      31.779   8.131  45.347  1.00  0.00     0.138 C 
HETATM   11  N3  UNL     1      32.871   8.236  46.138  1.00  0.00    -0.209 NA
HETATM   12  C16 UNL     1      30.807   9.010  46.033  1.00  0.00     0.116 C 
HETATM   13  C6  UNL     1      32.791   6.889  46.866  1.00  0.00     0.296 C 
HETATM   14  O1  UNL     1      33.771   6.758  47.782  1.00  0.00    -0.334 OA
HETATM   15  C9  UNL     1      31.428   7.040  47.447  1.00  0.00     0.156 C 
HETATM   16  C7  UNL     1      33.385   6.710  49.092  1.00  0.00     0.200 C 
HETATM   17  C8  UNL     1      32.228   5.834  49.428  1.00  0.00     0.202 C 
HETATM   18  O2  UNL     1      31.274   5.990  48.342  1.00  0.00    -0.344 OA
HETATM   19  C10 UNL     1      30.461   8.017  47.193  1.00  0.00     0.094 C 
BRANCH  19  20
HETATM   20  O3  UNL     1      29.309   8.029  47.961  1.00  0.00    -0.349 OA
BRANCH  20  21
HETATM   21  C11 UNL     1      28.195   7.301  47.483  1.00  0.00     0.207 C 
BRANCH  21  22
HETATM   22  C12 UNL     1      27.535   6.496  48.576  1.00  0.00     0.145 C 
HETATM   23  C13 UNL     1      27.914   5.024  48.471  1.00  0.00     0.036 C 
HETATM   24  C14 UNL     1      26.780   4.374  49.228  1.00  0.00     0.029 C 
HETATM   25  C15 UNL     1      25.659   5.330  48.987  1.00  0.00     0.168 C 
HETATM   26  O4  UNL     1      26.173   6.473  48.431  1.00  0.00    -0.384 OA
ENDBRANCH  21  22
ENDBRANCH  20  21
ENDBRANCH  19  20
BRANCH  12  27
HETATM   27  C17 UNL     1      31.363  10.270  46.552  1.00  0.00     0.015 C 
HETATM   28  C18 UNL     1      30.194  11.198  46.853  1.00  0.00     0.006 C 
ENDBRANCH  12  27
ENDBRANCH   3   7
TORSDOF 5
ENDMDL
MODEL 6
REMARK VINA RESULT:      -6.9      2.993      5.787
REMARK  5 active torsions:
REMARK  status: ('A' for Active; 'I' for Inactive)
REMARK    1  A    between atoms: C3_3  and  N1_4 
REMARK    2  A    between atoms: C10_15  and  O3_16 
REMARK    3  A    between atoms: O3_16  and  C11_17 
REMARK    4  A    between atoms: C11_17  and  C12_18 
REMARK    5  A    between atoms: C16_23  and  C17_24 
ROOT
HETATM    1  C1  UNL     1      21.052   5.846  50.455  1.00  0.00     0.015 C 
HETATM    2  C2  UNL     1      22.097   5.243  50.303  1.00  0.00    -0.081 C 
HETATM    3  C3  UNL     1      23.353   4.511  50.113  1.00  0.00     0.122 A 
HETATM    4  C19 UNL     1      24.566   5.314  50.256  1.00  0.00     0.014 A 
HETATM    5  C20 UNL     1      24.861   5.118  48.964  1.00  0.00    -0.023 A 
HETATM    6  C21 UNL     1      23.660   4.282  48.684  1.00  0.00     0.076 A 
ENDROOT
BRANCH   3   7
HETATM    7  N1  UNL     1      23.276   3.288  50.948  1.00  0.00    -0.294 N 
HETATM    8  C4  UNL     1      24.168   3.548  52.140  1.00  0.00     0.213 C 
HETATM    9  N2  UNL     1      23.501   2.909  53.135  1.00  0.00    -0.228 NA
HETATM   10  C5  UNL     1      23.068   1.596  52.775  1.00  0.00     0.138 C 
HETATM   11  N3  UNL     1      23.347   1.084  51.554  1.00  0.00    -0.209 NA
HETATM   12  C16 UNL     1      22.073   0.635  53.299  1.00  0.00     0.116 C 
HETATM   13  C6  UNL     1      22.552   2.060  50.678  1.00  0.00     0.296 C 
HETATM   14  O1  UNL     1      22.622   1.730  49.373  1.00  0.00    -0.334 OA
HETATM   15  C9  UNL     1      21.209   1.850  51.289  1.00  0.00     0.156 C 
HETATM   16  C7  UNL     1      21.461   1.325  48.778  1.00  0.00     0.200 C 
HETATM   17  C8  UNL     1      20.239   2.130  49.053  1.00  0.00     0.202 C 
HETATM   18  O2  UNL     1      20.305   2.497  50.458  1.00  0.00    -0.344 OA
HETATM   19  C10 UNL     1      20.864   1.152  52.449  1.00  0.00     0.094 C 
BRANCH  19  20
HETATM   20  O3  UNL     1      19.523   0.977  52.747  1.00  0.00    -0.349 OA
BRANCH  20  21
HETATM   21  C11 UNL     1      18.854  -0.111  52.142  1.00  0.00     0.207 C 
BRANCH  21  22
HETATM   22  C12 UNL     1      17.508   0.290  51.588  1.00  0.00     0.145 C 
HETATM   23  C13 UNL     1      17.398  -0.071  50.112  1.00  0.00     0.036 C 
HETATM   24  C14 UNL     1      16.302   0.866  49.662  1.00  0.00     0.029 C 
HETATM   25  C15 UNL     1      16.481   2.022  50.591  1.00  0.00     0.168 C 
HETATM   26  O4  UNL     1      17.350   1.650  51.585  1.00  0.00    -0.384 OA
ENDBRANCH  21  22
ENDBRANCH  20  21
ENDBRANCH  19  20
BRANCH  12  27
HETATM   27  C17 UNL     1      22.364  -0.780  53.017  1.00  0.00     0.015 C 
HETATM   28  C18 UNL     1      21.779  -1.604  54.157  1.00  0.00     0.006 C 
ENDBRANCH  12  27
ENDBRANCH   3   7
TORSDOF 5
ENDMDL
MODEL 7
REMARK VINA RESULT:      -6.8      2.466      4.288
REMARK  5 active torsions:
REMARK  status: ('A' for Active; 'I' for Inactive)
REMARK    1  A    between atoms: C3_3  and  N1_4 
REMARK    2  A    between atoms: C10_15  and  O3_16 
REMARK    3  A    between atoms: O3_16  and  C11_17 
REMARK    4  A    between atoms: C11_17  and  C12_18 
REMARK    5  A    between atoms: C16_23  and  C17_24 
ROOT
HETATM    1  C1  UNL     1      20.210   2.496  48.081  1.00  0.00     0.015 C 
HETATM    2  C2  UNL     1      20.008   2.589  49.275  1.00  0.00    -0.081 C 
HETATM    3  C3  UNL     1      19.766   2.711  50.717  1.00  0.00     0.122 A 
HETATM    4  C19 UNL     1      18.601   1.982  51.213  1.00  0.00     0.014 A 
HETATM    5  C20 UNL     1      18.005   3.136  51.543  1.00  0.00    -0.023 A 
HETATM    6  C21 UNL     1      19.127   3.998  51.073  1.00  0.00     0.076 A 
ENDROOT
BRANCH   3   7
HETATM    7  N1  UNL     1      21.053   2.433  51.399  1.00  0.00    -0.294 N 
HETATM    8  C4  UNL     1      20.944   1.017  51.918  1.00  0.00     0.213 C 
HETATM    9  N2  UNL     1      22.217   0.567  51.773  1.00  0.00    -0.228 NA
HETATM   10  C5  UNL     1      23.201   1.485  52.253  1.00  0.00     0.138 C 
HETATM   11  N3  UNL     1      22.837   2.663  52.811  1.00  0.00    -0.209 NA
HETATM   12  C16 UNL     1      24.656   1.664  52.060  1.00  0.00     0.116 C 
HETATM   13  C6  UNL     1      22.177   3.328  51.598  1.00  0.00     0.296 C 
HETATM   14  O1  UNL     1      21.760   4.578  51.881  1.00  0.00    -0.334 OA
HETATM   15  C9  UNL     1      23.336   3.269  50.664  1.00  0.00     0.156 C 
HETATM   16  C7  UNL     1      22.394   5.600  51.232  1.00  0.00     0.200 C 
HETATM   17  C8  UNL     1      22.622   5.438  49.769  1.00  0.00     0.202 C 
HETATM   18  O2  UNL     1      22.986   4.045  49.568  1.00  0.00    -0.344 OA
HETATM   19  C10 UNL     1      24.553   2.597  50.807  1.00  0.00     0.094 C 
BRANCH  19  20
HETATM   20  O3  UNL     1      25.541   2.800  49.858  1.00  0.00    -0.349 OA
BRANCH  20  21
HETATM   21  C11 UNL     1      26.513   3.791  50.126  1.00  0.00     0.207 C 
BRANCH  21  22
HETATM   22  C12 UNL     1      26.487   4.901  49.104  1.00  0.00     0.145 C 
HETATM   23  C13 UNL     1      27.888   5.185  48.576  1.00  0.00     0.036 C 
HETATM   24  C14 UNL     1      27.725   6.594  48.056  1.00  0.00     0.029 C 
HETATM   25  C15 UNL     1      26.664   7.136  48.956  1.00  0.00     0.168 C 
HETATM   26  O4  UNL     1      26.123   6.095  49.666  1.00  0.00    -0.384 OA
ENDBRANCH  21  22
ENDBRANCH  20  21
ENDBRANCH  19  20
BRANCH  12  27
HETATM   27  C17 UNL     1      25.356   2.331  53.170  1.00  0.00     0.015 C 
HETATM   28  C18 UNL     1      26.151   1.268  53.915  1.00  0.00     0.006 C 
ENDBRANCH  12  27
ENDBRANCH   3   7
TORSDOF 5
ENDMDL
MODEL 8
REMARK VINA RESULT:      -6.7      2.345      4.308
REMARK  5 active torsions:
REMARK  status: ('A' for Active; 'I' for Inactive)
REMARK    1  A    between atoms: C3_3  and  N1_4 
REMARK    2  A    between atoms: C10_15  and  O3_16 
REMARK    3  A    between atoms: O3_16  and  C11_17 
REMARK    4  A    between atoms: C11_17  and  C12_18 
REMARK    5  A    between atoms: C16_23  and  C17_24 
ROOT
HETATM    1  C1  UNL     1      23.349   6.992  47.005  1.00  0.00     0.015 C 
HETATM    2  C2  UNL     1      22.635   6.637  47.922  1.00  0.00    -0.081 C 
HETATM    3  C3  UNL     1      21.776   6.217  49.034  1.00  0.00     0.122 A 
HETATM    4  C19 UNL     1      20.490   5.645  48.642  1.00  0.00     0.014 A 
HETATM    5  C20 UNL     1      19.846   6.671  49.216  1.00  0.00    -0.023 A 
HETATM    6  C21 UNL     1      21.087   7.358  49.675  1.00  0.00     0.076 A 
ENDROOT
BRANCH   3   7
HETATM    7  N1  UNL     1      22.610   5.391  49.940  1.00  0.00    -0.294 N 
HETATM    8  C4  UNL     1      23.141   6.341  50.989  1.00  0.00     0.213 C 
HETATM    9  N2  UNL     1      23.156   5.556  52.097  1.00  0.00    -0.228 NA
HETATM   10  C5  UNL     1      23.730   4.267  51.871  1.00  0.00     0.138 C 
HETATM   11  N3  UNL     1      24.217   3.929  50.655  1.00  0.00    -0.209 NA
HETATM   12  C16 UNL     1      23.705   2.966  52.574  1.00  0.00     0.116 C 
HETATM   13  C6  UNL     1      22.922   3.977  49.836  1.00  0.00     0.296 C 
HETATM   14  O1  UNL     1      23.128   3.617  48.554  1.00  0.00    -0.334 OA
HETATM   15  C9  UNL     1      22.132   2.992  50.627  1.00  0.00     0.156 C 
HETATM   16  C7  UNL     1      22.538   2.457  48.138  1.00  0.00     0.200 C 
HETATM   17  C8  UNL     1      21.115   2.243  48.524  1.00  0.00     0.202 C 
HETATM   18  O2  UNL     1      20.987   2.735  49.886  1.00  0.00    -0.344 OA
HETATM   19  C10 UNL     1      22.429   2.405  51.859  1.00  0.00     0.094 C 
BRANCH  19  20
HETATM   20  O3  UNL     1      21.599   1.406  52.339  1.00  0.00    -0.349 OA
BRANCH  20  21
HETATM   21  C11 UNL     1      21.829   0.088  51.882  1.00  0.00     0.207 C 
BRANCH  21  22
HETATM   22  C12 UNL     1      22.286  -0.825  52.993  1.00  0.00     0.145 C 
HETATM   23  C13 UNL     1      21.703  -0.386  54.331  1.00  0.00     0.036 C 
HETATM   24  C14 UNL     1      22.673  -1.023  55.297  1.00  0.00     0.029 C 
HETATM   25  C15 UNL     1      23.937  -1.039  54.502  1.00  0.00     0.168 C 
HETATM   26  O4  UNL     1      23.636  -0.729  53.201  1.00  0.00    -0.384 OA
ENDBRANCH  21  22
ENDBRANCH  20  21
ENDBRANCH  19  20
BRANCH  12  27
HETATM   27  C17 UNL     1      24.876   2.106  52.337  1.00  0.00     0.015 C 
HETATM   28  C18 UNL     1      25.763   2.189  53.572  1.00  0.00     0.006 C 
ENDBRANCH  12  27
ENDBRANCH   3   7
TORSDOF 5
ENDMDL
MODEL 9
REMARK VINA RESULT:      -6.5      2.644      7.059
REMARK  5 active torsions:
REMARK  status: ('A' for Active; 'I' for Inactive)
REMARK    1  A    between atoms: C3_3  and  N1_4 
REMARK    2  A    between atoms: C10_15  and  O3_16 
REMARK    3  A    between atoms: O3_16  and  C11_17 
REMARK    4  A    between atoms: C11_17  and  C12_18 
REMARK    5  A    between atoms: C16_23  and  C17_24 
ROOT
HETATM    1  C1  UNL     1      25.254  -0.898  54.950  1.00  0.00     0.015 C 
HETATM    2  C2  UNL     1      24.195  -0.633  54.416  1.00  0.00    -0.081 C 
HETATM    3  C3  UNL     1      22.920  -0.319  53.763  1.00  0.00     0.122 A 
HETATM    4  C19 UNL     1      21.774  -0.208  54.662  1.00  0.00     0.014 A 
HETATM    5  C20 UNL     1      21.207  -1.279  54.090  1.00  0.00    -0.023 A 
HETATM    6  C21 UNL     1      22.313  -1.503  53.116  1.00  0.00     0.076 A 
ENDROOT
BRANCH   3   7
HETATM    7  N1  UNL     1      23.163   0.837  52.866  1.00  0.00    -0.294 N 
HETATM    8  C4  UNL     1      24.659   1.051  52.868  1.00  0.00     0.213 C 
HETATM    9  N2  UNL     1      24.887   1.452  51.591  1.00  0.00    -0.228 NA
HETATM   10  C5  UNL     1      23.971   2.452  51.139  1.00  0.00     0.138 C 
HETATM   11  N3  UNL     1      23.007   2.931  51.959  1.00  0.00    -0.209 NA
HETATM   12  C16 UNL     1      23.555   2.980  49.822  1.00  0.00     0.116 C 
HETATM   13  C6  UNL     1      22.187   1.652  52.166  1.00  0.00     0.296 C 
HETATM   14  O1  UNL     1      21.100   1.876  52.931  1.00  0.00    -0.334 OA
HETATM   15  C9  UNL     1      21.879   1.363  50.737  1.00  0.00     0.156 C 
HETATM   16  C7  UNL     1      19.883   1.738  52.326  1.00  0.00     0.200 C 
HETATM   17  C8  UNL     1      19.685   0.540  51.463  1.00  0.00     0.202 C 
HETATM   18  O2  UNL     1      20.935   0.345  50.748  1.00  0.00    -0.344 OA
HETATM   19  C10 UNL     1      22.392   1.960  49.583  1.00  0.00     0.094 C 
BRANCH  19  20
HETATM   20  O3  UNL     1      21.850   1.613  48.357  1.00  0.00    -0.349 OA
BRANCH  20  21
HETATM   21  C11 UNL     1      20.643   2.242  47.973  1.00  0.00     0.207 C 
BRANCH  21  22
HETATM   22  C12 UNL     1      20.889   3.476  47.140  1.00  0.00     0.145 C 
HETATM   23  C13 UNL     1      19.744   3.709  46.162  1.00  0.00     0.036 C 
HETATM   24  C14 UNL     1      20.417   4.574  45.123  1.00  0.00     0.029 C 
HETATM   25  C15 UNL     1      21.834   4.110  45.202  1.00  0.00     0.168 C 
HETATM   26  O4  UNL     1      21.971   3.321  46.315  1.00  0.00    -0.384 OA
ENDBRANCH  21  22
ENDBRANCH  20  21
ENDBRANCH  19  20
BRANCH  12  27
HETATM   27  C17 UNL     1      23.061   4.366  49.833  1.00  0.00     0.015 C 
HETATM   28  C18 UNL     1      24.030   5.206  49.012  1.00  0.00     0.006 C 
ENDBRANCH  12  27
ENDBRANCH   3   7
TORSDOF 5
ENDMDL
