MODEL 1
REMARK VINA RESULT:      -7.6      0.000      0.000
REMARK  3 active torsions:
REMARK  status: ('A' for Active; 'I' for Inactive)
REMARK    1  A    between atoms: C2_2  and  C3_3 
REMARK    2  A    between atoms: N4_18  and  O1_19 
REMARK    3  A    between atoms: O1_19  and  C14_20 
ROOT
HETATM    1  C3  UNL     1      23.115   0.539  52.410  1.00  0.00    -0.004 C 
HETATM    2  C4  UNL     1      23.111   1.550  51.291  1.00  0.00     0.038 C 
HETATM    3  C5  UNL     1      23.597   2.523  50.521  1.00  0.00     0.019 C 
HETATM    4  C6  UNL     1      24.745   3.471  50.219  1.00  0.00     0.126 C 
HETATM    5  N1  UNL     1      25.672   3.489  51.373  1.00  0.00    -0.375 N 
HETATM    6  C7  UNL     1      26.233   2.313  51.789  1.00  0.00     0.153 A 
HETATM    7  N2  UNL     1      26.654   1.248  51.197  1.00  0.00    -0.047 NA
HETATM    8  C8  UNL     1      26.837   0.309  52.318  1.00  0.00     0.729 A 
HETATM    9  N3  UNL     1      26.542   0.925  53.311  1.00  0.00    -0.182 N 
HETATM   10  C9  UNL     1      26.151   2.135  53.278  1.00  0.00     0.169 A 
HETATM   11  C10 UNL     1      26.266   1.393  54.429  1.00  0.00     0.173 A 
HETATM   12  C11 UNL     1      26.165  -0.161  54.612  1.00  0.00     0.186 C 
HETATM   13  C12 UNL     1      24.763  -0.391  54.249  1.00  0.00     0.046 C 
HETATM   14  C13 UNL     1      23.683  -0.222  53.562  1.00  0.00     0.122 C 
HETATM   15  F1  UNL     1      22.721  -0.976  54.148  1.00  0.00    -0.206 F 
HETATM   16  N4  UNL     1      27.025  -0.649  53.447  1.00  0.00    -0.071 N 
HETATM   17  H7  UNL     1      26.036   4.248  51.968  1.00  0.00     0.160 HD
ENDROOT
BRANCH  16  18
HETATM   18  O1  UNL     1      27.924  -1.428  52.633  1.00  0.00    -0.234 OA
BRANCH  18  19
HETATM   19  C14 UNL     1      29.066  -1.838  53.309  1.00  0.00     0.158 C 
HETATM   20  C15 UNL     1      29.865  -0.832  53.630  1.00  0.00     0.039 C 
ENDBRANCH  18  19
ENDBRANCH  16  18
BRANCH   1  21
HETATM   21  C2  UNL     1      21.890   0.128  52.020  1.00  0.00    -0.026 C 
HETATM   22  C1  UNL     1      20.573   0.300  51.719  1.00  0.00     0.025 C 
ENDBRANCH   1  21
TORSDOF 3
ENDMDL
MODEL 2
REMARK VINA RESULT:      -6.9      3.313      5.996
REMARK  3 active torsions:
REMARK  status: ('A' for Active; 'I' for Inactive)
REMARK    1  A    between atoms: C2_2  and  C3_3 
REMARK    2  A    between atoms: N4_18  and  O1_19 
REMARK    3  A    between atoms: O1_19  and  C14_20 
ROOT
HETATM    1  C3  UNL     1      24.953   0.358  52.717  1.00  0.00    -0.004 C 
HETATM    2  C4  UNL     1      24.114  -0.520  53.612  1.00  0.00     0.038 C 
HETATM    3  C5  UNL     1      23.006  -0.943  54.217  1.00  0.00     0.019 C 
HETATM    4  C6  UNL     1      21.517  -0.753  54.453  1.00  0.00     0.126 C 
HETATM    5  N1  UNL     1      21.119   0.589  53.971  1.00  0.00    -0.375 N 
HETATM    6  C7  UNL     1      21.356   0.919  52.664  1.00  0.00     0.153 A 
HETATM    7  N2  UNL     1      21.330   0.277  51.546  1.00  0.00    -0.047 NA
HETATM    8  C8  UNL     1      21.989   1.216  50.621  1.00  0.00     0.729 A 
HETATM    9  N3  UNL     1      22.255   2.190  51.280  1.00  0.00    -0.182 N 
HETATM   10  C9  UNL     1      21.986   2.274  52.521  1.00  0.00     0.169 A 
HETATM   11  C10 UNL     1      22.615   3.260  51.799  1.00  0.00     0.173 A 
HETATM   12  C11 UNL     1      23.499   3.126  50.512  1.00  0.00     0.186 C 
HETATM   13  C12 UNL     1      24.639   2.368  51.036  1.00  0.00     0.046 C 
HETATM   14  C13 UNL     1      25.221   1.462  51.749  1.00  0.00     0.122 C 
HETATM   15  F1  UNL     1      26.556   1.624  51.579  1.00  0.00    -0.206 F 
HETATM   16  N4  UNL     1      22.654   2.162  49.677  1.00  0.00    -0.071 N 
HETATM   17  H7  UNL     1      20.650   1.387  54.424  1.00  0.00     0.160 HD
ENDROOT
BRANCH  16  18
HETATM   18  O1  UNL     1      22.030   1.489  48.567  1.00  0.00    -0.234 OA
BRANCH  18  19
HETATM   19  C14 UNL     1      21.243   2.325  47.785  1.00  0.00     0.158 C 
HETATM   20  C15 UNL     1      21.957   3.147  47.031  1.00  0.00     0.039 C 
ENDBRANCH  18  19
ENDBRANCH  16  18
BRANCH   1  21
HETATM   21  C2  UNL     1      26.026  -0.411  52.998  1.00  0.00    -0.026 C 
HETATM   22  C1  UNL     1      26.902  -1.430  52.774  1.00  0.00     0.025 C 
ENDBRANCH   1  21
TORSDOF 3
ENDMDL
MODEL 3
REMARK VINA RESULT:      -6.7      2.541      5.042
REMARK  3 active torsions:
REMARK  status: ('A' for Active; 'I' for Inactive)
REMARK    1  A    between atoms: C2_2  and  C3_3 
REMARK    2  A    between atoms: N4_18  and  O1_19 
REMARK    3  A    between atoms: O1_19  and  C14_20 
ROOT
HETATM    1  C3  UNL     1      22.948  -0.253  52.979  1.00  0.00    -0.004 C 
HETATM    2  C4  UNL     1      24.011  -0.578  53.997  1.00  0.00     0.038 C 
HETATM    3  C5  UNL     1      25.186  -0.466  54.616  1.00  0.00     0.019 C 
HETATM    4  C6  UNL     1      26.534   0.230  54.699  1.00  0.00     0.126 C 
HETATM    5  N1  UNL     1      26.762   0.990  53.450  1.00  0.00    -0.375 N 
HETATM    6  C7  UNL     1      25.852   1.941  53.079  1.00  0.00     0.153 A 
HETATM    7  N2  UNL     1      25.116   2.791  53.710  1.00  0.00    -0.047 NA
HETATM    8  C8  UNL     1      24.186   3.252  52.664  1.00  0.00     0.729 A 
HETATM    9  N3  UNL     1      24.509   2.668  51.660  1.00  0.00    -0.182 N 
HETATM   10  C9  UNL     1      25.468   1.832  51.631  1.00  0.00     0.169 A 
HETATM   11  C10 UNL     1      24.688   2.151  50.545  1.00  0.00     0.173 A 
HETATM   12  C11 UNL     1      23.207   2.661  50.513  1.00  0.00     0.186 C 
HETATM   13  C12 UNL     1      22.501   1.496  51.053  1.00  0.00     0.046 C 
HETATM   14  C13 UNL     1      22.325   0.488  51.842  1.00  0.00     0.122 C 
HETATM   15  F1  UNL     1      21.191  -0.134  51.440  1.00  0.00    -0.206 F 
HETATM   16  N4  UNL     1      23.241   3.725  51.611  1.00  0.00    -0.071 N 
HETATM   17  H7  UNL     1      27.520   0.981  52.752  1.00  0.00     0.160 HD
ENDROOT
BRANCH  16  18
HETATM   18  O1  UNL     1      22.980   4.914  52.382  1.00  0.00    -0.234 OA
BRANCH  18  19
HETATM   19  C14 UNL     1      22.775   6.045  51.602  1.00  0.00     0.158 C 
HETATM   20  C15 UNL     1      23.906   6.589  51.177  1.00  0.00     0.039 C 
ENDBRANCH  18  19
ENDBRANCH  16  18
BRANCH   1  21
HETATM   21  C2  UNL     1      22.148  -1.184  53.542  1.00  0.00    -0.026 C 
HETATM   22  C1  UNL     1      21.207  -1.628  54.420  1.00  0.00     0.025 C 
ENDBRANCH   1  21
TORSDOF 3
ENDMDL
MODEL 4
REMARK VINA RESULT:      -6.6      3.426      6.248
REMARK  3 active torsions:
REMARK  status: ('A' for Active; 'I' for Inactive)
REMARK    1  A    between atoms: C2_2  and  C3_3 
REMARK    2  A    between atoms: N4_18  and  O1_19 
REMARK    3  A    between atoms: O1_19  and  C14_20 
ROOT
HETATM    1  C3  UNL     1      25.746   3.920  50.030  1.00  0.00    -0.004 C 
HETATM    2  C4  UNL     1      26.674   3.034  50.823  1.00  0.00     0.038 C 
HETATM    3  C5  UNL     1      27.034   2.210  51.806  1.00  0.00     0.019 C 
HETATM    4  C6  UNL     1      26.637   1.464  53.068  1.00  0.00     0.126 C 
HETATM    5  N1  UNL     1      25.356   2.011  53.569  1.00  0.00    -0.375 N 
HETATM    6  C7  UNL     1      24.264   1.999  52.745  1.00  0.00     0.153 A 
HETATM    7  N2  UNL     1      23.810   1.190  51.848  1.00  0.00    -0.047 NA
HETATM    8  C8  UNL     1      22.768   1.995  51.188  1.00  0.00     0.729 A 
HETATM    9  N3  UNL     1      22.756   3.053  51.766  1.00  0.00    -0.182 N 
HETATM   10  C9  UNL     1      23.542   3.316  52.731  1.00  0.00     0.169 A 
HETATM   11  C10 UNL     1      22.613   4.196  52.231  1.00  0.00     0.173 A 
HETATM   12  C11 UNL     1      22.012   4.276  50.785  1.00  0.00     0.186 C 
HETATM   13  C12 UNL     1      23.204   4.629  50.009  1.00  0.00     0.046 C 
HETATM   14  C13 UNL     1      24.452   4.577  49.680  1.00  0.00     0.122 C 
HETATM   15  F1  UNL     1      24.640   5.494  48.701  1.00  0.00    -0.206 F 
HETATM   16  N4  UNL     1      21.709   2.802  50.513  1.00  0.00    -0.071 N 
HETATM   17  H7  UNL     1      25.071   2.412  54.474  1.00  0.00     0.160 HD
ENDROOT
BRANCH  16  18
HETATM   18  O1  UNL     1      21.096   1.591  50.031  1.00  0.00    -0.234 OA
BRANCH  18  19
HETATM   19  C14 UNL     1      21.528   1.218  48.764  1.00  0.00     0.158 C 
HETATM   20  C15 UNL     1      21.336   2.163  47.856  1.00  0.00     0.039 C 
ENDBRANCH  18  19
ENDBRANCH  16  18
BRANCH   1  21
HETATM   21  C2  UNL     1      26.743   4.148  49.150  1.00  0.00    -0.026 C 
HETATM   22  C1  UNL     1      27.775   4.860  48.618  1.00  0.00     0.025 C 
ENDBRANCH   1  21
TORSDOF 3
ENDMDL
MODEL 5
REMARK VINA RESULT:      -6.5      9.061     11.342
REMARK  3 active torsions:
REMARK  status: ('A' for Active; 'I' for Inactive)
REMARK    1  A    between atoms: C2_2  and  C3_3 
REMARK    2  A    between atoms: N4_18  and  O1_19 
REMARK    3  A    between atoms: O1_19  and  C14_20 
ROOT
HETATM    1  C3  UNL     1      32.996   5.867  44.829  1.00  0.00    -0.004 C 
HETATM    2  C4  UNL     1      33.999   4.763  45.052  1.00  0.00     0.038 C 
HETATM    3  C5  UNL     1      34.731   3.901  45.757  1.00  0.00     0.019 C 
HETATM    4  C6  UNL     1      35.121   3.360  47.122  1.00  0.00     0.126 C 
HETATM    5  N1  UNL     1      34.648   4.297  48.165  1.00  0.00    -0.375 N 
HETATM    6  C7  UNL     1      33.315   4.600  48.228  1.00  0.00     0.153 A 
HETATM    7  N2  UNL     1      32.223   3.944  48.024  1.00  0.00    -0.047 NA
HETATM    8  C8  UNL     1      31.208   5.012  47.990  1.00  0.00     0.729 A 
HETATM    9  N3  UNL     1      31.809   6.039  48.186  1.00  0.00    -0.182 N 
HETATM   10  C9  UNL     1      33.068   6.076  48.360  1.00  0.00     0.169 A 
HETATM   11  C10 UNL     1      32.257   7.185  48.358  1.00  0.00     0.173 A 
HETATM   12  C11 UNL     1      30.886   7.400  47.629  1.00  0.00     0.186 C 
HETATM   13  C12 UNL     1      31.305   7.335  46.226  1.00  0.00     0.046 C 
HETATM   14  C13 UNL     1      31.975   6.884  45.217  1.00  0.00     0.122 C 
HETATM   15  F1  UNL     1      31.658   7.662  44.154  1.00  0.00    -0.206 F 
HETATM   16  N4  UNL     1      30.174   6.086  47.954  1.00  0.00    -0.071 N 
HETATM   17  H7  UNL     1      35.127   4.798  48.928  1.00  0.00     0.160 HD
ENDROOT
BRANCH  16  18
HETATM   18  O1  UNL     1      29.155   5.112  48.253  1.00  0.00    -0.234 OA
BRANCH  18  19
HETATM   19  C14 UNL     1      27.890   5.665  48.410  1.00  0.00     0.158 C 
HETATM   20  C15 UNL     1      27.011   4.808  48.907  1.00  0.00     0.039 C 
ENDBRANCH  18  19
ENDBRANCH  16  18
BRANCH   1  21
HETATM   21  C2  UNL     1      33.180   5.742  43.498  1.00  0.00    -0.026 C 
HETATM   22  C1  UNL     1      33.582   5.098  42.367  1.00  0.00     0.025 C 
ENDBRANCH   1  21
TORSDOF 3
ENDMDL
MODEL 6
REMARK VINA RESULT:      -6.5      4.195      7.187
REMARK  3 active torsions:
REMARK  status: ('A' for Active; 'I' for Inactive)
REMARK    1  A    between atoms: C2_2  and  C3_3 
REMARK    2  A    between atoms: N4_18  and  O1_19 
REMARK    3  A    between atoms: O1_19  and  C14_20 
ROOT
HETATM    1  C3  UNL     1      21.419   0.099  53.347  1.00  0.00    -0.004 C 
HETATM    2  C4  UNL     1      22.782   0.728  53.198  1.00  0.00     0.038 C 
HETATM    3  C5  UNL     1      23.719   1.498  52.646  1.00  0.00     0.019 C 
HETATM    4  C6  UNL     1      24.101   2.460  51.534  1.00  0.00     0.126 C 
HETATM    5  N1  UNL     1      23.077   2.397  50.468  1.00  0.00    -0.375 N 
HETATM    6  C7  UNL     1      21.774   2.663  50.785  1.00  0.00     0.153 A 
HETATM    7  N2  UNL     1      21.182   3.473  51.596  1.00  0.00    -0.047 NA
HETATM    8  C8  UNL     1      19.798   2.970  51.601  1.00  0.00     0.729 A 
HETATM    9  N3  UNL     1      19.787   2.036  50.839  1.00  0.00    -0.182 N 
HETATM   10  C9  UNL     1      20.827   1.643  50.220  1.00  0.00     0.169 A 
HETATM   11  C10 UNL     1      19.592   1.050  50.108  1.00  0.00     0.173 A 
HETATM   12  C11 UNL     1      18.422   1.010  51.150  1.00  0.00     0.186 C 
HETATM   13  C12 UNL     1      19.034   0.222  52.224  1.00  0.00     0.046 C 
HETATM   14  C13 UNL     1      19.987  -0.154  53.011  1.00  0.00     0.122 C 
HETATM   15  F1  UNL     1      19.505  -1.182  53.750  1.00  0.00    -0.206 F 
HETATM   16  N4  UNL     1      18.392   2.467  51.612  1.00  0.00    -0.071 N 
HETATM   17  H7  UNL     1      23.128   2.203  49.457  1.00  0.00     0.160 HD
ENDROOT
BRANCH  16  18
HETATM   18  O1  UNL     1      17.939   3.751  52.083  1.00  0.00    -0.234 OA
BRANCH  18  19
HETATM   19  C14 UNL     1      16.718   4.137  51.546  1.00  0.00     0.158 C 
HETATM   20  C15 UNL     1      15.720   4.036  52.411  1.00  0.00     0.039 C 
ENDBRANCH  18  19
ENDBRANCH  16  18
BRANCH   1  21
HETATM   21  C2  UNL     1      21.847  -0.522  54.467  1.00  0.00    -0.026 C 
HETATM   22  C1  UNL     1      22.554  -1.455  55.162  1.00  0.00     0.025 C 
ENDBRANCH   1  21
TORSDOF 3
ENDMDL
MODEL 7
REMARK VINA RESULT:      -6.4      3.391      4.778
REMARK  3 active torsions:
REMARK  status: ('A' for Active; 'I' for Inactive)
REMARK    1  A    between atoms: C2_2  and  C3_3 
REMARK    2  A    between atoms: N4_18  and  O1_19 
REMARK    3  A    between atoms: O1_19  and  C14_20 
ROOT
HETATM    1  C3  UNL     1      22.147   0.399  52.656  1.00  0.00    -0.004 C 
HETATM    2  C4  UNL     1      20.845   0.174  51.929  1.00  0.00     0.038 C 
HETATM    3  C5  UNL     1      19.817   0.483  51.139  1.00  0.00     0.019 C 
HETATM    4  C6  UNL     1      19.136   1.518  50.261  1.00  0.00     0.126 C 
HETATM    5  N1  UNL     1      19.746   2.842  50.515  1.00  0.00    -0.375 N 
HETATM    6  C7  UNL     1      21.093   2.997  50.333  1.00  0.00     0.153 A 
HETATM    7  N2  UNL     1      21.958   2.524  49.501  1.00  0.00    -0.047 NA
HETATM    8  C8  UNL     1      23.240   2.906  50.118  1.00  0.00     0.729 A 
HETATM    9  N3  UNL     1      22.952   3.513  51.120  1.00  0.00    -0.182 N 
HETATM   10  C9  UNL     1      21.748   3.712  51.480  1.00  0.00     0.169 A 
HETATM   11  C10 UNL     1      22.846   4.144  52.185  1.00  0.00     0.173 A 
HETATM   12  C11 UNL     1      24.291   3.539  52.224  1.00  0.00     0.186 C 
HETATM   13  C12 UNL     1      24.030   2.238  52.848  1.00  0.00     0.046 C 
HETATM   14  C13 UNL     1      23.374   1.147  53.063  1.00  0.00     0.122 C 
HETATM   15  F1  UNL     1      24.022   0.485  54.051  1.00  0.00    -0.206 F 
HETATM   16  N4  UNL     1      24.543   3.289  50.736  1.00  0.00    -0.071 N 
HETATM   17  H7  UNL     1      19.354   3.752  50.801  1.00  0.00     0.160 HD
ENDROOT
BRANCH  16  18
HETATM   18  O1  UNL     1      25.189   3.148  49.456  1.00  0.00    -0.234 OA
BRANCH  18  19
HETATM   19  C14 UNL     1      26.558   3.381  49.498  1.00  0.00     0.158 C 
HETATM   20  C15 UNL     1      26.888   4.588  49.066  1.00  0.00     0.039 C 
ENDBRANCH  18  19
ENDBRANCH  16  18
BRANCH   1  21
HETATM   21  C2  UNL     1      22.084  -0.865  53.125  1.00  0.00    -0.026 C 
HETATM   22  C1  UNL     1      21.779  -1.821  54.046  1.00  0.00     0.025 C 
ENDBRANCH   1  21
TORSDOF 3
ENDMDL
MODEL 8
REMARK VINA RESULT:      -6.4      3.261      6.100
REMARK  3 active torsions:
REMARK  status: ('A' for Active; 'I' for Inactive)
REMARK    1  A    between atoms: C2_2  and  C3_3 
REMARK    2  A    between atoms: N4_18  and  O1_19 
REMARK    3  A    between atoms: O1_19  and  C14_20 
ROOT
HETATM    1  C3  UNL     1      24.027   0.654  52.600  1.00  0.00    -0.004 C 
HETATM    2  C4  UNL     1      25.091   1.613  52.129  1.00  0.00     0.038 C 
HETATM    3  C5  UNL     1      25.623   2.572  51.373  1.00  0.00     0.019 C 
HETATM    4  C6  UNL     1      25.454   3.538  50.213  1.00  0.00     0.126 C 
HETATM    5  N1  UNL     1      24.261   3.145  49.429  1.00  0.00    -0.375 N 
HETATM    6  C7  UNL     1      23.050   3.072  50.059  1.00  0.00     0.153 A 
HETATM    7  N2  UNL     1      22.472   3.740  51.000  1.00  0.00    -0.047 NA
HETATM    8  C8  UNL     1      21.319   2.888  51.338  1.00  0.00     0.729 A 
HETATM    9  N3  UNL     1      21.380   1.943  50.590  1.00  0.00    -0.182 N 
HETATM   10  C9  UNL     1      22.308   1.808  49.731  1.00  0.00     0.169 A 
HETATM   11  C10 UNL     1      21.292   0.902  49.918  1.00  0.00     0.173 A 
HETATM   12  C11 UNL     1      20.460   0.610  51.214  1.00  0.00     0.186 C 
HETATM   13  C12 UNL     1      21.501   0.075  52.096  1.00  0.00     0.046 C 
HETATM   14  C13 UNL     1      22.680   0.010  52.622  1.00  0.00     0.122 C 
HETATM   15  F1  UNL     1      22.686  -1.066  53.445  1.00  0.00    -0.206 F 
HETATM   16  N4  UNL     1      20.148   2.031  51.687  1.00  0.00    -0.071 N 
HETATM   17  H7  UNL     1      24.120   2.916  48.434  1.00  0.00     0.160 HD
ENDROOT
BRANCH  16  18
HETATM   18  O1  UNL     1      19.489   3.173  52.268  1.00  0.00    -0.234 OA
BRANCH  18  19
HETATM   19  C14 UNL     1      18.540   3.749  51.433  1.00  0.00     0.158 C 
HETATM   20  C15 UNL     1      17.340   3.205  51.565  1.00  0.00     0.039 C 
ENDBRANCH  18  19
ENDBRANCH  16  18
BRANCH   1  21
HETATM   21  C2  UNL     1      24.861   0.232  53.574  1.00  0.00    -0.026 C 
HETATM   22  C1  UNL     1      25.897  -0.495  54.077  1.00  0.00     0.025 C 
ENDBRANCH   1  21
TORSDOF 3
ENDMDL
MODEL 9
REMARK VINA RESULT:      -6.2     10.987     12.673
REMARK  3 active torsions:
REMARK  status: ('A' for Active; 'I' for Inactive)
REMARK    1  A    between atoms: C2_2  and  C3_3 
REMARK    2  A    between atoms: N4_18  and  O1_19 
REMARK    3  A    between atoms: O1_19  and  C14_20 
ROOT
HETATM    1  C3  UNL     1      34.031   6.023  45.156  1.00  0.00    -0.004 C 
HETATM    2  C4  UNL     1      34.240   4.607  45.630  1.00  0.00     0.038 C 
HETATM    3  C5  UNL     1      34.467   3.635  46.513  1.00  0.00     0.019 C 
HETATM    4  C6  UNL     1      34.736   3.245  47.956  1.00  0.00     0.126 C 
HETATM    5  N1  UNL     1      35.103   4.457  48.723  1.00  0.00    -0.375 N 
HETATM    6  C7  UNL     1      34.229   5.509  48.755  1.00  0.00     0.153 A 
HETATM    7  N2  UNL     1      32.944   5.623  48.784  1.00  0.00    -0.047 NA
HETATM    8  C8  UNL     1      32.743   7.055  48.502  1.00  0.00     0.729 A 
HETATM    9  N3  UNL     1      33.847   7.524  48.384  1.00  0.00    -0.182 N 
HETATM   10  C9  UNL     1      34.905   6.824  48.490  1.00  0.00     0.169 A 
HETATM   11  C10 UNL     1      34.895   8.171  48.218  1.00  0.00     0.173 A 
HETATM   12  C11 UNL     1      33.784   9.025  47.516  1.00  0.00     0.186 C 
HETATM   13  C12 UNL     1      33.804   8.451  46.168  1.00  0.00     0.046 C 
HETATM   14  C13 UNL     1      33.879   7.502  45.294  1.00  0.00     0.122 C 
HETATM   15  F1  UNL     1      33.864   8.089  44.073  1.00  0.00    -0.206 F 
HETATM   16  N4  UNL     1      32.529   8.504  48.216  1.00  0.00    -0.071 N 
HETATM   17  H7  UNL     1      35.921   4.701  49.299  1.00  0.00     0.160 HD
ENDROOT
BRANCH  16  18
HETATM   18  O1  UNL     1      31.219   8.426  48.812  1.00  0.00    -0.234 OA
BRANCH  18  19
HETATM   19  C14 UNL     1      30.837   9.593  49.462  1.00  0.00     0.158 C 
HETATM   20  C15 UNL     1      30.624  10.600  48.629  1.00  0.00     0.039 C 
ENDBRANCH  18  19
ENDBRANCH  16  18
BRANCH   1  21
HETATM   21  C2  UNL     1      33.844   5.558  43.903  1.00  0.00    -0.026 C 
HETATM   22  C1  UNL     1      33.316   4.720  42.969  1.00  0.00     0.025 C 
ENDBRANCH   1  21
TORSDOF 3
ENDMDL
