MODEL 1
REMARK VINA RESULT:      -7.7      0.000      0.000
REMARK  7 active torsions:
REMARK  status: ('A' for Active; 'I' for Inactive)
REMARK    1  A    between atoms: C2_2  and  O1_3 
REMARK    2  A    between atoms: O1_3  and  C3_4 
REMARK    3  A    between atoms: C5_6  and  C6_7 
REMARK    4  A    between atoms: C10_12  and  C11_13 
REMARK    5  A    between atoms: C11_13  and  S1_14 
REMARK    6  A    between atoms: S1_14  and  C12_15 
REMARK    7  A    between atoms: C18_21  and  O2_22 
ROOT
HETATM    1  C6  UNL     1      24.590   1.714  51.414  1.00  0.00     0.022 C 
HETATM    2  C7  UNL     1      24.213   2.960  51.243  1.00  0.00     0.094 C 
HETATM    3  C8  UNL     1      23.798   3.972  52.169  1.00  0.00     0.087 C 
HETATM    4  N1  UNL     1      23.469   4.781  52.935  1.00  0.00    -0.192 NA
ENDROOT
BRANCH   1   5
HETATM    5  C5  UNL     1      24.740   0.864  52.576  1.00  0.00    -0.032 A 
HETATM    6  C4  UNL     1      25.978   0.742  53.216  1.00  0.00     0.051 A 
HETATM    7  C3  UNL     1      26.098  -0.069  54.312  1.00  0.00     0.103 A 
HETATM    8  C18 UNL     1      25.023  -0.767  54.797  1.00  0.00     0.106 A 
HETATM    9  C10 UNL     1      23.765  -0.738  54.273  1.00  0.00    -0.012 A 
HETATM   10  C9  UNL     1      23.721   0.116  53.149  1.00  0.00     0.022 A 
BRANCH   7  11
HETATM   11  O1  UNL     1      27.267  -0.260  55.011  1.00  0.00    -0.349 OA
BRANCH  11  12
HETATM   12  C2  UNL     1      28.539   0.042  54.521  1.00  0.00     0.171 C 
HETATM   13  C1  UNL     1      29.075  -1.027  53.607  1.00  0.00     0.034 C 
ENDBRANCH  11  12
ENDBRANCH   7  11
BRANCH   8  14
HETATM   14  O2  UNL     1      25.124  -1.592  55.898  1.00  0.00    -0.357 OA
HETATM   15  H17 UNL     1      25.701  -1.411  56.704  1.00  0.00     0.217 HD
ENDBRANCH   8  14
BRANCH   9  16
HETATM   16  C11 UNL     1      22.444  -1.323  54.587  1.00  0.00     0.121 C 
BRANCH  16  17
HETATM   17  S1  UNL     1      21.112  -0.171  54.597  1.00  0.00    -0.125 SA
BRANCH  17  18
HETATM   18  C12 UNL     1      19.826  -0.317  53.445  1.00  0.00     0.000 A 
HETATM   19  C13 UNL     1      20.190   0.454  52.335  1.00  0.00     0.018 A 
HETATM   20  C14 UNL     1      19.376   0.540  51.197  1.00  0.00     0.001 A 
HETATM   21  C15 UNL     1      18.172  -0.156  51.159  1.00  0.00     0.000 A 
HETATM   22  C16 UNL     1      17.783  -0.927  52.235  1.00  0.00     0.001 A 
HETATM   23  C17 UNL     1      18.624  -0.969  53.317  1.00  0.00     0.018 A 
ENDBRANCH  17  18
ENDBRANCH  16  17
ENDBRANCH   9  16
ENDBRANCH   1   5
TORSDOF 7
ENDMDL
MODEL 2
REMARK VINA RESULT:      -7.6      4.029      7.476
REMARK  7 active torsions:
REMARK  status: ('A' for Active; 'I' for Inactive)
REMARK    1  A    between atoms: C2_2  and  O1_3 
REMARK    2  A    between atoms: O1_3  and  C3_4 
REMARK    3  A    between atoms: C5_6  and  C6_7 
REMARK    4  A    between atoms: C10_12  and  C11_13 
REMARK    5  A    between atoms: C11_13  and  S1_14 
REMARK    6  A    between atoms: S1_14  and  C12_15 
REMARK    7  A    between atoms: C18_21  and  O2_22 
ROOT
HETATM    1  C6  UNL     1      27.465  -0.363  52.869  1.00  0.00     0.022 C 
HETATM    2  C7  UNL     1      28.572  -0.027  53.489  1.00  0.00     0.094 C 
HETATM    3  C8  UNL     1      28.965   1.174  54.168  1.00  0.00     0.087 C 
HETATM    4  N1  UNL     1      29.263   2.152  54.717  1.00  0.00    -0.192 NA
ENDROOT
BRANCH   1   5
HETATM    5  C5  UNL     1      26.213   0.317  52.617  1.00  0.00    -0.032 A 
HETATM    6  C4  UNL     1      25.011  -0.190  53.121  1.00  0.00     0.051 A 
HETATM    7  C3  UNL     1      23.838   0.468  52.868  1.00  0.00     0.103 A 
HETATM    8  C18 UNL     1      23.818   1.620  52.127  1.00  0.00     0.106 A 
HETATM    9  C10 UNL     1      24.912   2.221  51.580  1.00  0.00    -0.012 A 
HETATM   10  C9  UNL     1      26.080   1.486  51.882  1.00  0.00     0.022 A 
BRANCH   7  11
HETATM   11  O1  UNL     1      22.605   0.054  53.315  1.00  0.00    -0.349 OA
BRANCH  11  12
HETATM   12  C2  UNL     1      22.201  -1.280  53.397  1.00  0.00     0.171 C 
HETATM   13  C1  UNL     1      21.839  -1.689  54.800  1.00  0.00     0.034 C 
ENDBRANCH  11  12
ENDBRANCH   7  11
BRANCH   8  14
HETATM   14  O2  UNL     1      22.646   2.296  51.858  1.00  0.00    -0.357 OA
HETATM   15  H17 UNL     1      21.732   1.873  51.815  1.00  0.00     0.217 HD
ENDBRANCH   8  14
BRANCH   9  16
HETATM   16  C11 UNL     1      25.203   3.443  50.799  1.00  0.00     0.121 C 
BRANCH  16  17
HETATM   17  S1  UNL     1      26.556   3.298  49.681  1.00  0.00    -0.125 SA
BRANCH  17  18
HETATM   18  C12 UNL     1      27.209   4.710  48.918  1.00  0.00     0.000 A 
HETATM   19  C13 UNL     1      26.175   5.652  48.863  1.00  0.00     0.018 A 
HETATM   20  C14 UNL     1      26.370   6.931  48.320  1.00  0.00     0.001 A 
HETATM   21  C15 UNL     1      27.620   7.283  47.822  1.00  0.00     0.000 A 
HETATM   22  C16 UNL     1      28.661   6.380  47.862  1.00  0.00     0.001 A 
HETATM   23  C17 UNL     1      28.405   5.146  48.405  1.00  0.00     0.018 A 
ENDBRANCH  17  18
ENDBRANCH  16  17
ENDBRANCH   9  16
ENDBRANCH   1   5
TORSDOF 7
ENDMDL
MODEL 3
REMARK VINA RESULT:      -7.6      3.426      6.598
REMARK  7 active torsions:
REMARK  status: ('A' for Active; 'I' for Inactive)
REMARK    1  A    between atoms: C2_2  and  O1_3 
REMARK    2  A    between atoms: O1_3  and  C3_4 
REMARK    3  A    between atoms: C5_6  and  C6_7 
REMARK    4  A    between atoms: C10_12  and  C11_13 
REMARK    5  A    between atoms: C11_13  and  S1_14 
REMARK    6  A    between atoms: S1_14  and  C12_15 
REMARK    7  A    between atoms: C18_21  and  O2_22 
ROOT
HETATM    1  C6  UNL     1      23.545  -0.706  53.772  1.00  0.00     0.022 C 
HETATM    2  C7  UNL     1      22.282  -0.893  53.462  1.00  0.00     0.094 C 
HETATM    3  C8  UNL     1      21.420  -0.241  52.520  1.00  0.00     0.087 C 
HETATM    4  N1  UNL     1      20.738   0.295  51.749  1.00  0.00    -0.192 NA
ENDROOT
BRANCH   1   5
HETATM    5  C5  UNL     1      24.565   0.209  53.307  1.00  0.00    -0.032 A 
HETATM    6  C4  UNL     1      25.921  -0.082  53.489  1.00  0.00     0.051 A 
HETATM    7  C3  UNL     1      26.869   0.799  53.045  1.00  0.00     0.103 A 
HETATM    8  C18 UNL     1      26.514   1.966  52.420  1.00  0.00     0.106 A 
HETATM    9  C10 UNL     1      25.235   2.370  52.178  1.00  0.00    -0.012 A 
HETATM   10  C9  UNL     1      24.317   1.413  52.665  1.00  0.00     0.022 A 
BRANCH   7  11
HETATM   11  O1  UNL     1      28.225   0.609  53.176  1.00  0.00    -0.349 OA
BRANCH  11  12
HETATM   12  C2  UNL     1      28.825  -0.138  54.191  1.00  0.00     0.171 C 
HETATM   13  C1  UNL     1      29.928  -1.026  53.681  1.00  0.00     0.034 C 
ENDBRANCH  11  12
ENDBRANCH   7  11
BRANCH   8  14
HETATM   14  O2  UNL     1      27.455   2.868  51.967  1.00  0.00    -0.357 OA
HETATM   15  H17 UNL     1      28.452   2.724  51.994  1.00  0.00     0.217 HD
ENDBRANCH   8  14
BRANCH   9  16
HETATM   16  C11 UNL     1      24.563   3.507  51.514  1.00  0.00     0.121 C 
BRANCH  16  17
HETATM   17  S1  UNL     1      24.865   3.634  49.784  1.00  0.00    -0.125 SA
BRANCH  17  18
HETATM   18  C12 UNL     1      25.871   4.902  49.167  1.00  0.00     0.000 A 
HETATM   19  C13 UNL     1      27.148   4.355  48.995  1.00  0.00     0.018 A 
HETATM   20  C14 UNL     1      28.213   5.111  48.484  1.00  0.00     0.001 A 
HETATM   21  C15 UNL     1      28.005   6.442  48.134  1.00  0.00     0.000 A 
HETATM   22  C16 UNL     1      26.759   7.013  48.289  1.00  0.00     0.001 A 
HETATM   23  C17 UNL     1      25.761   6.219  48.794  1.00  0.00     0.018 A 
ENDBRANCH  17  18
ENDBRANCH  16  17
ENDBRANCH   9  16
ENDBRANCH   1   5
TORSDOF 7
ENDMDL
MODEL 4
REMARK VINA RESULT:      -7.6      3.405      7.053
REMARK  7 active torsions:
REMARK  status: ('A' for Active; 'I' for Inactive)
REMARK    1  A    between atoms: C2_2  and  O1_3 
REMARK    2  A    between atoms: O1_3  and  C3_4 
REMARK    3  A    between atoms: C5_6  and  C6_7 
REMARK    4  A    between atoms: C10_12  and  C11_13 
REMARK    5  A    between atoms: C11_13  and  S1_14 
REMARK    6  A    between atoms: S1_14  and  C12_15 
REMARK    7  A    between atoms: C18_21  and  O2_22 
ROOT
HETATM    1  C6  UNL     1      21.840  -0.317  52.664  1.00  0.00     0.022 C 
HETATM    2  C7  UNL     1      21.739  -1.132  53.688  1.00  0.00     0.094 C 
HETATM    3  C8  UNL     1      22.555  -1.314  54.853  1.00  0.00     0.087 C 
HETATM    4  N1  UNL     1      23.225  -1.444  55.792  1.00  0.00    -0.192 NA
ENDROOT
BRANCH   1   5
HETATM    5  C5  UNL     1      22.789   0.710  52.292  1.00  0.00    -0.032 A 
HETATM    6  C4  UNL     1      22.665   1.391  51.076  1.00  0.00     0.051 A 
HETATM    7  C3  UNL     1      23.575   2.356  50.743  1.00  0.00     0.103 A 
HETATM    8  C18 UNL     1      24.612   2.672  51.582  1.00  0.00     0.106 A 
HETATM    9  C10 UNL     1      24.849   2.090  52.791  1.00  0.00    -0.012 A 
HETATM   10  C9  UNL     1      23.872   1.107  53.064  1.00  0.00     0.022 A 
BRANCH   7  11
HETATM   11  O1  UNL     1      23.544   3.081  49.574  1.00  0.00    -0.349 OA
BRANCH  11  12
HETATM   12  C2  UNL     1      22.419   3.219  48.759  1.00  0.00     0.171 C 
HETATM   13  C1  UNL     1      22.411   2.242  47.615  1.00  0.00     0.034 C 
ENDBRANCH  11  12
ENDBRANCH   7  11
BRANCH   8  14
HETATM   14  O2  UNL     1      25.542   3.639  51.263  1.00  0.00    -0.357 OA
HETATM   15  H17 UNL     1      26.249   3.548  50.551  1.00  0.00     0.217 HD
ENDBRANCH   8  14
BRANCH   9  16
HETATM   16  C11 UNL     1      25.819   2.240  53.897  1.00  0.00     0.121 C 
BRANCH  16  17
HETATM   17  S1  UNL     1      27.440   1.653  53.539  1.00  0.00    -0.125 SA
BRANCH  17  18
HETATM   18  C12 UNL     1      27.704  -0.028  53.213  1.00  0.00     0.000 A 
HETATM   19  C13 UNL     1      29.022  -0.310  53.593  1.00  0.00     0.018 A 
HETATM   20  C14 UNL     1      29.563  -1.599  53.482  1.00  0.00     0.001 A 
HETATM   21  C15 UNL     1      28.777  -2.634  52.985  1.00  0.00     0.000 A 
HETATM   22  C16 UNL     1      27.474  -2.392  52.603  1.00  0.00     0.001 A 
HETATM   23  C17 UNL     1      27.006  -1.110  52.735  1.00  0.00     0.018 A 
ENDBRANCH  17  18
ENDBRANCH  16  17
ENDBRANCH   9  16
ENDBRANCH   1   5
TORSDOF 7
ENDMDL
MODEL 5
REMARK VINA RESULT:      -7.4      2.447      4.069
REMARK  7 active torsions:
REMARK  status: ('A' for Active; 'I' for Inactive)
REMARK    1  A    between atoms: C2_2  and  O1_3 
REMARK    2  A    between atoms: O1_3  and  C3_4 
REMARK    3  A    between atoms: C5_6  and  C6_7 
REMARK    4  A    between atoms: C10_12  and  C11_13 
REMARK    5  A    between atoms: C11_13  and  S1_14 
REMARK    6  A    between atoms: S1_14  and  C12_15 
REMARK    7  A    between atoms: C18_21  and  O2_22 
ROOT
HETATM    1  C6  UNL     1      23.313  -1.106  53.314  1.00  0.00     0.022 C 
HETATM    2  C7  UNL     1      22.025  -1.174  53.560  1.00  0.00     0.094 C 
HETATM    3  C8  UNL     1      21.103  -0.224  54.111  1.00  0.00     0.087 C 
HETATM    4  N1  UNL     1      20.370   0.559  54.554  1.00  0.00    -0.192 NA
ENDROOT
BRANCH   1   5
HETATM    5  C5  UNL     1      24.313  -0.075  53.490  1.00  0.00    -0.032 A 
HETATM    6  C4  UNL     1      25.497  -0.340  54.186  1.00  0.00     0.051 A 
HETATM    7  C3  UNL     1      26.428   0.651  54.343  1.00  0.00     0.103 A 
HETATM    8  C18 UNL     1      26.222   1.904  53.829  1.00  0.00     0.106 A 
HETATM    9  C10 UNL     1      25.118   2.295  53.131  1.00  0.00    -0.012 A 
HETATM   10  C9  UNL     1      24.206   1.224  53.012  1.00  0.00     0.022 A 
BRANCH   7  11
HETATM   11  O1  UNL     1      27.621   0.495  55.010  1.00  0.00    -0.349 OA
BRANCH  11  12
HETATM   12  C2  UNL     1      28.666  -0.323  54.579  1.00  0.00     0.171 C 
HETATM   13  C1  UNL     1      29.593   0.378  53.623  1.00  0.00     0.034 C 
ENDBRANCH  11  12
ENDBRANCH   7  11
BRANCH   8  14
HETATM   14  O2  UNL     1      27.146   2.917  53.979  1.00  0.00    -0.357 OA
HETATM   15  H17 UNL     1      27.292   3.668  53.324  1.00  0.00     0.217 HD
ENDBRANCH   8  14
BRANCH   9  16
HETATM   16  C11 UNL     1      24.646   3.515  52.442  1.00  0.00     0.121 C 
BRANCH  16  17
HETATM   17  S1  UNL     1      22.940   3.500  52.004  1.00  0.00    -0.125 SA
BRANCH  17  18
HETATM   18  C12 UNL     1      22.404   2.599  50.624  1.00  0.00     0.000 A 
HETATM   19  C13 UNL     1      23.012   3.179  49.505  1.00  0.00     0.018 A 
HETATM   20  C14 UNL     1      22.810   2.675  48.211  1.00  0.00     0.001 A 
HETATM   21  C15 UNL     1      21.985   1.570  48.025  1.00  0.00     0.000 A 
HETATM   22  C16 UNL     1      21.371   0.974  49.106  1.00  0.00     0.001 A 
HETATM   23  C17 UNL     1      21.610   1.515  50.344  1.00  0.00     0.018 A 
ENDBRANCH  17  18
ENDBRANCH  16  17
ENDBRANCH   9  16
ENDBRANCH   1   5
TORSDOF 7
ENDMDL
MODEL 6
REMARK VINA RESULT:      -7.3      2.965      4.982
REMARK  7 active torsions:
REMARK  status: ('A' for Active; 'I' for Inactive)
REMARK    1  A    between atoms: C2_2  and  O1_3 
REMARK    2  A    between atoms: O1_3  and  C3_4 
REMARK    3  A    between atoms: C5_6  and  C6_7 
REMARK    4  A    between atoms: C10_12  and  C11_13 
REMARK    5  A    between atoms: C11_13  and  S1_14 
REMARK    6  A    between atoms: S1_14  and  C12_15 
REMARK    7  A    between atoms: C18_21  and  O2_22 
ROOT
HETATM    1  C6  UNL     1      23.503  -0.015  53.065  1.00  0.00     0.022 C 
HETATM    2  C7  UNL     1      22.238   0.315  52.943  1.00  0.00     0.094 C 
HETATM    3  C8  UNL     1      21.599   1.555  52.611  1.00  0.00     0.087 C 
HETATM    4  N1  UNL     1      21.099   2.567  52.336  1.00  0.00    -0.192 NA
ENDROOT
BRANCH   1   5
HETATM    5  C5  UNL     1      24.746   0.712  52.922  1.00  0.00    -0.032 A 
HETATM    6  C4  UNL     1      25.775   0.556  53.856  1.00  0.00     0.051 A 
HETATM    7  C3  UNL     1      26.941   1.255  53.704  1.00  0.00     0.103 A 
HETATM    8  C18 UNL     1      27.121   2.109  52.647  1.00  0.00     0.106 A 
HETATM    9  C10 UNL     1      26.205   2.352  51.668  1.00  0.00    -0.012 A 
HETATM   10  C9  UNL     1      25.032   1.598  51.894  1.00  0.00     0.022 A 
BRANCH   7  11
HETATM   11  O1  UNL     1      28.012   1.175  54.564  1.00  0.00    -0.349 OA
BRANCH  11  12
HETATM   12  C2  UNL     1      28.726   0.006  54.830  1.00  0.00     0.171 C 
HETATM   13  C1  UNL     1      29.642  -0.382  53.701  1.00  0.00     0.034 C 
ENDBRANCH  11  12
ENDBRANCH   7  11
BRANCH   8  14
HETATM   14  O2  UNL     1      28.288   2.825  52.477  1.00  0.00    -0.357 OA
HETATM   15  H17 UNL     1      28.365   3.692  51.969  1.00  0.00     0.217 HD
ENDBRANCH   8  14
BRANCH   9  16
HETATM   16  C11 UNL     1      26.128   3.153  50.428  1.00  0.00     0.121 C 
BRANCH  16  17
HETATM   17  S1  UNL     1      24.744   4.238  50.337  1.00  0.00    -0.125 SA
BRANCH  17  18
HETATM   18  C12 UNL     1      23.659   4.153  48.988  1.00  0.00     0.000 A 
HETATM   19  C13 UNL     1      23.315   2.805  48.833  1.00  0.00     0.018 A 
HETATM   20  C14 UNL     1      22.424   2.380  47.837  1.00  0.00     0.001 A 
HETATM   21  C15 UNL     1      21.861   3.315  46.975  1.00  0.00     0.000 A 
HETATM   22  C16 UNL     1      22.176   4.652  47.100  1.00  0.00     0.001 A 
HETATM   23  C17 UNL     1      23.054   5.002  48.094  1.00  0.00     0.018 A 
ENDBRANCH  17  18
ENDBRANCH  16  17
ENDBRANCH   9  16
ENDBRANCH   1   5
TORSDOF 7
ENDMDL
MODEL 7
REMARK VINA RESULT:      -7.1      3.387      6.793
REMARK  7 active torsions:
REMARK  status: ('A' for Active; 'I' for Inactive)
REMARK    1  A    between atoms: C2_2  and  O1_3 
REMARK    2  A    between atoms: O1_3  and  C3_4 
REMARK    3  A    between atoms: C5_6  and  C6_7 
REMARK    4  A    between atoms: C10_12  and  C11_13 
REMARK    5  A    between atoms: C11_13  and  S1_14 
REMARK    6  A    between atoms: S1_14  and  C12_15 
REMARK    7  A    between atoms: C18_21  and  O2_22 
ROOT
HETATM    1  C6  UNL     1      27.261   0.574  54.218  1.00  0.00     0.022 C 
HETATM    2  C7  UNL     1      28.127  -0.390  54.004  1.00  0.00     0.094 C 
HETATM    3  C8  UNL     1      28.032  -1.619  53.272  1.00  0.00     0.087 C 
HETATM    4  N1  UNL     1      27.939  -2.608  52.670  1.00  0.00    -0.192 NA
ENDROOT
BRANCH   1   5
HETATM    5  C5  UNL     1      25.888   0.793  53.816  1.00  0.00    -0.032 A 
HETATM    6  C4  UNL     1      24.969  -0.261  53.811  1.00  0.00     0.051 A 
HETATM    7  C3  UNL     1      23.676  -0.032  53.424  1.00  0.00     0.103 A 
HETATM    8  C18 UNL     1      23.263   1.217  53.041  1.00  0.00     0.106 A 
HETATM    9  C10 UNL     1      24.051   2.328  53.000  1.00  0.00    -0.012 A 
HETATM   10  C9  UNL     1      25.365   2.013  53.410  1.00  0.00     0.022 A 
BRANCH   7  11
HETATM   11  O1  UNL     1      22.697  -0.997  53.383  1.00  0.00    -0.349 OA
BRANCH  11  12
HETATM   12  C2  UNL     1      21.967  -1.432  54.491  1.00  0.00     0.171 C 
HETATM   13  C1  UNL     1      20.495  -1.551  54.203  1.00  0.00     0.034 C 
ENDBRANCH  11  12
ENDBRANCH   7  11
BRANCH   8  14
HETATM   14  O2  UNL     1      21.965   1.467  52.645  1.00  0.00    -0.357 OA
HETATM   15  H17 UNL     1      21.682   2.219  52.036  1.00  0.00     0.217 HD
ENDBRANCH   8  14
BRANCH   9  16
HETATM   16  C11 UNL     1      23.889   3.763  52.685  1.00  0.00     0.121 C 
BRANCH  16  17
HETATM   17  S1  UNL     1      23.677   4.121  50.974  1.00  0.00    -0.125 SA
BRANCH  17  18
HETATM   18  C12 UNL     1      24.985   4.792  50.057  1.00  0.00     0.000 A 
HETATM   19  C13 UNL     1      25.939   3.777  49.915  1.00  0.00     0.018 A 
HETATM   20  C14 UNL     1      27.128   3.976  49.199  1.00  0.00     0.001 A 
HETATM   21  C15 UNL     1      27.376   5.211  48.608  1.00  0.00     0.000 A 
HETATM   22  C16 UNL     1      26.457   6.233  48.726  1.00  0.00     0.001 A 
HETATM   23  C17 UNL     1      25.315   5.973  49.440  1.00  0.00     0.018 A 
ENDBRANCH  17  18
ENDBRANCH  16  17
ENDBRANCH   9  16
ENDBRANCH   1   5
TORSDOF 7
ENDMDL
MODEL 8
REMARK VINA RESULT:      -7.1      2.540      3.969
REMARK  7 active torsions:
REMARK  status: ('A' for Active; 'I' for Inactive)
REMARK    1  A    between atoms: C2_2  and  O1_3 
REMARK    2  A    between atoms: O1_3  and  C3_4 
REMARK    3  A    between atoms: C5_6  and  C6_7 
REMARK    4  A    between atoms: C10_12  and  C11_13 
REMARK    5  A    between atoms: C11_13  and  S1_14 
REMARK    6  A    between atoms: S1_14  and  C12_15 
REMARK    7  A    between atoms: C18_21  and  O2_22 
ROOT
HETATM    1  C6  UNL     1      27.760  -0.661  53.304  1.00  0.00     0.022 C 
HETATM    2  C7  UNL     1      28.813  -0.239  53.967  1.00  0.00     0.094 C 
HETATM    3  C8  UNL     1      29.158   1.046  54.500  1.00  0.00     0.087 C 
HETATM    4  N1  UNL     1      29.418   2.093  54.930  1.00  0.00    -0.192 NA
ENDROOT
BRANCH   1   5
HETATM    5  C5  UNL     1      26.544  -0.024  52.847  1.00  0.00    -0.032 A 
HETATM    6  C4  UNL     1      26.595   1.132  52.061  1.00  0.00     0.051 A 
HETATM    7  C3  UNL     1      25.433   1.720  51.643  1.00  0.00     0.103 A 
HETATM    8  C18 UNL     1      24.212   1.194  51.979  1.00  0.00     0.106 A 
HETATM    9  C10 UNL     1      24.020   0.076  52.735  1.00  0.00    -0.012 A 
HETATM   10  C9  UNL     1      25.261  -0.471  53.129  1.00  0.00     0.022 A 
BRANCH   7  11
HETATM   11  O1  UNL     1      25.372   2.856  50.871  1.00  0.00    -0.349 OA
BRANCH  11  12
HETATM   12  C2  UNL     1      26.435   3.356  50.116  1.00  0.00     0.171 C 
HETATM   13  C1  UNL     1      26.057   4.579  49.324  1.00  0.00     0.034 C 
ENDBRANCH  11  12
ENDBRANCH   7  11
BRANCH   8  14
HETATM   14  O2  UNL     1      23.029   1.773  51.570  1.00  0.00    -0.357 OA
HETATM   15  H17 UNL     1      22.391   1.372  50.902  1.00  0.00     0.217 HD
ENDBRANCH   8  14
BRANCH   9  16
HETATM   16  C11 UNL     1      22.874  -0.728  53.211  1.00  0.00     0.121 C 
BRANCH  16  17
HETATM   17  S1  UNL     1      21.465   0.211  53.692  1.00  0.00    -0.125 SA
BRANCH  17  18
HETATM   18  C12 UNL     1      19.898  -0.191  53.070  1.00  0.00     0.000 A 
HETATM   19  C13 UNL     1      19.771   0.470  51.843  1.00  0.00     0.018 A 
HETATM   20  C14 UNL     1      18.619   0.343  51.052  1.00  0.00     0.001 A 
HETATM   21  C15 UNL     1      17.571  -0.460  51.489  1.00  0.00     0.000 A 
HETATM   22  C16 UNL     1      17.663  -1.127  52.692  1.00  0.00     0.001 A 
HETATM   23  C17 UNL     1      18.815  -0.960  53.418  1.00  0.00     0.018 A 
ENDBRANCH  17  18
ENDBRANCH  16  17
ENDBRANCH   9  16
ENDBRANCH   1   5
TORSDOF 7
ENDMDL
MODEL 9
REMARK VINA RESULT:      -7.0      3.635      5.496
REMARK  7 active torsions:
REMARK  status: ('A' for Active; 'I' for Inactive)
REMARK    1  A    between atoms: C2_2  and  O1_3 
REMARK    2  A    between atoms: O1_3  and  C3_4 
REMARK    3  A    between atoms: C5_6  and  C6_7 
REMARK    4  A    between atoms: C10_12  and  C11_13 
REMARK    5  A    between atoms: C11_13  and  S1_14 
REMARK    6  A    between atoms: S1_14  and  C12_15 
REMARK    7  A    between atoms: C18_21  and  O2_22 
ROOT
HETATM    1  C6  UNL     1      26.659   1.130  51.628  1.00  0.00     0.022 C 
HETATM    2  C7  UNL     1      27.585   0.945  52.540  1.00  0.00     0.094 C 
HETATM    3  C8  UNL     1      28.201   1.838  53.477  1.00  0.00     0.087 C 
HETATM    4  N1  UNL     1      28.686   2.576  54.232  1.00  0.00    -0.192 NA
ENDROOT
BRANCH   1   5
HETATM    5  C5  UNL     1      25.895   2.281  51.198  1.00  0.00    -0.032 A 
HETATM    6  C4  UNL     1      26.365   3.107  50.171  1.00  0.00     0.051 A 
HETATM    7  C3  UNL     1      25.629   4.192  49.782  1.00  0.00     0.103 A 
HETATM    8  C18 UNL     1      24.431   4.486  50.380  1.00  0.00     0.106 A 
HETATM    9  C10 UNL     1      23.858   3.768  51.386  1.00  0.00    -0.012 A 
HETATM   10  C9  UNL     1      24.675   2.669  51.733  1.00  0.00     0.022 A 
BRANCH   7  11
HETATM   11  O1  UNL     1      26.001   5.066  48.787  1.00  0.00    -0.349 OA
BRANCH  11  12
HETATM   12  C2  UNL     1      26.915   6.109  48.952  1.00  0.00     0.171 C 
HETATM   13  C1  UNL     1      28.224   5.846  48.258  1.00  0.00     0.034 C 
ENDBRANCH  11  12
ENDBRANCH   7  11
BRANCH   8  14
HETATM   14  O2  UNL     1      23.675   5.577  50.004  1.00  0.00    -0.357 OA
HETATM   15  H17 UNL     1      22.954   6.001  50.565  1.00  0.00     0.217 HD
ENDBRANCH   8  14
BRANCH   9  16
HETATM   16  C11 UNL     1      22.607   3.808  52.173  1.00  0.00     0.121 C 
BRANCH  16  17
HETATM   17  S1  UNL     1      21.536   2.433  51.925  1.00  0.00    -0.125 SA
BRANCH  17  18
HETATM   18  C12 UNL     1      21.594   1.079  53.005  1.00  0.00     0.000 A 
HETATM   19  C13 UNL     1      22.796   0.411  52.748  1.00  0.00     0.018 A 
HETATM   20  C14 UNL     1      23.176  -0.731  53.469  1.00  0.00     0.001 A 
HETATM   21  C15 UNL     1      22.342  -1.219  54.470  1.00  0.00     0.000 A 
HETATM   22  C16 UNL     1      21.150  -0.584  54.751  1.00  0.00     0.001 A 
HETATM   23  C17 UNL     1      20.838   0.526  54.009  1.00  0.00     0.018 A 
ENDBRANCH  17  18
ENDBRANCH  16  17
ENDBRANCH   9  16
ENDBRANCH   1   5
TORSDOF 7
ENDMDL
