MODEL 1
REMARK VINA RESULT:      -8.6      0.000      0.000
REMARK  4 active torsions:
REMARK  status: ('A' for Active; 'I' for Inactive)
REMARK    1  A    between atoms: C16_19  and  O3_20 
REMARK    2  A    between atoms: O3_20  and  C17_21 
REMARK    3  A    between atoms: C17_21  and  C18_22 
REMARK    4  A    between atoms: C18_22  and  O4_23 
ROOT
HETATM    1  C1  UNL     1      27.548   4.948  48.925  1.00  0.00     0.018 C 
HETATM    2  C2  UNL     1      26.365   4.993  48.959  1.00  0.00    -0.078 C 
HETATM    3  C3  UNL     1      25.020   5.050  48.973  1.00  0.00     0.018 C 
HETATM    4  C4  UNL     1      23.833   5.181  48.482  1.00  0.00     0.020 C 
HETATM    5  C5  UNL     1      22.522   5.180  49.036  1.00  0.00    -0.001 C 
HETATM    6  C6  UNL     1      21.763   5.110  50.086  1.00  0.00    -0.001 C 
HETATM    7  C7  UNL     1      20.652   5.061  51.045  1.00  0.00     0.195 C 
HETATM    8  O1  UNL     1      20.600   3.919  51.806  1.00  0.00    -0.385 OA
HETATM    9  C8  UNL     1      20.623   2.730  51.142  1.00  0.00     0.194 C 
HETATM   10  C9  UNL     1      20.486   1.583  52.114  1.00  0.00     0.196 C 
HETATM   11  O2  UNL     1      21.551   1.633  53.060  1.00  0.00    -0.361 OA
HETATM   12  C10 UNL     1      22.753   1.489  52.413  1.00  0.00     0.261 C 
HETATM   13  C11 UNL     1      23.851   2.465  52.767  1.00  0.00     0.178 C 
HETATM   14  N1  UNL     1      24.963   2.229  51.816  1.00  0.00    -0.382 N 
HETATM   15  C12 UNL     1      25.562   3.269  50.983  1.00  0.00     0.087 C 
HETATM   16  C13 UNL     1      24.994   3.976  50.065  1.00  0.00     0.037 C 
HETATM   17  C14 UNL     1      25.465   0.933  51.591  1.00  0.00     0.152 C 
HETATM   18  C15 UNL     1      26.050   0.076  52.573  1.00  0.00     0.025 C 
HETATM   19  C16 UNL     1      26.676  -0.739  53.455  1.00  0.00     0.049 C 
HETATM   20  C20 UNL     1      25.414  -0.676  54.250  1.00  0.00     0.110 C 
HETATM   21  C21 UNL     1      24.404   0.150  53.554  1.00  0.00     0.093 C 
HETATM   22  N2  UNL     1      23.325   0.159  52.832  1.00  0.00    -0.272 NA
ENDROOT
BRANCH  19  23
HETATM   23  O3  UNL     1      27.962  -1.332  53.490  1.00  0.00    -0.353 OA
BRANCH  23  24
HETATM   24  C17 UNL     1      29.065  -0.454  53.730  1.00  0.00     0.201 C 
BRANCH  24  25
HETATM   25  C18 UNL     1      28.741   0.489  54.911  1.00  0.00     0.193 C 
BRANCH  25  26
HETATM   26  O4  UNL     1      29.283   1.744  54.633  1.00  0.00    -0.394 OA
HETATM   27  C19 UNL     1      28.630   2.416  53.627  1.00  0.00     0.201 C 
ENDBRANCH  25  26
ENDBRANCH  24  25
ENDBRANCH  23  24
ENDBRANCH  19  23
TORSDOF 4
ENDMDL
MODEL 2
REMARK VINA RESULT:      -8.0      2.622      5.929
REMARK  4 active torsions:
REMARK  status: ('A' for Active; 'I' for Inactive)
REMARK    1  A    between atoms: C16_19  and  O3_20 
REMARK    2  A    between atoms: O3_20  and  C17_21 
REMARK    3  A    between atoms: C17_21  and  C18_22 
REMARK    4  A    between atoms: C18_22  and  O4_23 
ROOT
HETATM    1  C1  UNL     1      27.267  -0.484  52.894  1.00  0.00     0.018 C 
HETATM    2  C2  UNL     1      26.115  -0.473  53.171  1.00  0.00    -0.078 C 
HETATM    3  C3  UNL     1      24.812  -0.469  53.508  1.00  0.00     0.018 C 
HETATM    4  C4  UNL     1      23.787  -0.581  54.287  1.00  0.00     0.020 C 
HETATM    5  C5  UNL     1      22.380  -0.483  54.098  1.00  0.00    -0.001 C 
HETATM    6  C6  UNL     1      21.379  -0.307  53.290  1.00  0.00    -0.001 C 
HETATM    7  C7  UNL     1      20.063  -0.143  52.662  1.00  0.00     0.195 C 
HETATM    8  O1  UNL     1      19.884   1.050  52.005  1.00  0.00    -0.385 OA
HETATM    9  C8  UNL     1      20.151   2.188  52.703  1.00  0.00     0.194 C 
HETATM   10  C9  UNL     1      19.837   3.404  51.867  1.00  0.00     0.196 C 
HETATM   11  O2  UNL     1      20.614   3.372  50.673  1.00  0.00    -0.361 OA
HETATM   12  C10 UNL     1      21.950   3.418  50.986  1.00  0.00     0.261 C 
HETATM   13  C11 UNL     1      22.856   2.420  50.303  1.00  0.00     0.178 C 
HETATM   14  N1  UNL     1      24.190   2.540  50.939  1.00  0.00    -0.382 N 
HETATM   15  C12 UNL     1      24.920   1.420  51.527  1.00  0.00     0.087 C 
HETATM   16  C13 UNL     1      24.568   0.677  52.522  1.00  0.00     0.037 C 
HETATM   17  C14 UNL     1      24.811   3.794  51.094  1.00  0.00     0.152 C 
HETATM   18  C15 UNL     1      25.171   4.690  50.042  1.00  0.00     0.025 C 
HETATM   19  C16 UNL     1      25.595   5.535  49.072  1.00  0.00     0.049 C 
HETATM   20  C20 UNL     1      24.168   5.583  48.635  1.00  0.00     0.110 C 
HETATM   21  C21 UNL     1      23.326   4.756  49.526  1.00  0.00     0.093 C 
HETATM   22  N2  UNL     1      22.473   4.747  50.505  1.00  0.00    -0.272 NA
ENDROOT
BRANCH  19  23
HETATM   23  O3  UNL     1      26.862   6.071  48.731  1.00  0.00    -0.353 OA
BRANCH  23  24
HETATM   24  C17 UNL     1      27.922   5.131  48.532  1.00  0.00     0.201 C 
BRANCH  24  25
HETATM   25  C18 UNL     1      29.210   5.873  48.107  1.00  0.00     0.193 C 
BRANCH  25  26
HETATM   26  O4  UNL     1      30.308   5.122  48.527  1.00  0.00    -0.394 OA
HETATM   27  C19 UNL     1      31.365   5.155  47.650  1.00  0.00     0.201 C 
ENDBRANCH  25  26
ENDBRANCH  24  25
ENDBRANCH  23  24
ENDBRANCH  19  23
TORSDOF 4
ENDMDL
MODEL 3
REMARK VINA RESULT:      -7.6      2.915      6.313
REMARK  4 active torsions:
REMARK  status: ('A' for Active; 'I' for Inactive)
REMARK    1  A    between atoms: C16_19  and  O3_20 
REMARK    2  A    between atoms: O3_20  and  C17_21 
REMARK    3  A    between atoms: C17_21  and  C18_22 
REMARK    4  A    between atoms: C18_22  and  O4_23 
ROOT
HETATM    1  C1  UNL     1      27.135  -0.427  52.900  1.00  0.00     0.018 C 
HETATM    2  C2  UNL     1      25.970  -0.414  53.119  1.00  0.00    -0.078 C 
HETATM    3  C3  UNL     1      24.652  -0.408  53.390  1.00  0.00     0.018 C 
HETATM    4  C4  UNL     1      23.588  -0.537  54.111  1.00  0.00     0.020 C 
HETATM    5  C5  UNL     1      22.194  -0.416  53.856  1.00  0.00    -0.001 C 
HETATM    6  C6  UNL     1      21.237  -0.198  53.006  1.00  0.00    -0.001 C 
HETATM    7  C7  UNL     1      19.955   0.005  52.319  1.00  0.00     0.195 C 
HETATM    8  O1  UNL     1      19.822   1.224  51.701  1.00  0.00    -0.385 OA
HETATM    9  C8  UNL     1      20.064   2.332  52.454  1.00  0.00     0.194 C 
HETATM   10  C9  UNL     1      19.804   3.581  51.649  1.00  0.00     0.196 C 
HETATM   11  O2  UNL     1      20.641   3.586  50.495  1.00  0.00    -0.361 OA
HETATM   12  C10 UNL     1      21.959   3.604  50.877  1.00  0.00     0.261 C 
HETATM   13  C11 UNL     1      22.890   2.622  50.203  1.00  0.00     0.178 C 
HETATM   14  N1  UNL     1      24.190   2.703  50.910  1.00  0.00    -0.382 N 
HETATM   15  C12 UNL     1      24.879   1.553  51.490  1.00  0.00     0.087 C 
HETATM   16  C13 UNL     1      24.470   0.777  52.437  1.00  0.00     0.037 C 
HETATM   17  C14 UNL     1      24.815   3.943  51.143  1.00  0.00     0.152 C 
HETATM   18  C15 UNL     1      25.237   4.873  50.145  1.00  0.00     0.025 C 
HETATM   19  C16 UNL     1      25.717   5.749  49.230  1.00  0.00     0.049 C 
HETATM   20  C20 UNL     1      24.315   5.830  48.725  1.00  0.00     0.110 C 
HETATM   21  C21 UNL     1      23.420   4.981  49.540  1.00  0.00     0.093 C 
HETATM   22  N2  UNL     1      22.519   4.944  50.474  1.00  0.00    -0.272 NA
ENDROOT
BRANCH  19  23
HETATM   23  O3  UNL     1      27.005   6.283  48.975  1.00  0.00    -0.353 OA
BRANCH  23  24
HETATM   24  C17 UNL     1      27.101   7.708  48.889  1.00  0.00     0.201 C 
BRANCH  24  25
HETATM   25  C18 UNL     1      26.502   8.353  50.160  1.00  0.00     0.193 C 
BRANCH  25  26
HETATM   26  O4  UNL     1      26.377   9.725  49.938  1.00  0.00    -0.394 OA
HETATM   27  C19 UNL     1      26.530  10.086  48.621  1.00  0.00     0.201 C 
ENDBRANCH  25  26
ENDBRANCH  24  25
ENDBRANCH  23  24
ENDBRANCH  19  23
TORSDOF 4
ENDMDL
MODEL 4
REMARK VINA RESULT:      -7.5      2.133      4.908
REMARK  4 active torsions:
REMARK  status: ('A' for Active; 'I' for Inactive)
REMARK    1  A    between atoms: C16_19  and  O3_20 
REMARK    2  A    between atoms: O3_20  and  C17_21 
REMARK    3  A    between atoms: C17_21  and  C18_22 
REMARK    4  A    between atoms: C18_22  and  O4_23 
ROOT
HETATM    1  C1  UNL     1      18.546  -1.490  53.077  1.00  0.00     0.018 C 
HETATM    2  C2  UNL     1      18.393  -0.499  52.447  1.00  0.00    -0.078 C 
HETATM    3  C3  UNL     1      18.198   0.631  51.742  1.00  0.00     0.018 C 
HETATM    4  C4  UNL     1      17.612   1.731  51.401  1.00  0.00     0.020 C 
HETATM    5  C5  UNL     1      17.844   2.711  50.396  1.00  0.00    -0.001 C 
HETATM    6  C6  UNL     1      18.546   3.112  49.380  1.00  0.00    -0.001 C 
HETATM    7  C7  UNL     1      19.124   3.831  48.238  1.00  0.00     0.195 C 
HETATM    8  O1  UNL     1      20.449   4.162  48.379  1.00  0.00    -0.385 OA
HETATM    9  C8  UNL     1      20.805   4.833  49.509  1.00  0.00     0.194 C 
HETATM   10  C9  UNL     1      22.272   5.181  49.474  1.00  0.00     0.196 C 
HETATM   11  O2  UNL     1      23.041   3.987  49.355  1.00  0.00    -0.361 OA
HETATM   12  C10 UNL     1      22.830   3.188  50.451  1.00  0.00     0.261 C 
HETATM   13  C11 UNL     1      22.540   1.726  50.196  1.00  0.00     0.178 C 
HETATM   14  N1  UNL     1      22.165   1.126  51.499  1.00  0.00    -0.382 N 
HETATM   15  C12 UNL     1      20.927   0.388  51.734  1.00  0.00     0.087 C 
HETATM   16  C13 UNL     1      19.714   0.821  51.641  1.00  0.00     0.037 C 
HETATM   17  C14 UNL     1      22.965   1.312  52.642  1.00  0.00     0.152 C 
HETATM   18  C15 UNL     1      24.329   0.912  52.788  1.00  0.00     0.025 C 
HETATM   19  C16 UNL     1      25.597   0.485  52.994  1.00  0.00     0.049 C 
HETATM   20  C20 UNL     1      25.963   1.330  51.820  1.00  0.00     0.110 C 
HETATM   21  C21 UNL     1      24.771   2.033  51.297  1.00  0.00     0.093 C 
HETATM   22  N2  UNL     1      24.120   3.153  51.230  1.00  0.00    -0.272 NA
ENDROOT
BRANCH  19  23
HETATM   23  O3  UNL     1      26.192  -0.379  53.949  1.00  0.00    -0.353 OA
BRANCH  23  24
HETATM   24  C17 UNL     1      26.960   0.243  54.983  1.00  0.00     0.201 C 
BRANCH  24  25
HETATM   25  C18 UNL     1      28.461   0.214  54.614  1.00  0.00     0.193 C 
BRANCH  25  26
HETATM   26  O4  UNL     1      29.002   1.472  54.878  1.00  0.00    -0.394 OA
HETATM   27  C19 UNL     1      28.880   2.355  53.833  1.00  0.00     0.201 C 
ENDBRANCH  25  26
ENDBRANCH  24  25
ENDBRANCH  23  24
ENDBRANCH  19  23
TORSDOF 4
ENDMDL
MODEL 5
REMARK VINA RESULT:      -7.4      2.179      3.257
REMARK  4 active torsions:
REMARK  status: ('A' for Active; 'I' for Inactive)
REMARK    1  A    between atoms: C16_19  and  O3_20 
REMARK    2  A    between atoms: O3_20  and  C17_21 
REMARK    3  A    between atoms: C17_21  and  C18_22 
REMARK    4  A    between atoms: C18_22  and  O4_23 
ROOT
HETATM    1  C1  UNL     1      28.629   6.129  48.134  1.00  0.00     0.018 C 
HETATM    2  C2  UNL     1      27.563   6.636  48.025  1.00  0.00    -0.078 C 
HETATM    3  C3  UNL     1      26.359   7.219  47.879  1.00  0.00     0.018 C 
HETATM    4  C4  UNL     1      25.399   7.820  47.257  1.00  0.00     0.020 C 
HETATM    5  C5  UNL     1      24.125   8.321  47.644  1.00  0.00    -0.001 C 
HETATM    6  C6  UNL     1      23.254   8.529  48.584  1.00  0.00    -0.001 C 
HETATM    7  C7  UNL     1      22.085   8.897  49.392  1.00  0.00     0.195 C 
HETATM    8  O1  UNL     1      21.485   7.849  50.046  1.00  0.00    -0.385 OA
HETATM    9  C8  UNL     1      21.142   6.765  49.297  1.00  0.00     0.194 C 
HETATM   10  C9  UNL     1      20.434   5.740  50.148  1.00  0.00     0.196 C 
HETATM   11  O2  UNL     1      21.286   5.342  51.219  1.00  0.00    -0.361 OA
HETATM   12  C10 UNL     1      22.418   4.752  50.716  1.00  0.00     0.261 C 
HETATM   13  C11 UNL     1      23.745   5.207  51.280  1.00  0.00     0.178 C 
HETATM   14  N1  UNL     1      24.804   4.576  50.456  1.00  0.00    -0.382 N 
HETATM   15  C12 UNL     1      25.872   5.316  49.790  1.00  0.00     0.087 C 
HETATM   16  C13 UNL     1      25.761   6.214  48.869  1.00  0.00     0.037 C 
HETATM   17  C14 UNL     1      24.792   3.193  50.191  1.00  0.00     0.152 C 
HETATM   18  C15 UNL     1      24.851   2.150  51.165  1.00  0.00     0.025 C 
HETATM   19  C16 UNL     1      24.979   1.132  52.049  1.00  0.00     0.049 C 
HETATM   20  C20 UNL     1      23.738   1.666  52.685  1.00  0.00     0.110 C 
HETATM   21  C21 UNL     1      23.239   2.842  51.939  1.00  0.00     0.093 C 
HETATM   22  N2  UNL     1      22.365   3.293  51.093  1.00  0.00    -0.272 NA
ENDROOT
BRANCH  19  23
HETATM   23  O3  UNL     1      25.916   0.079  52.194  1.00  0.00    -0.353 OA
BRANCH  23  24
HETATM   24  C17 UNL     1      26.415  -0.156  53.514  1.00  0.00     0.201 C 
BRANCH  24  25
HETATM   25  C18 UNL     1      27.800  -0.839  53.439  1.00  0.00     0.193 C 
BRANCH  25  26
HETATM   26  O4  UNL     1      28.515  -0.507  54.590  1.00  0.00    -0.394 OA
HETATM   27  C19 UNL     1      28.931   0.802  54.623  1.00  0.00     0.201 C 
ENDBRANCH  25  26
ENDBRANCH  24  25
ENDBRANCH  23  24
ENDBRANCH  19  23
TORSDOF 4
ENDMDL
MODEL 6
REMARK VINA RESULT:      -7.4      2.496      7.023
REMARK  4 active torsions:
REMARK  status: ('A' for Active; 'I' for Inactive)
REMARK    1  A    between atoms: C16_19  and  O3_20 
REMARK    2  A    between atoms: O3_20  and  C17_21 
REMARK    3  A    between atoms: C17_21  and  C18_22 
REMARK    4  A    between atoms: C18_22  and  O4_23 
ROOT
HETATM    1  C1  UNL     1      19.152   2.375  51.987  1.00  0.00     0.018 C 
HETATM    2  C2  UNL     1      19.908   1.568  52.412  1.00  0.00    -0.078 C 
HETATM    3  C3  UNL     1      20.751   0.635  52.893  1.00  0.00     0.018 C 
HETATM    4  C4  UNL     1      21.154  -0.553  53.202  1.00  0.00     0.020 C 
HETATM    5  C5  UNL     1      22.325  -1.076  53.819  1.00  0.00    -0.001 C 
HETATM    6  C6  UNL     1      23.473  -0.855  54.383  1.00  0.00    -0.001 C 
HETATM    7  C7  UNL     1      24.781  -0.948  55.043  1.00  0.00     0.195 C 
HETATM    8  O1  UNL     1      25.820  -0.389  54.340  1.00  0.00    -0.385 OA
HETATM    9  C8  UNL     1      25.982  -0.791  53.049  1.00  0.00     0.194 C 
HETATM   10  C9  UNL     1      27.203  -0.142  52.446  1.00  0.00     0.196 C 
HETATM   11  O2  UNL     1      27.063   1.276  52.500  1.00  0.00    -0.361 OA
HETATM   12  C10 UNL     1      25.976   1.663  51.757  1.00  0.00     0.261 C 
HETATM   13  C11 UNL     1      25.014   2.639  52.394  1.00  0.00     0.178 C 
HETATM   14  N1  UNL     1      23.847   2.751  51.487  1.00  0.00    -0.382 N 
HETATM   15  C12 UNL     1      22.464   2.529  51.901  1.00  0.00     0.087 C 
HETATM   16  C13 UNL     1      21.938   1.444  52.363  1.00  0.00     0.037 C 
HETATM   17  C14 UNL     1      24.016   3.002  50.112  1.00  0.00     0.152 C 
HETATM   18  C15 UNL     1      24.642   4.151  49.538  1.00  0.00     0.025 C 
HETATM   19  C16 UNL     1      25.162   5.255  48.952  1.00  0.00     0.049 C 
HETATM   20  C20 UNL     1      26.415   4.935  49.697  1.00  0.00     0.110 C 
HETATM   21  C21 UNL     1      26.247   3.694  50.484  1.00  0.00     0.093 C 
HETATM   22  N2  UNL     1      26.502   2.424  50.566  1.00  0.00    -0.272 NA
ENDROOT
BRANCH  19  23
HETATM   23  O3  UNL     1      24.645   6.209  48.039  1.00  0.00    -0.353 OA
BRANCH  23  24
HETATM   24  C17 UNL     1      25.107   7.554  48.190  1.00  0.00     0.201 C 
BRANCH  24  25
HETATM   25  C18 UNL     1      24.431   8.208  49.417  1.00  0.00     0.193 C 
BRANCH  25  26
HETATM   26  O4  UNL     1      25.419   8.825  50.184  1.00  0.00    -0.394 OA
HETATM   27  C19 UNL     1      26.683   8.697  49.662  1.00  0.00     0.201 C 
ENDBRANCH  25  26
ENDBRANCH  24  25
ENDBRANCH  23  24
ENDBRANCH  19  23
TORSDOF 4
ENDMDL
MODEL 7
REMARK VINA RESULT:      -7.4      2.364      7.171
REMARK  4 active torsions:
REMARK  status: ('A' for Active; 'I' for Inactive)
REMARK    1  A    between atoms: C16_19  and  O3_20 
REMARK    2  A    between atoms: O3_20  and  C17_21 
REMARK    3  A    between atoms: C17_21  and  C18_22 
REMARK    4  A    between atoms: C18_22  and  O4_23 
ROOT
HETATM    1  C1  UNL     1      24.373   4.265  48.826  1.00  0.00     0.018 C 
HETATM    2  C2  UNL     1      25.001   3.658  49.626  1.00  0.00    -0.078 C 
HETATM    3  C3  UNL     1      25.730   2.987  50.536  1.00  0.00     0.018 C 
HETATM    4  C4  UNL     1      26.667   2.807  51.408  1.00  0.00     0.020 C 
HETATM    5  C5  UNL     1      27.086   1.704  52.203  1.00  0.00    -0.001 C 
HETATM    6  C6  UNL     1      26.940   0.458  52.535  1.00  0.00    -0.001 C 
HETATM    7  C7  UNL     1      27.033  -0.884  53.124  1.00  0.00     0.195 C 
HETATM    8  O1  UNL     1      25.886  -1.324  53.736  1.00  0.00    -0.385 OA
HETATM    9  C8  UNL     1      25.327  -0.504  54.669  1.00  0.00     0.194 C 
HETATM   10  C9  UNL     1      24.122  -1.163  55.294  1.00  0.00     0.196 C 
HETATM   11  O2  UNL     1      23.168  -1.467  54.279  1.00  0.00    -0.361 OA
HETATM   12  C10 UNL     1      22.743  -0.308  53.679  1.00  0.00     0.261 C 
HETATM   13  C11 UNL     1      22.713  -0.281  52.168  1.00  0.00     0.178 C 
HETATM   14  N1  UNL     1      22.411   1.114  51.766  1.00  0.00    -0.382 N 
HETATM   15  C12 UNL     1      23.236   1.899  50.852  1.00  0.00     0.087 C 
HETATM   16  C13 UNL     1      24.465   2.263  51.005  1.00  0.00     0.037 C 
HETATM   17  C14 UNL     1      21.324   1.812  52.326  1.00  0.00     0.152 C 
HETATM   18  C15 UNL     1      19.949   1.432  52.245  1.00  0.00     0.025 C 
HETATM   19  C16 UNL     1      18.630   1.148  52.130  1.00  0.00     0.049 C 
HETATM   20  C20 UNL     1      18.958  -0.150  52.791  1.00  0.00     0.110 C 
HETATM   21  C21 UNL     1      20.398  -0.212  53.125  1.00  0.00     0.093 C 
HETATM   22  N2  UNL     1      21.296  -0.117  54.057  1.00  0.00    -0.272 NA
ENDROOT
BRANCH  19  23
HETATM   23  O3  UNL     1      17.522   1.859  51.605  1.00  0.00    -0.353 OA
BRANCH  23  24
HETATM   24  C17 UNL     1      17.819   3.023  50.828  1.00  0.00     0.201 C 
BRANCH  24  25
HETATM   25  C18 UNL     1      16.837   4.161  51.189  1.00  0.00     0.193 C 
BRANCH  25  26
HETATM   26  O4  UNL     1      16.612   4.125  52.566  1.00  0.00    -0.394 OA
HETATM   27  C19 UNL     1      15.281   4.114  52.906  1.00  0.00     0.201 C 
ENDBRANCH  25  26
ENDBRANCH  24  25
ENDBRANCH  23  24
ENDBRANCH  19  23
TORSDOF 4
ENDMDL
MODEL 8
REMARK VINA RESULT:      -7.4      2.206      7.282
REMARK  4 active torsions:
REMARK  status: ('A' for Active; 'I' for Inactive)
REMARK    1  A    between atoms: C16_19  and  O3_20 
REMARK    2  A    between atoms: O3_20  and  C17_21 
REMARK    3  A    between atoms: C17_21  and  C18_22 
REMARK    4  A    between atoms: C18_22  and  O4_23 
ROOT
HETATM    1  C1  UNL     1      19.118   2.095  52.132  1.00  0.00     0.018 C 
HETATM    2  C2  UNL     1      19.894   1.317  52.575  1.00  0.00    -0.078 C 
HETATM    3  C3  UNL     1      20.759   0.416  53.077  1.00  0.00     0.018 C 
HETATM    4  C4  UNL     1      21.190  -0.753  53.417  1.00  0.00     0.020 C 
HETATM    5  C5  UNL     1      22.375  -1.233  54.042  1.00  0.00    -0.001 C 
HETATM    6  C6  UNL     1      23.521  -0.972  54.594  1.00  0.00    -0.001 C 
HETATM    7  C7  UNL     1      24.834  -1.016  55.249  1.00  0.00     0.195 C 
HETATM    8  O1  UNL     1      25.857  -0.455  54.525  1.00  0.00    -0.385 OA
HETATM    9  C8  UNL     1      26.022  -0.889  53.245  1.00  0.00     0.194 C 
HETATM   10  C9  UNL     1      27.225  -0.230  52.617  1.00  0.00     0.196 C 
HETATM   11  O2  UNL     1      27.054   1.185  52.633  1.00  0.00    -0.361 OA
HETATM   12  C10 UNL     1      25.955   1.528  51.885  1.00  0.00     0.261 C 
HETATM   13  C11 UNL     1      24.974   2.500  52.501  1.00  0.00     0.178 C 
HETATM   14  N1  UNL     1      23.801   2.560  51.597  1.00  0.00    -0.382 N 
HETATM   15  C12 UNL     1      22.425   2.319  52.024  1.00  0.00     0.087 C 
HETATM   16  C13 UNL     1      21.926   1.236  52.519  1.00  0.00     0.037 C 
HETATM   17  C14 UNL     1      23.958   2.777  50.215  1.00  0.00     0.152 C 
HETATM   18  C15 UNL     1      24.556   3.923  49.606  1.00  0.00     0.025 C 
HETATM   19  C16 UNL     1      25.048   5.022  48.986  1.00  0.00     0.049 C 
HETATM   20  C20 UNL     1      26.311   4.751  49.733  1.00  0.00     0.110 C 
HETATM   21  C21 UNL     1      26.174   3.528  50.555  1.00  0.00     0.093 C 
HETATM   22  N2  UNL     1      26.458   2.267  50.671  1.00  0.00    -0.272 NA
ENDROOT
BRANCH  19  23
HETATM   23  O3  UNL     1      24.506   5.938  48.051  1.00  0.00    -0.353 OA
BRANCH  23  24
HETATM   24  C17 UNL     1      23.123   6.270  48.207  1.00  0.00     0.201 C 
BRANCH  24  25
HETATM   25  C18 UNL     1      22.295   5.619  47.076  1.00  0.00     0.193 C 
BRANCH  25  26
HETATM   26  O4  UNL     1      21.676   4.477  47.586  1.00  0.00    -0.394 OA
HETATM   27  C19 UNL     1      21.934   3.339  46.861  1.00  0.00     0.201 C 
ENDBRANCH  25  26
ENDBRANCH  24  25
ENDBRANCH  23  24
ENDBRANCH  19  23
TORSDOF 4
ENDMDL
MODEL 9
REMARK VINA RESULT:      -7.1      5.952      9.074
REMARK  4 active torsions:
REMARK  status: ('A' for Active; 'I' for Inactive)
REMARK    1  A    between atoms: C16_19  and  O3_20 
REMARK    2  A    between atoms: O3_20  and  C17_21 
REMARK    3  A    between atoms: C17_21  and  C18_22 
REMARK    4  A    between atoms: C18_22  and  O4_23 
ROOT
HETATM    1  C1  UNL     1      34.216   5.856  48.938  1.00  0.00     0.018 C 
HETATM    2  C2  UNL     1      33.882   6.842  48.373  1.00  0.00    -0.078 C 
HETATM    3  C3  UNL     1      33.523   7.961  47.716  1.00  0.00     0.018 C 
HETATM    4  C4  UNL     1      33.590   8.877  46.808  1.00  0.00     0.020 C 
HETATM    5  C5  UNL     1      32.850  10.061  46.534  1.00  0.00    -0.001 C 
HETATM    6  C6  UNL     1      31.898  10.876  46.872  1.00  0.00    -0.001 C 
HETATM    7  C7  UNL     1      30.918  11.965  46.972  1.00  0.00     0.195 C 
HETATM    8  O1  UNL     1      29.606  11.560  46.974  1.00  0.00    -0.385 OA
HETATM    9  C8  UNL     1      29.208  10.741  45.962  1.00  0.00     0.194 C 
HETATM   10  C9  UNL     1      27.732  10.450  46.071  1.00  0.00     0.196 C 
HETATM   11  O2  UNL     1      27.461   9.836  47.329  1.00  0.00    -0.361 OA
HETATM   12  C10 UNL     1      28.128   8.639  47.414  1.00  0.00     0.261 C 
HETATM   13  C11 UNL     1      28.903   8.367  48.683  1.00  0.00     0.178 C 
HETATM   14  N1  UNL     1      29.678   7.123  48.458  1.00  0.00    -0.382 N 
HETATM   15  C12 UNL     1      31.123   7.015  48.638  1.00  0.00     0.087 C 
HETATM   16  C13 UNL     1      32.052   7.648  48.003  1.00  0.00     0.037 C 
HETATM   17  C14 UNL     1      29.058   5.960  47.962  1.00  0.00     0.152 C 
HETATM   18  C15 UNL     1      27.987   5.247  48.583  1.00  0.00     0.025 C 
HETATM   19  C16 UNL     1      27.023   4.501  49.173  1.00  0.00     0.049 C 
HETATM   20  C20 UNL     1      26.185   5.736  49.127  1.00  0.00     0.110 C 
HETATM   21  C21 UNL     1      26.925   6.841  48.480  1.00  0.00     0.093 C 
HETATM   22  N2  UNL     1      27.087   7.549  47.405  1.00  0.00    -0.272 NA
ENDROOT
BRANCH  19  23
HETATM   23  O3  UNL     1      26.957   3.148  49.590  1.00  0.00    -0.353 OA
BRANCH  23  24
HETATM   24  C17 UNL     1      25.880   2.802  50.466  1.00  0.00     0.201 C 
BRANCH  24  25
HETATM   25  C18 UNL     1      26.430   2.069  51.712  1.00  0.00     0.193 C 
BRANCH  25  26
HETATM   26  O4  UNL     1      27.707   2.563  51.983  1.00  0.00    -0.394 OA
HETATM   27  C19 UNL     1      28.185   2.205  53.220  1.00  0.00     0.201 C 
ENDBRANCH  25  26
ENDBRANCH  24  25
ENDBRANCH  23  24
ENDBRANCH  19  23
TORSDOF 4
ENDMDL
