MODEL 1
REMARK VINA RESULT:      -9.2      0.000      0.000
REMARK  9 active torsions:
REMARK  status: ('A' for Active; 'I' for Inactive)
REMARK    1  A    between atoms: C2_2  and  C3_3 
REMARK    2  A    between atoms: C3_3  and  C6_6 
REMARK    3  A    between atoms: C8_8  and  C9_9 
REMARK       I    between atoms: C9_9  and  N1_11 
REMARK    4  A    between atoms: N1_11  and  C10_12 
REMARK    5  A    between atoms: C10_12  and  C11_13 
REMARK    6  A    between atoms: C10_12  and  C23_28 
REMARK    7  A    between atoms: C12_14  and  C13_15 
REMARK    8  A    between atoms: C13_15  and  C14_16 
REMARK    9  A    between atoms: C23_28  and  N3_29 
ROOT
HETATM    1  C10 UNL     1      26.887   6.295  48.745  1.00  0.00     0.135 C 
ENDROOT
BRANCH   1   2
HETATM    2  N1  UNL     1      28.246   5.863  48.650  1.00  0.00    -0.346 N 
HETATM    3  C9  UNL     1      29.370   6.267  47.894  1.00  0.00     0.273 C 
HETATM    4  O1  UNL     1      29.323   7.198  47.081  1.00  0.00    -0.266 OA
HETATM    5  H11 UNL     1      28.262   5.078  49.344  1.00  0.00     0.163 HD
BRANCH   3   6
HETATM    6  C8  UNL     1      30.587   5.533  48.119  1.00  0.00     0.154 A 
HETATM    7  C7  UNL     1      31.191   4.762  47.149  1.00  0.00     0.075 A 
HETATM    8  C6  UNL     1      32.310   4.210  47.687  1.00  0.00     0.093 A 
HETATM    9  O3  UNL     1      32.358   4.641  48.926  1.00  0.00    -0.216 OA
HETATM   10  N4  UNL     1      31.362   5.413  49.198  1.00  0.00    -0.123 NA
BRANCH   8  11
HETATM   11  C3  UNL     1      33.360   3.299  47.145  1.00  0.00     0.021 C 
HETATM   12  C4  UNL     1      34.550   3.361  48.066  1.00  0.00     0.026 C 
HETATM   13  C5  UNL     1      32.816   1.891  47.062  1.00  0.00     0.026 C 
BRANCH  11  14
HETATM   14  C2  UNL     1      33.815   3.795  45.796  1.00  0.00    -0.021 C 
HETATM   15  C1  UNL     1      35.105   3.762  45.508  1.00  0.00     0.008 C 
ENDBRANCH  11  14
ENDBRANCH   8  11
ENDBRANCH   3   6
ENDBRANCH   1   2
BRANCH   1  16
HETATM   16  C11 UNL     1      25.964   5.296  49.300  1.00  0.00    -0.004 C 
HETATM   17  C12 UNL     1      25.931   4.020  49.608  1.00  0.00    -0.024 C 
BRANCH  17  18
HETATM   18  C13 UNL     1      24.734   3.317  50.192  1.00  0.00     0.064 C 
BRANCH  18  19
HETATM   19  C14 UNL     1      25.105   2.284  51.183  1.00  0.00    -0.041 C 
HETATM   20  C15 UNL     1      26.074   1.520  51.680  1.00  0.00     0.092 C 
HETATM   21  N2  UNL     1      25.704   0.626  52.725  1.00  0.00    -0.367 N 
HETATM   22  C16 UNL     1      24.316   0.865  52.859  1.00  0.00     0.039 C 
HETATM   23  H18 UNL     1      26.374  -0.000  53.200  1.00  0.00     0.165 HD
HETATM   24  C17 UNL     1      23.277   0.317  53.429  1.00  0.00     0.008 A 
HETATM   25  C22 UNL     1      24.129   2.188  52.248  1.00  0.00     0.133 C 
HETATM   26  C18 UNL     1      23.019  -0.851  54.262  1.00  0.00     0.039 A 
HETATM   27  C21 UNL     1      21.966   0.922  53.080  1.00  0.00     0.036 A 
HETATM   28  C19 UNL     1      21.794  -1.216  54.594  1.00  0.00     0.142 A 
HETATM   29  O2  UNL     1      20.644  -0.550  54.198  1.00  0.00    -0.333 OA
HETATM   30  C20 UNL     1      20.770   0.560  53.409  1.00  0.00     0.160 A 
HETATM   31  S1  UNL     1      22.384   2.240  51.878  1.00  0.00    -0.111 SA
ENDBRANCH  18  19
ENDBRANCH  17  18
ENDBRANCH   1  16
BRANCH   1  32
HETATM   32  C23 UNL     1      26.728   7.596  49.500  1.00  0.00     0.295 C 
BRANCH  32  33
HETATM   33  N3  UNL     1      26.052   7.420  50.768  1.00  0.00     0.080 N 
HETATM   34  H25 UNL     1      25.894   6.409  50.963  1.00  0.00     0.312 HD
HETATM   35  H26 UNL     1      25.075   7.832  50.743  1.00  0.00     0.312 HD
ENDBRANCH  32  33
ENDBRANCH   1  32
TORSDOF 9
ENDMDL
MODEL 2
REMARK VINA RESULT:      -8.6      1.426      1.763
REMARK  9 active torsions:
REMARK  status: ('A' for Active; 'I' for Inactive)
REMARK    1  A    between atoms: C2_2  and  C3_3 
REMARK    2  A    between atoms: C3_3  and  C6_6 
REMARK    3  A    between atoms: C8_8  and  C9_9 
REMARK       I    between atoms: C9_9  and  N1_11 
REMARK    4  A    between atoms: N1_11  and  C10_12 
REMARK    5  A    between atoms: C10_12  and  C11_13 
REMARK    6  A    between atoms: C10_12  and  C23_28 
REMARK    7  A    between atoms: C12_14  and  C13_15 
REMARK    8  A    between atoms: C13_15  and  C14_16 
REMARK    9  A    between atoms: C23_28  and  N3_29 
ROOT
HETATM    1  C10 UNL     1      26.935   5.562  48.706  1.00  0.00     0.135 C 
ENDROOT
BRANCH   1   2
HETATM    2  N1  UNL     1      28.364   5.553  48.680  1.00  0.00    -0.346 N 
HETATM    3  C9  UNL     1      29.352   6.226  47.926  1.00  0.00     0.273 C 
HETATM    4  O1  UNL     1      29.069   7.046  47.044  1.00  0.00    -0.266 OA
HETATM    5  H11 UNL     1      28.579   4.855  49.431  1.00  0.00     0.163 HD
BRANCH   3   6
HETATM    6  C8  UNL     1      30.720   5.906  48.237  1.00  0.00     0.154 A 
HETATM    7  C7  UNL     1      31.488   5.058  47.470  1.00  0.00     0.075 A 
HETATM    8  C6  UNL     1      32.719   4.974  48.038  1.00  0.00     0.093 A 
HETATM    9  O3  UNL     1      32.672   5.744  49.101  1.00  0.00    -0.216 OA
HETATM   10  N4  UNL     1      31.515   6.296  49.235  1.00  0.00    -0.123 NA
BRANCH   8  11
HETATM   11  C3  UNL     1      33.960   4.228  47.679  1.00  0.00     0.021 C 
HETATM   12  C4  UNL     1      35.034   4.609  48.664  1.00  0.00     0.026 C 
HETATM   13  C5  UNL     1      33.690   2.742  47.727  1.00  0.00     0.026 C 
BRANCH  11  14
HETATM   14  C2  UNL     1      34.434   4.659  46.315  1.00  0.00    -0.021 C 
HETATM   15  C1  UNL     1      34.990   3.759  45.521  1.00  0.00     0.008 C 
ENDBRANCH  11  14
ENDBRANCH   8  11
ENDBRANCH   3   6
ENDBRANCH   1   2
BRANCH   1  16
HETATM   16  C11 UNL     1      26.334   4.659  49.697  1.00  0.00    -0.004 C 
HETATM   17  C12 UNL     1      25.437   3.703  49.771  1.00  0.00    -0.024 C 
BRANCH  17  18
HETATM   18  C13 UNL     1      25.078   2.972  51.038  1.00  0.00     0.064 C 
BRANCH  18  19
HETATM   19  C14 UNL     1      23.722   2.382  50.992  1.00  0.00    -0.041 C 
HETATM   20  C15 UNL     1      22.508   2.432  50.450  1.00  0.00     0.092 C 
HETATM   21  N2  UNL     1      21.562   1.480  50.927  1.00  0.00    -0.367 N 
HETATM   22  C16 UNL     1      22.298   0.777  51.909  1.00  0.00     0.039 C 
HETATM   23  H18 UNL     1      20.596   1.411  50.567  1.00  0.00     0.165 HD
HETATM   24  C17 UNL     1      22.080  -0.062  52.885  1.00  0.00     0.008 A 
HETATM   25  C22 UNL     1      23.699   1.049  51.555  1.00  0.00     0.133 C 
HETATM   26  C18 UNL     1      20.924  -0.735  53.465  1.00  0.00     0.039 A 
HETATM   27  C21 UNL     1      23.253  -0.355  53.747  1.00  0.00     0.036 A 
HETATM   28  C19 UNL     1      21.016  -1.459  54.565  1.00  0.00     0.142 A 
HETATM   29  O2  UNL     1      22.189  -1.656  55.277  1.00  0.00    -0.333 OA
HETATM   30  C20 UNL     1      23.337  -1.066  54.823  1.00  0.00     0.160 A 
HETATM   31  S1  UNL     1      24.591   0.691  53.059  1.00  0.00    -0.111 SA
ENDBRANCH  18  19
ENDBRANCH  17  18
ENDBRANCH   1  16
BRANCH   1  32
HETATM   32  C23 UNL     1      26.353   6.949  48.877  1.00  0.00     0.295 C 
BRANCH  32  33
HETATM   33  N3  UNL     1      26.815   7.597  50.087  1.00  0.00     0.080 N 
HETATM   34  H25 UNL     1      27.847   7.738  50.057  1.00  0.00     0.312 HD
HETATM   35  H26 UNL     1      26.666   6.978  50.935  1.00  0.00     0.312 HD
ENDBRANCH  32  33
ENDBRANCH   1  32
TORSDOF 9
ENDMDL
MODEL 3
REMARK VINA RESULT:      -8.1      1.517      1.907
REMARK  9 active torsions:
REMARK  status: ('A' for Active; 'I' for Inactive)
REMARK    1  A    between atoms: C2_2  and  C3_3 
REMARK    2  A    between atoms: C3_3  and  C6_6 
REMARK    3  A    between atoms: C8_8  and  C9_9 
REMARK       I    between atoms: C9_9  and  N1_11 
REMARK    4  A    between atoms: N1_11  and  C10_12 
REMARK    5  A    between atoms: C10_12  and  C11_13 
REMARK    6  A    between atoms: C10_12  and  C23_28 
REMARK    7  A    between atoms: C12_14  and  C13_15 
REMARK    8  A    between atoms: C13_15  and  C14_16 
REMARK    9  A    between atoms: C23_28  and  N3_29 
ROOT
HETATM    1  C10 UNL     1      26.650   6.996  49.014  1.00  0.00     0.135 C 
ENDROOT
BRANCH   1   2
HETATM    2  N1  UNL     1      28.073   7.055  48.896  1.00  0.00    -0.346 N 
HETATM    3  C9  UNL     1      28.995   8.021  48.434  1.00  0.00     0.273 C 
HETATM    4  O1  UNL     1      28.640   9.123  47.999  1.00  0.00    -0.266 OA
HETATM    5  H11 UNL     1      28.350   6.115  49.268  1.00  0.00     0.163 HD
BRANCH   3   6
HETATM    6  C8  UNL     1      30.386   7.655  48.494  1.00  0.00     0.154 A 
HETATM    7  C7  UNL     1      30.996   6.862  47.547  1.00  0.00     0.075 A 
HETATM    8  C6  UNL     1      32.300   6.711  47.901  1.00  0.00     0.093 A 
HETATM    9  O3  UNL     1      32.446   7.390  49.016  1.00  0.00    -0.216 OA
HETATM   10  N4  UNL     1      31.341   7.948  49.378  1.00  0.00    -0.123 NA
BRANCH   8  11
HETATM   11  C3  UNL     1      33.445   5.978  47.288  1.00  0.00     0.021 C 
HETATM   12  C4  UNL     1      33.895   6.749  46.074  1.00  0.00     0.026 C 
HETATM   13  C5  UNL     1      34.567   5.857  48.294  1.00  0.00     0.026 C 
BRANCH  11  14
HETATM   14  C2  UNL     1      32.985   4.625  46.810  1.00  0.00    -0.021 C 
HETATM   15  C1  UNL     1      32.793   3.667  47.701  1.00  0.00     0.008 C 
ENDBRANCH  11  14
ENDBRANCH   8  11
ENDBRANCH   3   6
ENDBRANCH   1   2
BRANCH   1  16
HETATM   16  C11 UNL     1      26.107   5.645  49.213  1.00  0.00    -0.004 C 
HETATM   17  C12 UNL     1      26.517   4.428  49.486  1.00  0.00    -0.024 C 
BRANCH  17  18
HETATM   18  C13 UNL     1      25.607   3.235  49.617  1.00  0.00     0.064 C 
BRANCH  18  19
HETATM   19  C14 UNL     1      25.859   2.457  50.849  1.00  0.00    -0.041 C 
HETATM   20  C15 UNL     1      26.768   1.991  51.700  1.00  0.00     0.092 C 
HETATM   21  N2  UNL     1      26.279   1.205  52.783  1.00  0.00    -0.367 N 
HETATM   22  C16 UNL     1      24.887   1.170  52.535  1.00  0.00     0.039 C 
HETATM   23  H18 UNL     1      26.889   0.806  53.516  1.00  0.00     0.165 HD
HETATM   24  C17 UNL     1      23.834   0.511  52.939  1.00  0.00     0.008 A 
HETATM   25  C22 UNL     1      24.661   2.322  51.651  1.00  0.00     0.133 C 
HETATM   26  C18 UNL     1      23.553  -0.549  53.900  1.00  0.00     0.039 A 
HETATM   27  C21 UNL     1      22.587   0.775  52.179  1.00  0.00     0.036 A 
HETATM   28  C19 UNL     1      22.360  -1.105  53.997  1.00  0.00     0.142 A 
HETATM   29  O2  UNL     1      21.267  -0.755  53.219  1.00  0.00    -0.333 OA
HETATM   30  C20 UNL     1      21.420   0.228  52.280  1.00  0.00     0.160 A 
HETATM   31  S1  UNL     1      23.095   1.959  50.876  1.00  0.00    -0.111 SA
ENDBRANCH  18  19
ENDBRANCH  17  18
ENDBRANCH   1  16
BRANCH   1  32
HETATM   32  C23 UNL     1      26.104   7.916  50.085  1.00  0.00     0.295 C 
BRANCH  32  33
HETATM   33  N3  UNL     1      27.144   8.684  50.736  1.00  0.00     0.080 N 
HETATM   34  H25 UNL     1      27.818   8.054  51.220  1.00  0.00     0.312 HD
HETATM   35  H26 UNL     1      26.747   9.282  51.518  1.00  0.00     0.312 HD
ENDBRANCH  32  33
ENDBRANCH   1  32
TORSDOF 9
ENDMDL
MODEL 4
REMARK VINA RESULT:      -8.1      3.374      9.766
REMARK  9 active torsions:
REMARK  status: ('A' for Active; 'I' for Inactive)
REMARK    1  A    between atoms: C2_2  and  C3_3 
REMARK    2  A    between atoms: C3_3  and  C6_6 
REMARK    3  A    between atoms: C8_8  and  C9_9 
REMARK       I    between atoms: C9_9  and  N1_11 
REMARK    4  A    between atoms: N1_11  and  C10_12 
REMARK    5  A    between atoms: C10_12  and  C11_13 
REMARK    6  A    between atoms: C10_12  and  C23_28 
REMARK    7  A    between atoms: C12_14  and  C13_15 
REMARK    8  A    between atoms: C13_15  and  C14_16 
REMARK    9  A    between atoms: C23_28  and  N3_29 
ROOT
HETATM    1  C10 UNL     1      25.693   5.834  49.681  1.00  0.00     0.135 C 
ENDROOT
BRANCH   1   2
HETATM    2  N1  UNL     1      26.026   4.682  50.458  1.00  0.00    -0.346 N 
HETATM    3  C9  UNL     1      26.535   3.396  50.166  1.00  0.00     0.273 C 
HETATM    4  O1  UNL     1      26.804   3.034  49.015  1.00  0.00    -0.266 OA
HETATM    5  H11 UNL     1      25.791   5.011  51.424  1.00  0.00     0.163 HD
BRANCH   3   6
HETATM    6  C8  UNL     1      26.726   2.517  51.290  1.00  0.00     0.154 A 
HETATM    7  C7  UNL     1      25.875   1.474  51.582  1.00  0.00     0.075 A 
HETATM    8  C6  UNL     1      26.340   0.851  52.696  1.00  0.00     0.093 A 
HETATM    9  O3  UNL     1      27.423   1.506  53.044  1.00  0.00    -0.216 OA
HETATM   10  N4  UNL     1      27.666   2.482  52.236  1.00  0.00    -0.123 NA
BRANCH   8  11
HETATM   11  C3  UNL     1      25.860  -0.321  53.485  1.00  0.00     0.021 C 
HETATM   12  C4  UNL     1      26.407  -0.196  54.883  1.00  0.00     0.026 C 
HETATM   13  C5  UNL     1      24.348  -0.338  53.500  1.00  0.00     0.026 C 
BRANCH  11  14
HETATM   14  C2  UNL     1      26.420  -1.591  52.900  1.00  0.00    -0.021 C 
HETATM   15  C1  UNL     1      27.701  -1.865  53.084  1.00  0.00     0.008 C 
ENDBRANCH  11  14
ENDBRANCH   8  11
ENDBRANCH   3   6
ENDBRANCH   1   2
BRANCH   1  16
HETATM   16  C11 UNL     1      26.743   6.271  48.751  1.00  0.00    -0.004 C 
HETATM   17  C12 UNL     1      27.439   7.344  48.453  1.00  0.00    -0.024 C 
BRANCH  17  18
HETATM   18  C13 UNL     1      28.488   7.404  47.373  1.00  0.00     0.064 C 
BRANCH  18  19
HETATM   19  C14 UNL     1      29.676   8.188  47.774  1.00  0.00    -0.041 C 
HETATM   20  C15 UNL     1      30.192   9.398  47.971  1.00  0.00     0.092 C 
HETATM   21  N2  UNL     1      31.557   9.446  48.378  1.00  0.00    -0.367 N 
HETATM   22  C16 UNL     1      31.920   8.080  48.405  1.00  0.00     0.039 C 
HETATM   23  H18 UNL     1      32.058  10.327  48.579  1.00  0.00     0.165 HD
HETATM   24  C17 UNL     1      33.003   7.353  48.475  1.00  0.00     0.008 A 
HETATM   25  C22 UNL     1      30.632   7.379  48.499  1.00  0.00     0.133 C 
HETATM   26  C18 UNL     1      34.436   7.596  48.582  1.00  0.00     0.039 A 
HETATM   27  C21 UNL     1      32.805   5.895  48.277  1.00  0.00     0.036 A 
HETATM   28  C19 UNL     1      35.318   6.617  48.509  1.00  0.00     0.142 A 
HETATM   29  O2  UNL     1      34.993   5.282  48.324  1.00  0.00    -0.333 OA
HETATM   30  C20 UNL     1      33.674   4.940  48.208  1.00  0.00     0.160 A 
HETATM   31  S1  UNL     1      31.010   5.723  47.950  1.00  0.00    -0.111 SA
ENDBRANCH  18  19
ENDBRANCH  17  18
ENDBRANCH   1  16
BRANCH   1  32
HETATM   32  C23 UNL     1      24.389   5.686  48.927  1.00  0.00     0.295 C 
BRANCH  32  33
HETATM   33  N3  UNL     1      23.787   6.963  48.608  1.00  0.00     0.080 N 
HETATM   34  H25 UNL     1      23.328   7.373  49.448  1.00  0.00     0.312 HD
HETATM   35  H26 UNL     1      22.994   6.851  47.912  1.00  0.00     0.312 HD
ENDBRANCH  32  33
ENDBRANCH   1  32
TORSDOF 9
ENDMDL
MODEL 5
REMARK VINA RESULT:      -7.8      2.873      5.226
REMARK  9 active torsions:
REMARK  status: ('A' for Active; 'I' for Inactive)
REMARK    1  A    between atoms: C2_2  and  C3_3 
REMARK    2  A    between atoms: C3_3  and  C6_6 
REMARK    3  A    between atoms: C8_8  and  C9_9 
REMARK       I    between atoms: C9_9  and  N1_11 
REMARK    4  A    between atoms: N1_11  and  C10_12 
REMARK    5  A    between atoms: C10_12  and  C11_13 
REMARK    6  A    between atoms: C10_12  and  C23_28 
REMARK    7  A    between atoms: C12_14  and  C13_15 
REMARK    8  A    between atoms: C13_15  and  C14_16 
REMARK    9  A    between atoms: C23_28  and  N3_29 
ROOT
HETATM    1  C10 UNL     1      26.127   2.459  51.915  1.00  0.00     0.135 C 
ENDROOT
BRANCH   1   2
HETATM    2  N1  UNL     1      26.435   3.500  50.987  1.00  0.00    -0.346 N 
HETATM    3  C9  UNL     1      25.963   3.865  49.705  1.00  0.00     0.273 C 
HETATM    4  O1  UNL     1      25.076   3.233  49.120  1.00  0.00    -0.266 OA
HETATM    5  H11 UNL     1      27.185   4.020  51.502  1.00  0.00     0.163 HD
BRANCH   3   6
HETATM    6  C8  UNL     1      26.573   5.024  49.108  1.00  0.00     0.154 A 
HETATM    7  C7  UNL     1      27.906   5.081  48.767  1.00  0.00     0.075 A 
HETATM    8  C6  UNL     1      28.152   6.306  48.232  1.00  0.00     0.093 A 
HETATM    9  O3  UNL     1      27.003   6.942  48.260  1.00  0.00    -0.216 OA
HETATM   10  N4  UNL     1      26.070   6.212  48.768  1.00  0.00    -0.123 NA
BRANCH   8  11
HETATM   11  C3  UNL     1      29.380   6.953  47.686  1.00  0.00     0.021 C 
HETATM   12  C4  UNL     1      30.416   5.880  47.474  1.00  0.00     0.026 C 
HETATM   13  C5  UNL     1      29.052   7.649  46.385  1.00  0.00     0.026 C 
BRANCH  11  14
HETATM   14  C2  UNL     1      29.940   7.917  48.701  1.00  0.00    -0.021 C 
HETATM   15  C1  UNL     1      29.766   9.214  48.510  1.00  0.00     0.008 C 
ENDBRANCH  11  14
ENDBRANCH   8  11
ENDBRANCH   3   6
ENDBRANCH   1   2
BRANCH   1  16
HETATM   16  C11 UNL     1      24.697   2.314  52.221  1.00  0.00    -0.004 C 
HETATM   17  C12 UNL     1      23.732   1.429  52.117  1.00  0.00    -0.024 C 
BRANCH  17  18
HETATM   18  C13 UNL     1      22.314   1.662  52.570  1.00  0.00     0.064 C 
BRANCH  18  19
HETATM   19  C14 UNL     1      21.775   0.535  53.360  1.00  0.00    -0.041 C 
HETATM   20  C15 UNL     1      22.028  -0.407  54.265  1.00  0.00     0.092 C 
HETATM   21  N2  UNL     1      20.946  -1.271  54.599  1.00  0.00    -0.367 N 
HETATM   22  C16 UNL     1      19.907  -0.804  53.762  1.00  0.00     0.039 C 
HETATM   23  H18 UNL     1      21.018  -2.026  55.302  1.00  0.00     0.165 HD
HETATM   24  C17 UNL     1      18.729  -1.190  53.351  1.00  0.00     0.008 A 
HETATM   25  C22 UNL     1      20.329   0.559  53.410  1.00  0.00     0.133 C 
HETATM   26  C18 UNL     1      17.852  -2.334  53.572  1.00  0.00     0.039 A 
HETATM   27  C21 UNL     1      18.120  -0.353  52.287  1.00  0.00     0.036 A 
HETATM   28  C19 UNL     1      16.732  -2.497  52.894  1.00  0.00     0.142 A 
HETATM   29  O2  UNL     1      16.273  -1.625  51.918  1.00  0.00    -0.333 OA
HETATM   30  C20 UNL     1      17.020  -0.517  51.627  1.00  0.00     0.160 A 
HETATM   31  S1  UNL     1      19.383   0.929  51.943  1.00  0.00    -0.111 SA
ENDBRANCH  18  19
ENDBRANCH  17  18
ENDBRANCH   1  16
BRANCH   1  32
HETATM   32  C23 UNL     1      26.689   1.114  51.509  1.00  0.00     0.295 C 
BRANCH  32  33
HETATM   33  N3  UNL     1      27.054   0.300  52.649  1.00  0.00     0.080 N 
HETATM   34  H25 UNL     1      26.619  -0.644  52.581  1.00  0.00     0.312 HD
HETATM   35  H26 UNL     1      26.659   0.699  53.549  1.00  0.00     0.312 HD
ENDBRANCH  32  33
ENDBRANCH   1  32
TORSDOF 9
ENDMDL
MODEL 6
REMARK VINA RESULT:      -7.8      3.553     10.940
REMARK  9 active torsions:
REMARK  status: ('A' for Active; 'I' for Inactive)
REMARK    1  A    between atoms: C2_2  and  C3_3 
REMARK    2  A    between atoms: C3_3  and  C6_6 
REMARK    3  A    between atoms: C8_8  and  C9_9 
REMARK       I    between atoms: C9_9  and  N1_11 
REMARK    4  A    between atoms: N1_11  and  C10_12 
REMARK    5  A    between atoms: C10_12  and  C11_13 
REMARK    6  A    between atoms: C10_12  and  C23_28 
REMARK    7  A    between atoms: C12_14  and  C13_15 
REMARK    8  A    between atoms: C13_15  and  C14_16 
REMARK    9  A    between atoms: C23_28  and  N3_29 
ROOT
HETATM    1  C10 UNL     1      26.576   2.009  51.458  1.00  0.00     0.135 C 
ENDROOT
BRANCH   1   2
HETATM    2  N1  UNL     1      25.294   1.501  51.834  1.00  0.00    -0.346 N 
HETATM    3  C9  UNL     1      24.843   0.421  52.625  1.00  0.00     0.273 C 
HETATM    4  O1  UNL     1      25.620  -0.357  53.191  1.00  0.00    -0.266 OA
HETATM    5  H11 UNL     1      24.655   2.173  51.345  1.00  0.00     0.163 HD
BRANCH   3   6
HETATM    6  C8  UNL     1      23.416   0.268  52.742  1.00  0.00     0.154 A 
HETATM    7  C7  UNL     1      22.526   0.811  51.842  1.00  0.00     0.075 A 
HETATM    8  C6  UNL     1      21.269   0.482  52.242  1.00  0.00     0.093 A 
HETATM    9  O3  UNL     1      21.420  -0.227  53.337  1.00  0.00    -0.216 OA
HETATM   10  N4  UNL     1      22.664  -0.363  53.646  1.00  0.00    -0.123 NA
BRANCH   8  11
HETATM   11  C3  UNL     1      19.914   0.772  51.690  1.00  0.00     0.021 C 
HETATM   12  C4  UNL     1      19.457   2.094  52.250  1.00  0.00     0.026 C 
HETATM   13  C5  UNL     1      19.981   0.822  50.181  1.00  0.00     0.026 C 
BRANCH  11  14
HETATM   14  C2  UNL     1      18.938  -0.274  52.165  1.00  0.00    -0.021 C 
HETATM   15  C1  UNL     1      17.645  -0.069  51.978  1.00  0.00     0.008 C 
ENDBRANCH  11  14
ENDBRANCH   8  11
ENDBRANCH   3   6
ENDBRANCH   1   2
BRANCH   1  16
HETATM   16  C11 UNL     1      26.537   3.253  50.676  1.00  0.00    -0.004 C 
HETATM   17  C12 UNL     1      26.107   3.699  49.519  1.00  0.00    -0.024 C 
BRANCH  17  18
HETATM   18  C13 UNL     1      26.262   5.121  49.046  1.00  0.00     0.064 C 
BRANCH  18  19
HETATM   19  C14 UNL     1      27.647   5.440  48.640  1.00  0.00    -0.041 C 
HETATM   20  C15 UNL     1      28.843   4.963  48.303  1.00  0.00     0.092 C 
HETATM   21  N2  UNL     1      29.854   5.927  48.023  1.00  0.00    -0.367 N 
HETATM   22  C16 UNL     1      29.184   7.152  48.247  1.00  0.00     0.039 C 
HETATM   23  H18 UNL     1      30.814   5.675  47.733  1.00  0.00     0.165 HD
HETATM   24  C17 UNL     1      29.474   8.416  48.395  1.00  0.00     0.008 A 
HETATM   25  C22 UNL     1      27.762   6.795  48.145  1.00  0.00     0.133 C 
HETATM   26  C18 UNL     1      30.681   9.234  48.386  1.00  0.00     0.039 A 
HETATM   27  C21 UNL     1      28.342   9.286  48.802  1.00  0.00     0.036 A 
HETATM   28  C19 UNL     1      30.659  10.517  48.696  1.00  0.00     0.142 A 
HETATM   29  O2  UNL     1      29.517  11.215  49.058  1.00  0.00    -0.333 OA
HETATM   30  C20 UNL     1      28.326  10.543  49.103  1.00  0.00     0.160 A 
HETATM   31  S1  UNL     1      26.929   8.134  48.982  1.00  0.00    -0.111 SA
ENDBRANCH  18  19
ENDBRANCH  17  18
ENDBRANCH   1  16
BRANCH   1  32
HETATM   32  C23 UNL     1      27.513   2.186  52.633  1.00  0.00     0.295 C 
BRANCH  32  33
HETATM   33  N3  UNL     1      26.830   2.661  53.818  1.00  0.00     0.080 N 
HETATM   34  H25 UNL     1      27.287   3.521  54.186  1.00  0.00     0.312 HD
HETATM   35  H26 UNL     1      26.915   1.966  54.615  1.00  0.00     0.312 HD
ENDBRANCH  32  33
ENDBRANCH   1  32
TORSDOF 9
ENDMDL
MODEL 7
REMARK VINA RESULT:      -7.8      3.273      9.202
REMARK  9 active torsions:
REMARK  status: ('A' for Active; 'I' for Inactive)
REMARK    1  A    between atoms: C2_2  and  C3_3 
REMARK    2  A    between atoms: C3_3  and  C6_6 
REMARK    3  A    between atoms: C8_8  and  C9_9 
REMARK       I    between atoms: C9_9  and  N1_11 
REMARK    4  A    between atoms: N1_11  and  C10_12 
REMARK    5  A    between atoms: C10_12  and  C11_13 
REMARK    6  A    between atoms: C10_12  and  C23_28 
REMARK    7  A    between atoms: C12_14  and  C13_15 
REMARK    8  A    between atoms: C13_15  and  C14_16 
REMARK    9  A    between atoms: C23_28  and  N3_29 
ROOT
HETATM    1  C10 UNL     1      24.106   6.420  51.095  1.00  0.00     0.135 C 
ENDROOT
BRANCH   1   2
HETATM    2  N1  UNL     1      24.299   5.049  51.447  1.00  0.00    -0.346 N 
HETATM    3  C9  UNL     1      23.574   4.104  52.208  1.00  0.00     0.273 C 
HETATM    4  O1  UNL     1      22.503   4.379  52.761  1.00  0.00    -0.266 OA
HETATM    5  H11 UNL     1      25.208   4.840  50.970  1.00  0.00     0.163 HD
BRANCH   3   6
HETATM    6  C8  UNL     1      24.151   2.789  52.309  1.00  0.00     0.154 A 
HETATM    7  C7  UNL     1      25.351   2.541  52.939  1.00  0.00     0.075 A 
HETATM    8  C6  UNL     1      25.603   1.209  52.854  1.00  0.00     0.093 A 
HETATM    9  O3  UNL     1      24.588   0.696  52.197  1.00  0.00    -0.216 OA
HETATM   10  N4  UNL     1      23.731   1.602  51.870  1.00  0.00    -0.123 NA
BRANCH   8  11
HETATM   11  C3  UNL     1      26.724   0.350  53.336  1.00  0.00     0.021 C 
HETATM   12  C4  UNL     1      26.415  -0.067  54.751  1.00  0.00     0.026 C 
HETATM   13  C5  UNL     1      26.860  -0.858  52.438  1.00  0.00     0.026 C 
BRANCH  11  14
HETATM   14  C2  UNL     1      27.998   1.153  53.378  1.00  0.00    -0.021 C 
HETATM   15  C1  UNL     1      29.119   0.551  53.739  1.00  0.00     0.008 C 
ENDBRANCH  11  14
ENDBRANCH   8  11
ENDBRANCH   3   6
ENDBRANCH   1   2
BRANCH   1  16
HETATM   16  C11 UNL     1      25.205   7.015  50.322  1.00  0.00    -0.004 C 
HETATM   17  C12 UNL     1      25.636   8.192  49.930  1.00  0.00    -0.024 C 
BRANCH  17  18
HETATM   18  C13 UNL     1      26.876   8.410  49.102  1.00  0.00     0.064 C 
BRANCH  18  19
HETATM   19  C14 UNL     1      27.544   7.144  48.731  1.00  0.00    -0.041 C 
HETATM   20  C15 UNL     1      27.399   5.848  48.472  1.00  0.00     0.092 C 
HETATM   21  N2  UNL     1      28.590   5.125  48.172  1.00  0.00    -0.367 N 
HETATM   22  C16 UNL     1      29.592   6.116  48.292  1.00  0.00     0.039 C 
HETATM   23  H18 UNL     1      28.599   4.119  47.936  1.00  0.00     0.165 HD
HETATM   24  C17 UNL     1      30.893   6.191  48.372  1.00  0.00     0.008 A 
HETATM   25  C22 UNL     1      28.852   7.378  48.157  1.00  0.00     0.133 C 
HETATM   26  C18 UNL     1      32.011   5.254  48.358  1.00  0.00     0.039 A 
HETATM   27  C21 UNL     1      31.436   7.538  48.678  1.00  0.00     0.036 A 
HETATM   28  C19 UNL     1      33.251   5.644  48.585  1.00  0.00     0.142 A 
HETATM   29  O2  UNL     1      33.624   6.951  48.858  1.00  0.00    -0.333 OA
HETATM   30  C20 UNL     1      32.653   7.914  48.899  1.00  0.00     0.160 A 
HETATM   31  S1  UNL     1      29.948   8.589  48.875  1.00  0.00    -0.111 SA
ENDBRANCH  18  19
ENDBRANCH  17  18
ENDBRANCH   1  16
BRANCH   1  32
HETATM   32  C23 UNL     1      22.798   6.671  50.376  1.00  0.00     0.295 C 
BRANCH  32  33
HETATM   33  N3  UNL     1      21.893   7.496  51.148  1.00  0.00     0.080 N 
HETATM   34  H25 UNL     1      21.812   8.446  50.728  1.00  0.00     0.312 HD
HETATM   35  H26 UNL     1      22.274   7.679  52.121  1.00  0.00     0.312 HD
ENDBRANCH  32  33
ENDBRANCH   1  32
TORSDOF 9
ENDMDL
MODEL 8
REMARK VINA RESULT:      -7.6      3.894      9.481
REMARK  9 active torsions:
REMARK  status: ('A' for Active; 'I' for Inactive)
REMARK    1  A    between atoms: C2_2  and  C3_3 
REMARK    2  A    between atoms: C3_3  and  C6_6 
REMARK    3  A    between atoms: C8_8  and  C9_9 
REMARK       I    between atoms: C9_9  and  N1_11 
REMARK    4  A    between atoms: N1_11  and  C10_12 
REMARK    5  A    between atoms: C10_12  and  C11_13 
REMARK    6  A    between atoms: C10_12  and  C23_28 
REMARK    7  A    between atoms: C12_14  and  C13_15 
REMARK    8  A    between atoms: C13_15  and  C14_16 
REMARK    9  A    between atoms: C23_28  and  N3_29 
ROOT
HETATM    1  C10 UNL     1      24.642   5.805  50.522  1.00  0.00     0.135 C 
ENDROOT
BRANCH   1   2
HETATM    2  N1  UNL     1      25.055   4.547  51.060  1.00  0.00    -0.346 N 
HETATM    3  C9  UNL     1      25.678   3.393  50.533  1.00  0.00     0.273 C 
HETATM    4  O1  UNL     1      26.003   3.300  49.343  1.00  0.00    -0.266 OA
HETATM    5  H11 UNL     1      24.771   4.649  52.064  1.00  0.00     0.163 HD
BRANCH   3   6
HETATM    6  C8  UNL     1      25.919   2.319  51.459  1.00  0.00     0.154 A 
HETATM    7  C7  UNL     1      27.105   2.168  52.144  1.00  0.00     0.075 A 
HETATM    8  C6  UNL     1      27.001   1.062  52.927  1.00  0.00     0.093 A 
HETATM    9  O3  UNL     1      25.798   0.583  52.707  1.00  0.00    -0.216 OA
HETATM   10  N4  UNL     1      25.152   1.301  51.854  1.00  0.00    -0.123 NA
BRANCH   8  11
HETATM   11  C3  UNL     1      27.936   0.395  53.880  1.00  0.00     0.021 C 
HETATM   12  C4  UNL     1      29.075   1.342  54.153  1.00  0.00     0.026 C 
HETATM   13  C5  UNL     1      27.201   0.055  55.156  1.00  0.00     0.026 C 
BRANCH  11  14
HETATM   14  C2  UNL     1      28.524  -0.834  53.237  1.00  0.00    -0.021 C 
HETATM   15  C1  UNL     1      29.771  -1.168  53.524  1.00  0.00     0.008 C 
ENDBRANCH  11  14
ENDBRANCH   8  11
ENDBRANCH   3   6
ENDBRANCH   1   2
BRANCH   1  16
HETATM   16  C11 UNL     1      25.656   6.485  49.705  1.00  0.00    -0.004 C 
HETATM   17  C12 UNL     1      25.888   6.806  48.453  1.00  0.00    -0.024 C 
BRANCH  17  18
HETATM   18  C13 UNL     1      27.110   7.547  47.978  1.00  0.00     0.064 C 
BRANCH  18  19
HETATM   19  C14 UNL     1      28.326   6.706  47.985  1.00  0.00    -0.041 C 
HETATM   20  C15 UNL     1      28.840   5.500  48.208  1.00  0.00     0.092 C 
HETATM   21  N2  UNL     1      30.247   5.367  48.028  1.00  0.00    -0.367 N 
HETATM   22  C16 UNL     1      30.639   6.679  47.675  1.00  0.00     0.039 C 
HETATM   23  H18 UNL     1      30.754   4.475  48.153  1.00  0.00     0.165 HD
HETATM   24  C17 UNL     1      31.736   7.378  47.561  1.00  0.00     0.008 A 
HETATM   25  C22 UNL     1      29.392   7.301  47.207  1.00  0.00     0.133 C 
HETATM   26  C18 UNL     1      33.164   7.143  47.731  1.00  0.00     0.039 A 
HETATM   27  C21 UNL     1      31.543   8.830  47.316  1.00  0.00     0.036 A 
HETATM   28  C19 UNL     1      34.047   8.121  47.654  1.00  0.00     0.142 A 
HETATM   29  O2  UNL     1      33.727   9.448  47.412  1.00  0.00    -0.333 OA
HETATM   30  C20 UNL     1      32.412   9.784  47.240  1.00  0.00     0.160 A 
HETATM   31  S1  UNL     1      29.724   9.051  47.323  1.00  0.00    -0.111 SA
ENDBRANCH  18  19
ENDBRANCH  17  18
ENDBRANCH   1  16
BRANCH   1  32
HETATM   32  C23 UNL     1      23.347   5.721  49.744  1.00  0.00     0.295 C 
BRANCH  32  33
HETATM   33  N3  UNL     1      22.372   4.863  50.383  1.00  0.00     0.080 N 
HETATM   34  H25 UNL     1      22.490   3.876  50.070  1.00  0.00     0.312 HD
HETATM   35  H26 UNL     1      21.385   5.111  50.081  1.00  0.00     0.312 HD
ENDBRANCH  32  33
ENDBRANCH   1  32
TORSDOF 9
ENDMDL
MODEL 9
REMARK VINA RESULT:      -7.6      6.058      8.917
REMARK  9 active torsions:
REMARK  status: ('A' for Active; 'I' for Inactive)
REMARK    1  A    between atoms: C2_2  and  C3_3 
REMARK    2  A    between atoms: C3_3  and  C6_6 
REMARK    3  A    between atoms: C8_8  and  C9_9 
REMARK       I    between atoms: C9_9  and  N1_11 
REMARK    4  A    between atoms: N1_11  and  C10_12 
REMARK    5  A    between atoms: C10_12  and  C11_13 
REMARK    6  A    between atoms: C10_12  and  C23_28 
REMARK    7  A    between atoms: C12_14  and  C13_15 
REMARK    8  A    between atoms: C13_15  and  C14_16 
REMARK    9  A    between atoms: C23_28  and  N3_29 
ROOT
HETATM    1  C10 UNL     1      21.009   1.259  49.315  1.00  0.00     0.135 C 
ENDROOT
BRANCH   1   2
HETATM    2  N1  UNL     1      22.264   1.324  49.995  1.00  0.00    -0.346 N 
HETATM    3  C9  UNL     1      22.819   2.165  50.986  1.00  0.00     0.273 C 
HETATM    4  O1  UNL     1      22.194   3.111  51.479  1.00  0.00    -0.266 OA
HETATM    5  H11 UNL     1      22.774   0.517  49.562  1.00  0.00     0.163 HD
BRANCH   3   6
HETATM    6  C8  UNL     1      24.164   1.863  51.399  1.00  0.00     0.154 A 
HETATM    7  C7  UNL     1      24.471   0.850  52.280  1.00  0.00     0.075 A 
HETATM    8  C6  UNL     1      25.819   0.836  52.453  1.00  0.00     0.093 A 
HETATM    9  O3  UNL     1      26.283   1.807  51.701  1.00  0.00    -0.216 OA
HETATM   10  N4  UNL     1      25.334   2.418  51.078  1.00  0.00    -0.123 NA
BRANCH   8  11
HETATM   11  C3  UNL     1      26.734  -0.013  53.271  1.00  0.00     0.021 C 
HETATM   12  C4  UNL     1      26.218  -0.024  54.686  1.00  0.00     0.026 C 
HETATM   13  C5  UNL     1      26.770  -1.413  52.702  1.00  0.00     0.026 C 
BRANCH  11  14
HETATM   14  C2  UNL     1      28.107   0.606  53.303  1.00  0.00    -0.021 C 
HETATM   15  C1  UNL     1      28.830   0.494  54.404  1.00  0.00     0.008 C 
ENDBRANCH  11  14
ENDBRANCH   8  11
ENDBRANCH   3   6
ENDBRANCH   1   2
BRANCH   1  16
HETATM   16  C11 UNL     1      19.836   1.205  50.197  1.00  0.00    -0.004 C 
HETATM   17  C12 UNL     1      18.560   0.898  50.154  1.00  0.00    -0.024 C 
BRANCH  17  18
HETATM   18  C13 UNL     1      17.628   0.972  51.336  1.00  0.00     0.064 C 
BRANCH  18  19
HETATM   19  C14 UNL     1      17.073   2.327  51.540  1.00  0.00    -0.041 C 
HETATM   20  C15 UNL     1      17.290   3.637  51.469  1.00  0.00     0.092 C 
HETATM   21  N2  UNL     1      16.220   4.480  51.887  1.00  0.00    -0.367 N 
HETATM   22  C16 UNL     1      15.233   3.551  52.290  1.00  0.00     0.039 C 
HETATM   23  H18 UNL     1      16.265   5.513  51.858  1.00  0.00     0.165 HD
HETATM   24  C17 UNL     1      14.108   3.539  52.952  1.00  0.00     0.008 A 
HETATM   25  C22 UNL     1      15.627   2.308  51.612  1.00  0.00     0.133 C 
HETATM   26  C18 UNL     1      13.263   4.521  53.621  1.00  0.00     0.039 A 
HETATM   27  C21 UNL     1      13.553   2.193  53.242  1.00  0.00     0.036 A 
HETATM   28  C19 UNL     1      12.207   4.167  54.331  1.00  0.00     0.142 A 
HETATM   29  O2  UNL     1      11.794   2.857  54.518  1.00  0.00    -0.333 OA
HETATM   30  C20 UNL     1      12.517   1.852  53.937  1.00  0.00     0.160 A 
HETATM   31  S1  UNL     1      14.788   1.036  52.540  1.00  0.00    -0.111 SA
ENDBRANCH  18  19
ENDBRANCH  17  18
ENDBRANCH   1  16
BRANCH   1  32
HETATM   32  C23 UNL     1      20.823   2.371  48.304  1.00  0.00     0.295 C 
BRANCH  32  33
HETATM   33  N3  UNL     1      20.507   3.638  48.929  1.00  0.00     0.080 N 
HETATM   34  H25 UNL     1      21.298   4.308  48.822  1.00  0.00     0.312 HD
HETATM   35  H26 UNL     1      20.402   3.533  49.979  1.00  0.00     0.312 HD
ENDBRANCH  32  33
ENDBRANCH   1  32
TORSDOF 9
ENDMDL
