MODEL 1
REMARK VINA RESULT:      -9.2      0.000      0.000
REMARK  4 active torsions:
REMARK  status: ('A' for Active; 'I' for Inactive)
REMARK    1  A    between atoms: C2_2  and  C3_3 
REMARK    2  A    between atoms: C3_3  and  N1_5 
REMARK    3  A    between atoms: N1_5  and  C5_6 
REMARK    4  A    between atoms: N3_14  and  C12_15 
ROOT
HETATM    1  C5  UNL     1      25.242  -0.098  53.240  1.00  0.00     0.030 A 
HETATM    2  C6  UNL     1      25.501   1.014  52.474  1.00  0.00     0.032 A 
HETATM    3  C7  UNL     1      24.541   1.948  52.158  1.00  0.00     0.042 A 
HETATM    4  C8  UNL     1      23.238   1.852  52.580  1.00  0.00     0.103 A 
HETATM    5  C9  UNL     1      22.888   0.771  53.351  1.00  0.00     0.065 A 
HETATM    6  C10 UNL     1      23.900  -0.153  53.647  1.00  0.00     0.061 A 
HETATM    7  N2  UNL     1      21.668   0.358  53.932  1.00  0.00    -0.371 N 
HETATM    8  C11 UNL     1      20.449  -0.349  53.767  1.00  0.00     0.248 C 
HETATM    9  N3  UNL     1      19.538   0.088  52.778  1.00  0.00    -0.346 N 
HETATM   10  C18 UNL     1      19.870   1.237  52.009  1.00  0.00     0.276 C 
HETATM   11  N4  UNL     1      20.072   2.421  52.824  1.00  0.00    -0.263 NA
HETATM   12  C19 UNL     1      20.719   3.400  52.297  1.00  0.00     0.230 C 
HETATM   13  N5  UNL     1      21.388   3.823  51.090  1.00  0.00    -0.230 NA
HETATM   14  C20 UNL     1      22.643   3.504  50.904  1.00  0.00     0.260 C 
HETATM   15  O1  UNL     1      22.451   2.903  52.143  1.00  0.00    -0.302 OA
HETATM   16  H12 UNL     1      21.845   0.794  54.864  1.00  0.00     0.161 HD
ENDROOT
BRANCH   9  17
HETATM   17  C12 UNL     1      18.366  -0.710  52.686  1.00  0.00     0.034 A 
HETATM   18  C13 UNL     1      17.275  -0.308  51.962  1.00  0.00     0.032 A 
HETATM   19  C14 UNL     1      16.116  -1.077  51.861  1.00  0.00     0.046 A 
HETATM   20  C15 UNL     1      16.016  -2.294  52.496  1.00  0.00     0.138 A 
HETATM   21  F1  UNL     1      14.900  -3.036  52.400  1.00  0.00    -0.204 F 
HETATM   22  C16 UNL     1      17.099  -2.724  53.233  1.00  0.00     0.074 A 
HETATM   23 CL1  UNL     1      16.977  -4.260  54.037  1.00  0.00    -0.081 Cl
HETATM   24  C17 UNL     1      18.225  -1.932  53.305  1.00  0.00     0.056 A 
ENDBRANCH   9  17
BRANCH   1  25
HETATM   25  N1  UNL     1      26.162  -1.087  53.599  1.00  0.00    -0.385 N 
HETATM   26  H8  UNL     1      25.892  -1.770  54.340  1.00  0.00     0.160 HD
BRANCH  25  27
HETATM   27  C3  UNL     1      27.451  -1.175  52.970  1.00  0.00     0.082 C 
HETATM   28  C4  UNL     1      27.888  -2.593  52.730  1.00  0.00     0.032 C 
BRANCH  27  29
HETATM   29  C2  UNL     1      28.480  -0.521  53.823  1.00  0.00     0.014 C 
HETATM   30  C1  UNL     1      29.793  -0.608  53.583  1.00  0.00     0.007 C 
ENDBRANCH  27  29
ENDBRANCH  25  27
ENDBRANCH   1  25
TORSDOF 4
ENDMDL
MODEL 2
REMARK VINA RESULT:      -9.1      4.708      6.766
REMARK  4 active torsions:
REMARK  status: ('A' for Active; 'I' for Inactive)
REMARK    1  A    between atoms: C2_2  and  C3_3 
REMARK    2  A    between atoms: C3_3  and  N1_5 
REMARK    3  A    between atoms: N1_5  and  C5_6 
REMARK    4  A    between atoms: N3_14  and  C12_15 
ROOT
HETATM    1  C5  UNL     1      26.080  -0.349  54.245  1.00  0.00     0.030 A 
HETATM    2  C6  UNL     1      25.023  -0.970  54.868  1.00  0.00     0.032 A 
HETATM    3  C7  UNL     1      23.713  -0.781  54.492  1.00  0.00     0.042 A 
HETATM    4  C8  UNL     1      23.344   0.047  53.461  1.00  0.00     0.103 A 
HETATM    5  C9  UNL     1      24.335   0.711  52.781  1.00  0.00     0.065 A 
HETATM    6  C10 UNL     1      25.654   0.485  53.200  1.00  0.00     0.061 A 
HETATM    7  N2  UNL     1      24.317   1.626  51.705  1.00  0.00    -0.371 N 
HETATM    8  C11 UNL     1      24.202   2.979  51.294  1.00  0.00     0.248 C 
HETATM    9  N3  UNL     1      23.004   3.676  51.575  1.00  0.00    -0.346 N 
HETATM   10  C18 UNL     1      21.954   2.981  52.234  1.00  0.00     0.276 C 
HETATM   11  N4  UNL     1      21.497   1.817  51.495  1.00  0.00    -0.263 NA
HETATM   12  C19 UNL     1      20.832   0.928  52.143  1.00  0.00     0.230 C 
HETATM   13  N5  UNL     1      20.308   0.603  53.448  1.00  0.00    -0.230 NA
HETATM   14  C20 UNL     1      21.073  -0.010  54.315  1.00  0.00     0.260 C 
HETATM   15  O1  UNL     1      21.975   0.083  53.261  1.00  0.00    -0.302 OA
HETATM   16  H12 UNL     1      24.471   0.912  50.959  1.00  0.00     0.161 HD
ENDROOT
BRANCH   9  17
HETATM   17  C12 UNL     1      23.012   5.028  51.140  1.00  0.00     0.034 A 
HETATM   18  C13 UNL     1      21.852   5.718  50.909  1.00  0.00     0.032 A 
HETATM   19  C14 UNL     1      21.840   7.045  50.481  1.00  0.00     0.046 A 
HETATM   20  C15 UNL     1      23.014   7.732  50.268  1.00  0.00     0.138 A 
HETATM   21  F1  UNL     1      23.004   9.010  49.856  1.00  0.00    -0.204 F 
HETATM   22  C16 UNL     1      24.198   7.062  50.493  1.00  0.00     0.074 A 
HETATM   23 CL1  UNL     1      25.683   7.924  50.225  1.00  0.00    -0.081 Cl
HETATM   24  C17 UNL     1      24.163   5.750  50.916  1.00  0.00     0.056 A 
ENDBRANCH   9  17
BRANCH   1  25
HETATM   25  N1  UNL     1      27.431  -0.490  54.571  1.00  0.00    -0.385 N 
HETATM   26  H8  UNL     1      27.678  -0.903  55.497  1.00  0.00     0.160 HD
BRANCH  25  27
HETATM   27  C3  UNL     1      28.467  -0.082  53.663  1.00  0.00     0.082 C 
HETATM   28  C4  UNL     1      29.542  -1.121  53.499  1.00  0.00     0.032 C 
BRANCH  27  29
HETATM   29  C2  UNL     1      29.113   1.166  54.153  1.00  0.00     0.014 C 
HETATM   30  C1  UNL     1      28.784   2.384  53.709  1.00  0.00     0.007 C 
ENDBRANCH  27  29
ENDBRANCH  25  27
ENDBRANCH   1  25
TORSDOF 4
ENDMDL
MODEL 3
REMARK VINA RESULT:      -8.8      7.134      9.680
REMARK  4 active torsions:
REMARK  status: ('A' for Active; 'I' for Inactive)
REMARK    1  A    between atoms: C2_2  and  C3_3 
REMARK    2  A    between atoms: C3_3  and  N1_5 
REMARK    3  A    between atoms: N1_5  and  C5_6 
REMARK    4  A    between atoms: N3_14  and  C12_15 
ROOT
HETATM    1  C5  UNL     1      26.459   1.277  52.817  1.00  0.00     0.030 A 
HETATM    2  C6  UNL     1      25.331   1.714  53.472  1.00  0.00     0.032 A 
HETATM    3  C7  UNL     1      24.473   2.652  52.947  1.00  0.00     0.042 A 
HETATM    4  C8  UNL     1      24.666   3.236  51.720  1.00  0.00     0.103 A 
HETATM    5  C9  UNL     1      25.769   2.860  50.993  1.00  0.00     0.065 A 
HETATM    6  C10 UNL     1      26.613   1.901  51.570  1.00  0.00     0.061 A 
HETATM    7  N2  UNL     1      26.272   3.254  49.732  1.00  0.00    -0.371 N 
HETATM    8  C11 UNL     1      27.068   4.173  49.003  1.00  0.00     0.248 C 
HETATM    9  N3  UNL     1      26.703   5.540  49.001  1.00  0.00    -0.346 N 
HETATM   10  C18 UNL     1      25.534   5.930  49.710  1.00  0.00     0.276 C 
HETATM   11  N4  UNL     1      24.336   5.264  49.231  1.00  0.00    -0.263 NA
HETATM   12  C19 UNL     1      23.313   5.254  50.010  1.00  0.00     0.230 C 
HETATM   13  N5  UNL     1      22.843   5.692  51.303  1.00  0.00    -0.230 NA
HETATM   14  C20 UNL     1      23.067   4.948  52.355  1.00  0.00     0.260 C 
HETATM   15  O1  UNL     1      23.678   4.149  51.395  1.00  0.00    -0.302 OA
HETATM   16  H12 UNL     1      25.821   2.481  49.195  1.00  0.00     0.161 HD
ENDROOT
BRANCH   9  17
HETATM   17  C12 UNL     1      27.587   6.368  48.259  1.00  0.00     0.034 A 
HETATM   18  C13 UNL     1      27.153   7.506  47.633  1.00  0.00     0.032 A 
HETATM   19  C14 UNL     1      28.005   8.331  46.900  1.00  0.00     0.046 A 
HETATM   20  C15 UNL     1      29.343   8.033  46.772  1.00  0.00     0.138 A 
HETATM   21  F1  UNL     1      30.165   8.828  46.066  1.00  0.00    -0.204 F 
HETATM   22  C16 UNL     1      29.808   6.893  47.391  1.00  0.00     0.074 A 
HETATM   23 CL1  UNL     1      31.496   6.512  47.231  1.00  0.00    -0.081 Cl
HETATM   24  C17 UNL     1      28.930   6.106  48.106  1.00  0.00     0.056 A 
ENDBRANCH   9  17
BRANCH   1  25
HETATM   25  N1  UNL     1      27.374   0.333  53.287  1.00  0.00    -0.385 N 
HETATM   26  H8  UNL     1      27.253  -0.662  53.000  1.00  0.00     0.160 HD
BRANCH  25  27
HETATM   27  C3  UNL     1      28.465   0.709  54.146  1.00  0.00     0.082 C 
HETATM   28  C4  UNL     1      28.919   2.125  53.927  1.00  0.00     0.032 C 
BRANCH  27  29
HETATM   29  C2  UNL     1      29.631  -0.184  53.908  1.00  0.00     0.014 C 
HETATM   30  C1  UNL     1      29.519  -1.414  53.395  1.00  0.00     0.007 C 
ENDBRANCH  27  29
ENDBRANCH  25  27
ENDBRANCH   1  25
TORSDOF 4
ENDMDL
MODEL 4
REMARK VINA RESULT:      -8.7      5.008      8.913
REMARK  4 active torsions:
REMARK  status: ('A' for Active; 'I' for Inactive)
REMARK    1  A    between atoms: C2_2  and  C3_3 
REMARK    2  A    between atoms: C3_3  and  N1_5 
REMARK    3  A    between atoms: N1_5  and  C5_6 
REMARK    4  A    between atoms: N3_14  and  C12_15 
ROOT
HETATM    1  C5  UNL     1      21.444   0.167  53.334  1.00  0.00     0.030 A 
HETATM    2  C6  UNL     1      22.208  -0.962  53.516  1.00  0.00     0.032 A 
HETATM    3  C7  UNL     1      23.583  -0.953  53.476  1.00  0.00     0.042 A 
HETATM    4  C8  UNL     1      24.315   0.186  53.251  1.00  0.00     0.103 A 
HETATM    5  C9  UNL     1      23.636   1.363  53.058  1.00  0.00     0.065 A 
HETATM    6  C10 UNL     1      22.235   1.303  53.109  1.00  0.00     0.061 A 
HETATM    7  N2  UNL     1      24.056   2.687  52.796  1.00  0.00    -0.371 N 
HETATM    8  C11 UNL     1      24.430   3.646  51.821  1.00  0.00     0.248 C 
HETATM    9  N3  UNL     1      25.568   3.395  51.021  1.00  0.00    -0.346 N 
HETATM   10  C18 UNL     1      26.307   2.202  51.248  1.00  0.00     0.276 C 
HETATM   11  N4  UNL     1      26.824   2.109  52.601  1.00  0.00    -0.263 NA
HETATM   12  C19 UNL     1      27.178   0.945  53.021  1.00  0.00     0.230 C 
HETATM   13  N5  UNL     1      27.274  -0.441  52.632  1.00  0.00    -0.230 NA
HETATM   14  C20 UNL     1      26.233  -1.222  52.770  1.00  0.00     0.260 C 
HETATM   15  O1  UNL     1      25.681  -0.042  53.254  1.00  0.00    -0.302 OA
HETATM   16  H12 UNL     1      24.041   2.998  53.792  1.00  0.00     0.161 HD
ENDROOT
BRANCH   9  17
HETATM   17  C12 UNL     1      25.831   4.412  50.063  1.00  0.00     0.034 A 
HETATM   18  C13 UNL     1      27.042   4.510  49.431  1.00  0.00     0.032 A 
HETATM   19  C14 UNL     1      27.318   5.501  48.489  1.00  0.00     0.046 A 
HETATM   20  C15 UNL     1      26.370   6.439  48.149  1.00  0.00     0.138 A 
HETATM   21  F1  UNL     1      26.635   7.394  47.241  1.00  0.00    -0.204 F 
HETATM   22  C16 UNL     1      25.141   6.364  48.770  1.00  0.00     0.074 A 
HETATM   23 CL1  UNL     1      23.941   7.547  48.343  1.00  0.00    -0.081 Cl
HETATM   24  C17 UNL     1      24.912   5.368  49.694  1.00  0.00     0.056 A 
ENDBRANCH   9  17
BRANCH   1  25
HETATM   25  N1  UNL     1      20.049   0.234  53.359  1.00  0.00    -0.385 N 
HETATM   26  H8  UNL     1      19.585   0.618  54.211  1.00  0.00     0.160 HD
BRANCH  25  27
HETATM   27  C3  UNL     1      19.257  -0.209  52.244  1.00  0.00     0.082 C 
HETATM   28  C4  UNL     1      18.841   0.916  51.339  1.00  0.00     0.032 C 
BRANCH  27  29
HETATM   29  C2  UNL     1      18.021  -0.880  52.731  1.00  0.00     0.014 C 
HETATM   30  C1  UNL     1      18.037  -1.984  53.487  1.00  0.00     0.007 C 
ENDBRANCH  27  29
ENDBRANCH  25  27
ENDBRANCH   1  25
TORSDOF 4
ENDMDL
MODEL 5
REMARK VINA RESULT:      -8.6      5.960      8.625
REMARK  4 active torsions:
REMARK  status: ('A' for Active; 'I' for Inactive)
REMARK    1  A    between atoms: C2_2  and  C3_3 
REMARK    2  A    between atoms: C3_3  and  N1_5 
REMARK    3  A    between atoms: N1_5  and  C5_6 
REMARK    4  A    between atoms: N3_14  and  C12_15 
ROOT
HETATM    1  C5  UNL     1      25.129   0.396  53.037  1.00  0.00     0.030 A 
HETATM    2  C6  UNL     1      23.812   0.470  53.427  1.00  0.00     0.032 A 
HETATM    3  C7  UNL     1      22.896   1.302  52.826  1.00  0.00     0.042 A 
HETATM    4  C8  UNL     1      23.216   2.134  51.782  1.00  0.00     0.103 A 
HETATM    5  C9  UNL     1      24.510   2.128  51.325  1.00  0.00     0.065 A 
HETATM    6  C10 UNL     1      25.407   1.262  51.968  1.00  0.00     0.061 A 
HETATM    7  N2  UNL     1      25.175   2.844  50.304  1.00  0.00    -0.371 N 
HETATM    8  C11 UNL     1      25.873   4.024  49.939  1.00  0.00     0.248 C 
HETATM    9  N3  UNL     1      25.204   5.266  50.026  1.00  0.00    -0.346 N 
HETATM   10  C18 UNL     1      23.847   5.276  50.450  1.00  0.00     0.276 C 
HETATM   11  N4  UNL     1      22.981   4.490  49.590  1.00  0.00    -0.263 NA
HETATM   12  C19 UNL     1      21.841   4.132  50.066  1.00  0.00     0.230 C 
HETATM   13  N5  UNL     1      21.002   4.216  51.237  1.00  0.00    -0.230 NA
HETATM   14  C20 UNL     1      21.155   3.345  52.202  1.00  0.00     0.260 C 
HETATM   15  O1  UNL     1      22.138   2.879  51.336  1.00  0.00    -0.302 OA
HETATM   16  H12 UNL     1      25.055   2.113  49.569  1.00  0.00     0.161 HD
ENDROOT
BRANCH   9  17
HETATM   17  C12 UNL     1      26.009   6.378  49.659  1.00  0.00     0.034 A 
HETATM   18  C13 UNL     1      25.895   7.589  50.288  1.00  0.00     0.032 A 
HETATM   19  C14 UNL     1      26.675   8.691  49.941  1.00  0.00     0.046 A 
HETATM   20  C15 UNL     1      27.610   8.609  48.934  1.00  0.00     0.138 A 
HETATM   21  F1  UNL     1      28.363   9.670  48.600  1.00  0.00    -0.204 F 
HETATM   22  C16 UNL     1      27.747   7.401  48.283  1.00  0.00     0.074 A 
HETATM   23 CL1  UNL     1      28.926   7.293  47.011  1.00  0.00    -0.081 Cl
HETATM   24  C17 UNL     1      26.954   6.338  48.659  1.00  0.00     0.056 A 
ENDBRANCH   9  17
BRANCH   1  25
HETATM   25  N1  UNL     1      26.113  -0.421  53.598  1.00  0.00    -0.385 N 
HETATM   26  H8  UNL     1      26.013  -0.704  54.597  1.00  0.00     0.160 HD
BRANCH  25  27
HETATM   27  C3  UNL     1      27.242  -0.871  52.830  1.00  0.00     0.082 C 
HETATM   28  C4  UNL     1      27.160  -2.328  52.470  1.00  0.00     0.032 C 
BRANCH  27  29
HETATM   29  C2  UNL     1      28.498  -0.664  53.601  1.00  0.00     0.014 C 
HETATM   30  C1  UNL     1      28.575   0.130  54.674  1.00  0.00     0.007 C 
ENDBRANCH  27  29
ENDBRANCH  25  27
ENDBRANCH   1  25
TORSDOF 4
ENDMDL
MODEL 6
REMARK VINA RESULT:      -8.3      9.332     12.961
REMARK  4 active torsions:
REMARK  status: ('A' for Active; 'I' for Inactive)
REMARK    1  A    between atoms: C2_2  and  C3_3 
REMARK    2  A    between atoms: C3_3  and  N1_5 
REMARK    3  A    between atoms: N1_5  and  C5_6 
REMARK    4  A    between atoms: N3_14  and  C12_15 
ROOT
HETATM    1  C5  UNL     1      25.915   4.414  49.664  1.00  0.00     0.030 A 
HETATM    2  C6  UNL     1      25.215   5.517  50.093  1.00  0.00     0.032 A 
HETATM    3  C7  UNL     1      25.620   6.808  49.842  1.00  0.00     0.042 A 
HETATM    4  C8  UNL     1      26.761   7.110  49.140  1.00  0.00     0.103 A 
HETATM    5  C9  UNL     1      27.525   6.069  48.673  1.00  0.00     0.065 A 
HETATM    6  C10 UNL     1      27.071   4.772  48.953  1.00  0.00     0.061 A 
HETATM    7  N2  UNL     1      28.735   6.014  47.944  1.00  0.00    -0.371 N 
HETATM    8  C11 UNL     1      30.152   6.013  47.989  1.00  0.00     0.248 C 
HETATM    9  N3  UNL     1      30.817   7.143  48.518  1.00  0.00    -0.346 N 
HETATM   10  C18 UNL     1      30.035   8.246  48.957  1.00  0.00     0.276 C 
HETATM   11  N4  UNL     1      29.210   8.808  47.903  1.00  0.00    -0.263 NA
HETATM   12  C19 UNL     1      28.217   9.544  48.258  1.00  0.00     0.230 C 
HETATM   13  N5  UNL     1      27.536  10.086  49.409  1.00  0.00    -0.230 NA
HETATM   14  C20 UNL     1      26.619   9.371  50.009  1.00  0.00     0.260 C 
HETATM   15  O1  UNL     1      26.969   8.472  49.009  1.00  0.00    -0.302 OA
HETATM   16  H12 UNL     1      28.286   5.928  47.006  1.00  0.00     0.161 HD
ENDROOT
BRANCH   9  17
HETATM   17  C12 UNL     1      32.233   7.019  48.534  1.00  0.00     0.034 A 
HETATM   18  C13 UNL     1      33.052   8.116  48.566  1.00  0.00     0.032 A 
HETATM   19  C14 UNL     1      34.442   8.015  48.582  1.00  0.00     0.046 A 
HETATM   20  C15 UNL     1      35.063   6.786  48.567  1.00  0.00     0.138 A 
HETATM   21  F1  UNL     1      36.403   6.687  48.583  1.00  0.00    -0.204 F 
HETATM   22  C16 UNL     1      34.263   5.664  48.535  1.00  0.00     0.074 A 
HETATM   23 CL1  UNL     1      35.043   4.110  48.515  1.00  0.00    -0.081 Cl
HETATM   24  C17 UNL     1      32.893   5.811  48.520  1.00  0.00     0.056 A 
ENDBRANCH   9  17
BRANCH   1  25
HETATM   25  N1  UNL     1      25.569   3.079  49.882  1.00  0.00    -0.385 N 
HETATM   26  H8  UNL     1      25.430   2.460  49.053  1.00  0.00     0.160 HD
BRANCH  25  27
HETATM   27  C3  UNL     1      25.405   2.554  51.210  1.00  0.00     0.082 C 
HETATM   28  C4  UNL     1      26.505   1.608  51.604  1.00  0.00     0.032 C 
BRANCH  27  29
HETATM   29  C2  UNL     1      24.115   1.818  51.312  1.00  0.00     0.014 C 
HETATM   30  C1  UNL     1      23.046   2.109  50.563  1.00  0.00     0.007 C 
ENDBRANCH  27  29
ENDBRANCH  25  27
ENDBRANCH   1  25
TORSDOF 4
ENDMDL
MODEL 7
REMARK VINA RESULT:      -8.1      1.951      2.677
REMARK  4 active torsions:
REMARK  status: ('A' for Active; 'I' for Inactive)
REMARK    1  A    between atoms: C2_2  and  C3_3 
REMARK    2  A    between atoms: C3_3  and  N1_5 
REMARK    3  A    between atoms: N1_5  and  C5_6 
REMARK    4  A    between atoms: N3_14  and  C12_15 
ROOT
HETATM    1  C5  UNL     1      26.276   1.907  51.708  1.00  0.00     0.030 A 
HETATM    2  C6  UNL     1      26.510   2.821  50.708  1.00  0.00     0.032 A 
HETATM    3  C7  UNL     1      25.526   3.624  50.178  1.00  0.00     0.042 A 
HETATM    4  C8  UNL     1      24.221   3.582  50.601  1.00  0.00     0.103 A 
HETATM    5  C9  UNL     1      23.893   2.697  51.598  1.00  0.00     0.065 A 
HETATM    6  C10 UNL     1      24.930   1.901  52.107  1.00  0.00     0.061 A 
HETATM    7  N2  UNL     1      22.678   2.387  52.250  1.00  0.00    -0.371 N 
HETATM    8  C11 UNL     1      21.486   1.620  52.243  1.00  0.00     0.248 C 
HETATM    9  N3  UNL     1      20.575   1.786  51.174  1.00  0.00    -0.346 N 
HETATM   10  C18 UNL     1      20.883   2.737  50.163  1.00  0.00     0.276 C 
HETATM   11  N4  UNL     1      21.034   4.084  50.684  1.00  0.00    -0.263 NA
HETATM   12  C19 UNL     1      21.658   4.936  49.950  1.00  0.00     0.230 C 
HETATM   13  N5  UNL     1      22.331   5.093  48.683  1.00  0.00    -0.230 NA
HETATM   14  C20 UNL     1      23.599   4.782  48.585  1.00  0.00     0.260 C 
HETATM   15  O1  UNL     1      23.407   4.477  49.928  1.00  0.00    -0.302 OA
HETATM   16  H12 UNL     1      22.828   3.032  53.057  1.00  0.00     0.161 HD
ENDROOT
BRANCH   9  17
HETATM   17  C12 UNL     1      19.431   0.949  51.260  1.00  0.00     0.034 A 
HETATM   18  C13 UNL     1      18.401   1.041  50.363  1.00  0.00     0.032 A 
HETATM   19  C14 UNL     1      17.270   0.229  50.432  1.00  0.00     0.046 A 
HETATM   20  C15 UNL     1      17.136  -0.717  51.422  1.00  0.00     0.138 A 
HETATM   21  F1  UNL     1      16.047  -1.501  51.490  1.00  0.00    -0.204 F 
HETATM   22  C16 UNL     1      18.158  -0.833  52.341  1.00  0.00     0.074 A 
HETATM   23 CL1  UNL     1      17.994  -2.026  53.594  1.00  0.00    -0.081 Cl
HETATM   24  C17 UNL     1      19.258  -0.009  52.234  1.00  0.00     0.056 A 
ENDBRANCH   9  17
BRANCH   1  25
HETATM   25  N1  UNL     1      27.220   1.060  52.292  1.00  0.00    -0.385 N 
HETATM   26  H8  UNL     1      27.559   0.240  51.743  1.00  0.00     0.160 HD
BRANCH  25  27
HETATM   27  C3  UNL     1      27.725   1.300  53.617  1.00  0.00     0.082 C 
HETATM   28  C4  UNL     1      28.767   2.382  53.658  1.00  0.00     0.032 C 
BRANCH  27  29
HETATM   29  C2  UNL     1      28.339   0.058  54.161  1.00  0.00     0.014 C 
HETATM   30  C1  UNL     1      29.300  -0.622  53.526  1.00  0.00     0.007 C 
ENDBRANCH  27  29
ENDBRANCH  25  27
ENDBRANCH   1  25
TORSDOF 4
ENDMDL
MODEL 8
REMARK VINA RESULT:      -8.1      4.873      8.560
REMARK  4 active torsions:
REMARK  status: ('A' for Active; 'I' for Inactive)
REMARK    1  A    between atoms: C2_2  and  C3_3 
REMARK    2  A    between atoms: C3_3  and  N1_5 
REMARK    3  A    between atoms: N1_5  and  C5_6 
REMARK    4  A    between atoms: N3_14  and  C12_15 
ROOT
HETATM    1  C5  UNL     1      23.910   5.234  48.927  1.00  0.00     0.030 A 
HETATM    2  C6  UNL     1      22.720   4.596  48.666  1.00  0.00     0.032 A 
HETATM    3  C7  UNL     1      22.236   3.563  49.436  1.00  0.00     0.042 A 
HETATM    4  C8  UNL     1      22.900   3.077  50.535  1.00  0.00     0.103 A 
HETATM    5  C9  UNL     1      24.099   3.654  50.872  1.00  0.00     0.065 A 
HETATM    6  C10 UNL     1      24.550   4.703  50.058  1.00  0.00     0.061 A 
HETATM    7  N2  UNL     1      25.032   3.405  51.904  1.00  0.00    -0.371 N 
HETATM    8  C11 UNL     1      26.157   2.657  52.337  1.00  0.00     0.248 C 
HETATM    9  N3  UNL     1      26.037   1.252  52.451  1.00  0.00    -0.346 N 
HETATM   10  C18 UNL     1      24.784   0.652  52.152  1.00  0.00     0.276 C 
HETATM   11  N4  UNL     1      23.708   1.147  52.991  1.00  0.00    -0.263 NA
HETATM   12  C19 UNL     1      22.503   0.960  52.581  1.00  0.00     0.230 C 
HETATM   13  N5  UNL     1      21.726   0.392  51.506  1.00  0.00    -0.230 NA
HETATM   14  C20 UNL     1      21.482   1.110  50.439  1.00  0.00     0.260 C 
HETATM   15  O1  UNL     1      22.227   2.039  51.156  1.00  0.00    -0.302 OA
HETATM   16  H12 UNL     1      24.656   4.125  52.559  1.00  0.00     0.161 HD
ENDROOT
BRANCH   9  17
HETATM   17  C12 UNL     1      27.233   0.608  52.868  1.00  0.00     0.034 A 
HETATM   18  C13 UNL     1      28.298   1.314  53.360  1.00  0.00     0.032 A 
HETATM   19  C14 UNL     1      29.479   0.699  53.774  1.00  0.00     0.046 A 
HETATM   20  C15 UNL     1      29.629  -0.668  53.705  1.00  0.00     0.138 A 
HETATM   21  F1  UNL     1      30.766  -1.261  54.104  1.00  0.00    -0.204 F 
HETATM   22  C16 UNL     1      28.572  -1.405  53.213  1.00  0.00     0.074 A 
HETATM   23 CL1  UNL     1      28.756  -3.130  53.124  1.00  0.00    -0.081 Cl
HETATM   24  C17 UNL     1      27.423  -0.755  52.816  1.00  0.00     0.056 A 
ENDBRANCH   9  17
BRANCH   1  25
HETATM   25  N1  UNL     1      24.464   6.284  48.192  1.00  0.00    -0.385 N 
HETATM   26  H8  UNL     1      24.403   6.248  47.151  1.00  0.00     0.160 HD
BRANCH  25  27
HETATM   27  C3  UNL     1      25.105   7.396  48.840  1.00  0.00     0.082 C 
HETATM   28  C4  UNL     1      25.028   8.664  48.036  1.00  0.00     0.032 C 
BRANCH  27  29
HETATM   29  C2  UNL     1      26.543   7.091  49.070  1.00  0.00     0.014 C 
HETATM   30  C1  UNL     1      27.364   6.659  48.106  1.00  0.00     0.007 C 
ENDBRANCH  27  29
ENDBRANCH  25  27
ENDBRANCH   1  25
TORSDOF 4
ENDMDL
MODEL 9
REMARK VINA RESULT:      -7.9      9.033     12.686
REMARK  4 active torsions:
REMARK  status: ('A' for Active; 'I' for Inactive)
REMARK    1  A    between atoms: C2_2  and  C3_3 
REMARK    2  A    between atoms: C3_3  and  N1_5 
REMARK    3  A    between atoms: N1_5  and  C5_6 
REMARK    4  A    between atoms: N3_14  and  C12_15 
ROOT
HETATM    1  C5  UNL     1      25.183   5.726  50.190  1.00  0.00     0.030 A 
HETATM    2  C6  UNL     1      25.055   7.043  50.562  1.00  0.00     0.032 A 
HETATM    3  C7  UNL     1      25.901   8.034  50.121  1.00  0.00     0.042 A 
HETATM    4  C8  UNL     1      26.950   7.795  49.268  1.00  0.00     0.103 A 
HETATM    5  C9  UNL     1      27.155   6.505  48.843  1.00  0.00     0.065 A 
HETATM    6  C10 UNL     1      26.266   5.531  49.319  1.00  0.00     0.061 A 
HETATM    7  N2  UNL     1      28.119   5.912  47.997  1.00  0.00    -0.371 N 
HETATM    8  C11 UNL     1      29.407   5.329  47.885  1.00  0.00     0.248 C 
HETATM    9  N3  UNL     1      30.539   6.113  48.203  1.00  0.00    -0.346 N 
HETATM   10  C18 UNL     1      30.339   7.465  48.595  1.00  0.00     0.276 C 
HETATM   11  N4  UNL     1      29.662   8.252  47.581  1.00  0.00    -0.263 NA
HETATM   12  C19 UNL     1      29.112   9.353  47.955  1.00  0.00     0.230 C 
HETATM   13  N5  UNL     1      28.883  10.196  49.103  1.00  0.00    -0.230 NA
HETATM   14  C20 UNL     1      27.856   9.962  49.880  1.00  0.00     0.260 C 
HETATM   15  O1  UNL     1      27.665   8.939  48.958  1.00  0.00    -0.302 OA
HETATM   16  H12 UNL     1      27.540   5.962  47.129  1.00  0.00     0.161 HD
ENDROOT
BRANCH   9  17
HETATM   17  C12 UNL     1      31.772   5.418  48.078  1.00  0.00     0.034 A 
HETATM   18  C13 UNL     1      31.854   4.204  47.449  1.00  0.00     0.032 A 
HETATM   19  C14 UNL     1      33.054   3.506  47.318  1.00  0.00     0.046 A 
HETATM   20  C15 UNL     1      34.229   4.016  47.823  1.00  0.00     0.138 A 
HETATM   21  F1  UNL     1      35.386   3.344  47.697  1.00  0.00    -0.204 F 
HETATM   22  C16 UNL     1      34.176   5.236  48.462  1.00  0.00     0.074 A 
HETATM   23 CL1  UNL     1      35.657   5.884  49.101  1.00  0.00    -0.081 Cl
HETATM   24  C17 UNL     1      32.968   5.892  48.568  1.00  0.00     0.056 A 
ENDBRANCH   9  17
BRANCH   1  25
HETATM   25  N1  UNL     1      24.366   4.668  50.597  1.00  0.00    -0.385 N 
HETATM   26  H8  UNL     1      23.616   4.861  51.296  1.00  0.00     0.160 HD
BRANCH  25  27
HETATM   27  C3  UNL     1      24.541   3.341  50.073  1.00  0.00     0.082 C 
HETATM   28  C4  UNL     1      23.443   2.935  49.131  1.00  0.00     0.032 C 
BRANCH  27  29
HETATM   29  C2  UNL     1      24.572   2.354  51.187  1.00  0.00     0.014 C 
HETATM   30  C1  UNL     1      23.526   1.588  51.515  1.00  0.00     0.007 C 
ENDBRANCH  27  29
ENDBRANCH  25  27
ENDBRANCH   1  25
TORSDOF 4
ENDMDL
