MODEL 1
REMARK VINA RESULT:      -9.7      0.000      0.000
REMARK  6 active torsions:
REMARK  status: ('A' for Active; 'I' for Inactive)
REMARK    1  A    between atoms: C15_18  and  N2_20 
REMARK    2  A    between atoms: N2_20  and  C16_21 
REMARK    3  A    between atoms: C16_21  and  C18_23 
REMARK    4  A    between atoms: C23_30  and  O4_31 
REMARK    5  A    between atoms: O4_31  and  C24_32 
REMARK    6  A    between atoms: C24_32  and  N4_33 
ROOT
HETATM    1  C1  UNL     1      19.350  -1.276  53.319  1.00  0.00     0.056 A 
HETATM    2  O1  UNL     1      20.009  -0.069  53.937  1.00  0.00     0.000 OA
HETATM    3  C2  UNL     1      21.309   0.240  53.275  1.00  0.00    -0.010 A 
HETATM    4  C3  UNL     1      22.445   0.378  52.575  1.00  0.00     0.026 C 
HETATM    5  C4  UNL     1      23.067  -0.237  53.530  1.00  0.00     0.006 A 
HETATM    6  C5  UNL     1      24.388  -0.320  53.507  1.00  0.00     0.008 A 
HETATM    7  C6  UNL     1      25.185  -0.884  54.535  1.00  0.00     0.034 A 
HETATM    8  C7  UNL     1      24.505  -1.388  55.683  1.00  0.00     0.118 A 
HETATM    9  N1  UNL     1      23.124  -1.285  55.708  1.00  0.00    -0.261 NA
HETATM   10  C8  UNL     1      22.504  -0.727  54.666  1.00  0.00     0.067 A 
HETATM   11  C9  UNL     1      21.158  -0.569  54.867  1.00  0.00     0.048 C 
HETATM   12  C10 UNL     1      20.204   0.103  53.963  1.00  0.00     0.105 A 
HETATM   13  O2  UNL     1      19.700   0.831  52.763  1.00  0.00    -0.371 OA
HETATM   14  C11 UNL     1      20.279   1.814  52.132  1.00  0.00     0.177 C 
HETATM   15  C12 UNL     1      20.695   3.171  52.081  1.00  0.00     0.053 C 
HETATM   16  C13 UNL     1      21.884   3.853  52.012  1.00  0.00     0.174 A 
HETATM   17  C14 UNL     1      23.399   3.653  52.009  1.00  0.00     0.019 A 
HETATM   18  C15 UNL     1      23.327   5.132  51.833  1.00  0.00     0.148 A 
HETATM   19  O3  UNL     1      22.069   5.379  51.827  1.00  0.00    -0.325 OA
HETATM   20  C21 UNL     1      24.628   3.100  52.109  1.00  0.00    -0.000 C 
HETATM   21  C22 UNL     1      24.876   1.686  52.569  1.00  0.00     0.081 C 
HETATM   22  C23 UNL     1      25.484   0.533  52.865  1.00  0.00     0.068 C 
ENDROOT
BRANCH  18  23
HETATM   23  N2  UNL     1      24.219   6.231  51.684  1.00  0.00    -0.360 N 
HETATM   24  H12 UNL     1      24.545   6.484  52.621  1.00  0.00     0.162 HD
BRANCH  23  25
HETATM   25  C16 UNL     1      24.494   6.792  50.395  1.00  0.00     0.139 C 
HETATM   26  C17 UNL     1      24.694   8.299  50.457  1.00  0.00     0.039 C 
BRANCH  25  27
HETATM   27  C18 UNL     1      25.669   6.199  49.729  1.00  0.00     0.097 A 
HETATM   28  N3  UNL     1      26.000   5.006  49.620  1.00  0.00    -0.256 NA
HETATM   29  C19 UNL     1      27.152   4.738  48.957  1.00  0.00     0.124 A 
HETATM   30  C20 UNL     1      27.965   5.894  48.387  1.00  0.00     0.071 A 
HETATM   31  S1  UNL     1      26.884   7.335  48.916  1.00  0.00    -0.083 SA
ENDBRANCH  25  27
ENDBRANCH  23  25
ENDBRANCH  18  23
BRANCH  22  32
HETATM   32  O4  UNL     1      26.802   0.083  52.679  1.00  0.00    -0.325 OA
BRANCH  32  33
HETATM   33  C24 UNL     1      27.833   0.992  52.941  1.00  0.00     0.441 C 
BRANCH  33  34
HETATM   34  N4  UNL     1      28.576   0.524  54.102  1.00  0.00     0.101 N 
HETATM   35  H23 UNL     1      28.471  -0.510  54.127  1.00  0.00     0.315 HD
HETATM   36  H24 UNL     1      29.564   0.852  54.114  1.00  0.00     0.315 HD
ENDBRANCH  33  34
ENDBRANCH  32  33
ENDBRANCH  22  32
TORSDOF 6
ENDMDL
MODEL 2
REMARK VINA RESULT:      -9.5      1.236      1.979
REMARK  6 active torsions:
REMARK  status: ('A' for Active; 'I' for Inactive)
REMARK    1  A    between atoms: C15_18  and  N2_20 
REMARK    2  A    between atoms: N2_20  and  C16_21 
REMARK    3  A    between atoms: C16_21  and  C18_23 
REMARK    4  A    between atoms: C23_30  and  O4_31 
REMARK    5  A    between atoms: O4_31  and  C24_32 
REMARK    6  A    between atoms: C24_32  and  N4_33 
ROOT
HETATM    1  C1  UNL     1      19.264  -1.080  52.953  1.00  0.00     0.056 A 
HETATM    2  O1  UNL     1      19.900   0.087  53.663  1.00  0.00     0.000 OA
HETATM    3  C2  UNL     1      21.240   0.408  53.091  1.00  0.00    -0.010 A 
HETATM    4  C3  UNL     1      22.416   0.561  52.464  1.00  0.00     0.026 C 
HETATM    5  C4  UNL     1      22.975  -0.107  53.423  1.00  0.00     0.006 A 
HETATM    6  C5  UNL     1      24.293  -0.208  53.471  1.00  0.00     0.008 A 
HETATM    7  C6  UNL     1      25.024  -0.830  54.516  1.00  0.00     0.034 A 
HETATM    8  C7  UNL     1      24.272  -1.377  55.598  1.00  0.00     0.118 A 
HETATM    9  N1  UNL     1      22.893  -1.254  55.549  1.00  0.00    -0.261 NA
HETATM   10  C8  UNL     1      22.341  -0.640  54.502  1.00  0.00     0.067 A 
HETATM   11  C9  UNL     1      20.988  -0.471  54.633  1.00  0.00     0.048 C 
HETATM   12  C10 UNL     1      20.095   0.256  53.708  1.00  0.00     0.105 A 
HETATM   13  O2  UNL     1      19.670   1.045  52.517  1.00  0.00    -0.371 OA
HETATM   14  C11 UNL     1      20.296   2.047  51.967  1.00  0.00     0.177 C 
HETATM   15  C12 UNL     1      20.731   3.399  52.002  1.00  0.00     0.053 C 
HETATM   16  C13 UNL     1      21.930   4.066  52.033  1.00  0.00     0.174 A 
HETATM   17  C14 UNL     1      23.440   3.844  52.107  1.00  0.00     0.019 A 
HETATM   18  C15 UNL     1      23.397   5.330  51.996  1.00  0.00     0.148 A 
HETATM   19  O3  UNL     1      22.144   5.596  51.930  1.00  0.00    -0.325 OA
HETATM   20  C21 UNL     1      24.655   3.269  52.251  1.00  0.00    -0.000 C 
HETATM   21  C22 UNL     1      24.858   1.832  52.658  1.00  0.00     0.081 C 
HETATM   22  C23 UNL     1      25.434   0.657  52.933  1.00  0.00     0.068 C 
ENDROOT
BRANCH  18  23
HETATM   23  N2  UNL     1      24.308   6.422  51.949  1.00  0.00    -0.360 N 
HETATM   24  H12 UNL     1      24.473   6.719  52.915  1.00  0.00     0.162 HD
BRANCH  23  25
HETATM   25  C16 UNL     1      24.801   6.923  50.701  1.00  0.00     0.139 C 
HETATM   26  C17 UNL     1      25.607   5.879  49.944  1.00  0.00     0.039 C 
BRANCH  25  27
HETATM   27  C18 UNL     1      23.743   7.427  49.806  1.00  0.00     0.097 A 
HETATM   28  N3  UNL     1      23.046   8.452  49.901  1.00  0.00    -0.256 NA
HETATM   29  C19 UNL     1      22.126   8.670  48.929  1.00  0.00     0.124 A 
HETATM   30  C20 UNL     1      21.999   7.667  47.790  1.00  0.00     0.071 A 
HETATM   31  S1  UNL     1      23.324   6.439  48.297  1.00  0.00    -0.083 SA
ENDBRANCH  25  27
ENDBRANCH  23  25
ENDBRANCH  18  23
BRANCH  22  32
HETATM   32  O4  UNL     1      26.756   0.197  52.802  1.00  0.00    -0.325 OA
BRANCH  32  33
HETATM   33  C24 UNL     1      27.782   1.129  52.996  1.00  0.00     0.441 C 
BRANCH  33  34
HETATM   34  N4  UNL     1      28.043   1.237  54.424  1.00  0.00     0.101 N 
HETATM   35  H23 UNL     1      28.599   2.103  54.561  1.00  0.00     0.315 HD
HETATM   36  H24 UNL     1      27.178   1.189  55.001  1.00  0.00     0.315 HD
ENDBRANCH  33  34
ENDBRANCH  32  33
ENDBRANCH  22  32
TORSDOF 6
ENDMDL
MODEL 3
REMARK VINA RESULT:      -8.6      3.900      8.580
REMARK  6 active torsions:
REMARK  status: ('A' for Active; 'I' for Inactive)
REMARK    1  A    between atoms: C15_18  and  N2_20 
REMARK    2  A    between atoms: N2_20  and  C16_21 
REMARK    3  A    between atoms: C16_21  and  C18_23 
REMARK    4  A    between atoms: C23_30  and  O4_31 
REMARK    5  A    between atoms: O4_31  and  C24_32 
REMARK    6  A    between atoms: C24_32  and  N4_33 
ROOT
HETATM    1  C1  UNL     1      26.615   1.824  52.405  1.00  0.00     0.056 A 
HETATM    2  O1  UNL     1      25.419   1.854  53.322  1.00  0.00     0.000 OA
HETATM    3  C2  UNL     1      24.149   1.649  52.567  1.00  0.00    -0.010 A 
HETATM    4  C3  UNL     1      23.109   1.451  51.743  1.00  0.00     0.026 C 
HETATM    5  C4  UNL     1      22.919   2.732  51.733  1.00  0.00     0.006 A 
HETATM    6  C5  UNL     1      21.846   3.232  51.140  1.00  0.00     0.008 A 
HETATM    7  C6  UNL     1      21.481   4.602  51.141  1.00  0.00     0.034 A 
HETATM    8  C7  UNL     1      22.334   5.502  51.845  1.00  0.00     0.118 A 
HETATM    9  N1  UNL     1      23.447   4.971  52.476  1.00  0.00    -0.261 NA
HETATM   10  C8  UNL     1      23.666   3.657  52.392  1.00  0.00     0.067 A 
HETATM   11  C9  UNL     1      24.721   3.241  53.160  1.00  0.00     0.048 C 
HETATM   12  C10 UNL     1      25.163   1.848  53.372  1.00  0.00     0.105 A 
HETATM   13  O2  UNL     1      25.191   0.363  53.246  1.00  0.00    -0.371 OA
HETATM   14  C11 UNL     1      24.172  -0.450  53.229  1.00  0.00     0.177 C 
HETATM   15  C12 UNL     1      23.095  -1.093  53.897  1.00  0.00     0.053 C 
HETATM   16  C13 UNL     1      21.726  -1.098  53.815  1.00  0.00     0.174 A 
HETATM   17  C14 UNL     1      20.551  -0.450  53.085  1.00  0.00     0.019 A 
HETATM   18  C15 UNL     1      19.821  -1.427  53.942  1.00  0.00     0.148 A 
HETATM   19  O3  UNL     1      20.753  -2.017  54.595  1.00  0.00    -0.325 OA
HETATM   20  C21 UNL     1      19.807   0.371  52.309  1.00  0.00    -0.000 C 
HETATM   21  C22 UNL     1      20.356   1.589  51.611  1.00  0.00     0.081 C 
HETATM   22  C23 UNL     1      20.459   2.667  50.827  1.00  0.00     0.068 C 
ENDROOT
BRANCH  18  23
HETATM   23  N2  UNL     1      18.479  -1.830  54.192  1.00  0.00    -0.360 N 
HETATM   24  H12 UNL     1      18.300  -1.678  55.189  1.00  0.00     0.162 HD
BRANCH  23  25
HETATM   25  C16 UNL     1      17.657  -2.359  53.145  1.00  0.00     0.139 C 
HETATM   26  C17 UNL     1      17.165  -3.763  53.457  1.00  0.00     0.039 C 
BRANCH  25  27
HETATM   27  C18 UNL     1      16.485  -1.519  52.831  1.00  0.00     0.097 A 
HETATM   28  N3  UNL     1      16.279  -0.320  53.082  1.00  0.00    -0.256 NA
HETATM   29  C19 UNL     1      15.094   0.205  52.684  1.00  0.00     0.124 A 
HETATM   30  C20 UNL     1      14.095  -0.688  51.959  1.00  0.00     0.071 A 
HETATM   31  S1  UNL     1      15.063  -2.296  51.937  1.00  0.00    -0.083 SA
ENDBRANCH  25  27
ENDBRANCH  23  25
ENDBRANCH  18  23
BRANCH  22  32
HETATM   32  O4  UNL     1      19.583   3.247  49.894  1.00  0.00    -0.325 OA
BRANCH  32  33
HETATM   33  C24 UNL     1      19.145   2.440  48.837  1.00  0.00     0.441 C 
BRANCH  33  34
HETATM   34  N4  UNL     1      20.292   2.108  48.005  1.00  0.00     0.101 N 
HETATM   35  H23 UNL     1      19.918   1.846  47.072  1.00  0.00     0.315 HD
HETATM   36  H24 UNL     1      21.011   2.861  47.981  1.00  0.00     0.315 HD
ENDBRANCH  33  34
ENDBRANCH  32  33
ENDBRANCH  22  32
TORSDOF 6
ENDMDL
MODEL 4
REMARK VINA RESULT:      -8.4      3.652      7.779
REMARK  6 active torsions:
REMARK  status: ('A' for Active; 'I' for Inactive)
REMARK    1  A    between atoms: C15_18  and  N2_20 
REMARK    2  A    between atoms: N2_20  and  C16_21 
REMARK    3  A    between atoms: C16_21  and  C18_23 
REMARK    4  A    between atoms: C23_30  and  O4_31 
REMARK    5  A    between atoms: O4_31  and  C24_32 
REMARK    6  A    between atoms: C24_32  and  N4_33 
ROOT
HETATM    1  C1  UNL     1      24.172   6.343  51.594  1.00  0.00     0.056 A 
HETATM    2  O1  UNL     1      23.627   5.168  50.824  1.00  0.00     0.000 OA
HETATM    3  C2  UNL     1      23.372   4.002  51.718  1.00  0.00    -0.010 A 
HETATM    4  C3  UNL     1      23.199   3.057  52.655  1.00  0.00     0.026 C 
HETATM    5  C4  UNL     1      24.335   2.547  52.299  1.00  0.00     0.006 A 
HETATM    6  C5  UNL     1      24.724   1.389  52.809  1.00  0.00     0.008 A 
HETATM    7  C6  UNL     1      25.897   0.686  52.431  1.00  0.00     0.034 A 
HETATM    8  C7  UNL     1      26.707   1.273  51.414  1.00  0.00     0.118 A 
HETATM    9  N1  UNL     1      26.286   2.476  50.873  1.00  0.00    -0.261 NA
HETATM   10  C8  UNL     1      25.157   3.024  51.326  1.00  0.00     0.067 A 
HETATM   11  C9  UNL     1      24.786   4.141  50.626  1.00  0.00     0.048 C 
HETATM   12  C10 UNL     1      23.544   4.921  50.802  1.00  0.00     0.105 A 
HETATM   13  O2  UNL     1      22.225   5.329  51.364  1.00  0.00    -0.371 OA
HETATM   14  C11 UNL     1      21.241   4.551  51.718  1.00  0.00     0.177 C 
HETATM   15  C12 UNL     1      20.183   3.666  51.374  1.00  0.00     0.053 C 
HETATM   16  C13 UNL     1      19.877   2.344  51.579  1.00  0.00     0.174 A 
HETATM   17  C14 UNL     1      20.422   1.053  52.186  1.00  0.00     0.019 A 
HETATM   18  C15 UNL     1      19.081   0.586  51.732  1.00  0.00     0.148 A 
HETATM   19  O3  UNL     1      18.556   1.629  51.203  1.00  0.00    -0.325 OA
HETATM   20  C21 UNL     1      21.242   0.133  52.744  1.00  0.00    -0.000 C 
HETATM   21  C22 UNL     1      22.711   0.362  52.991  1.00  0.00     0.081 C 
HETATM   22  C23 UNL     1      23.972   0.196  53.403  1.00  0.00     0.068 C 
ENDROOT
BRANCH  18  23
HETATM   23  N2  UNL     1      18.311  -0.612  51.737  1.00  0.00    -0.360 N 
HETATM   24  H12 UNL     1      18.691  -1.218  51.005  1.00  0.00     0.162 HD
BRANCH  23  25
HETATM   25  C16 UNL     1      17.217  -0.784  52.645  1.00  0.00     0.139 C 
HETATM   26  C17 UNL     1      15.930  -0.172  52.114  1.00  0.00     0.039 C 
BRANCH  25  27
HETATM   27  C18 UNL     1      16.949  -2.194  52.989  1.00  0.00     0.097 A 
HETATM   28  N3  UNL     1      17.650  -3.004  53.618  1.00  0.00    -0.256 NA
HETATM   29  C19 UNL     1      17.159  -4.257  53.781  1.00  0.00     0.124 A 
HETATM   30  C20 UNL     1      15.795  -4.600  53.197  1.00  0.00     0.071 A 
HETATM   31  S1  UNL     1      15.353  -2.946  52.426  1.00  0.00    -0.083 SA
ENDBRANCH  25  27
ENDBRANCH  23  25
ENDBRANCH  18  23
BRANCH  22  32
HETATM   32  O4  UNL     1      24.588  -0.787  54.195  1.00  0.00    -0.325 OA
BRANCH  32  33
HETATM   33  C24 UNL     1      23.911  -1.199  55.349  1.00  0.00     0.441 C 
BRANCH  33  34
HETATM   34  N4  UNL     1      24.893  -1.453  56.393  1.00  0.00     0.101 N 
HETATM   35  H23 UNL     1      25.105  -2.470  56.363  1.00  0.00     0.315 HD
HETATM   36  H24 UNL     1      25.732  -0.840  56.323  1.00  0.00     0.315 HD
ENDBRANCH  33  34
ENDBRANCH  32  33
ENDBRANCH  22  32
TORSDOF 6
ENDMDL
MODEL 5
REMARK VINA RESULT:      -8.4      2.263      4.980
REMARK  6 active torsions:
REMARK  status: ('A' for Active; 'I' for Inactive)
REMARK    1  A    between atoms: C15_18  and  N2_20 
REMARK    2  A    between atoms: N2_20  and  C16_21 
REMARK    3  A    between atoms: C16_21  and  C18_23 
REMARK    4  A    between atoms: C23_30  and  O4_31 
REMARK    5  A    between atoms: O4_31  and  C24_32 
REMARK    6  A    between atoms: C24_32  and  N4_33 
ROOT
HETATM    1  C1  UNL     1      23.156  -1.060  55.072  1.00  0.00     0.056 A 
HETATM    2  O1  UNL     1      23.428  -0.848  53.605  1.00  0.00     0.000 OA
HETATM    3  C2  UNL     1      23.164   0.563  53.200  1.00  0.00    -0.010 A 
HETATM    4  C3  UNL     1      22.884   1.861  53.007  1.00  0.00     0.026 C 
HETATM    5  C4  UNL     1      21.719   1.506  52.565  1.00  0.00     0.006 A 
HETATM    6  C5  UNL     1      20.915   2.413  52.032  1.00  0.00     0.008 A 
HETATM    7  C6  UNL     1      19.660   2.135  51.432  1.00  0.00     0.034 A 
HETATM    8  C7  UNL     1      19.245   0.771  51.395  1.00  0.00     0.118 A 
HETATM    9  N1  UNL     1      20.097  -0.175  51.941  1.00  0.00    -0.261 NA
HETATM   10  C8  UNL     1      21.252   0.233  52.472  1.00  0.00     0.067 A 
HETATM   11  C9  UNL     1      22.057  -0.805  52.861  1.00  0.00     0.048 C 
HETATM   12  C10 UNL     1      23.433  -0.705  53.387  1.00  0.00     0.105 A 
HETATM   13  O2  UNL     1      24.705  -0.078  53.846  1.00  0.00    -0.371 OA
HETATM   14  C11 UNL     1      25.332   0.929  53.305  1.00  0.00     0.177 C 
HETATM   15  C12 UNL     1      26.105   1.475  52.245  1.00  0.00     0.053 C 
HETATM   16  C13 UNL     1      25.952   2.450  51.292  1.00  0.00     0.174 A 
HETATM   17  C14 UNL     1      24.945   3.456  50.736  1.00  0.00     0.019 A 
HETATM   18  C15 UNL     1      26.132   3.777  49.893  1.00  0.00     0.148 A 
HETATM   19  O3  UNL     1      27.031   2.961  50.306  1.00  0.00    -0.325 OA
HETATM   20  C21 UNL     1      23.804   4.135  50.483  1.00  0.00    -0.000 C 
HETATM   21  C22 UNL     1      22.457   3.744  51.035  1.00  0.00     0.081 C 
HETATM   22  C23 UNL     1      21.157   3.760  51.348  1.00  0.00     0.068 C 
ENDROOT
BRANCH  18  23
HETATM   23  N2  UNL     1      26.484   4.674  48.845  1.00  0.00    -0.360 N 
HETATM   24  H12 UNL     1      26.379   4.165  47.963  1.00  0.00     0.162 HD
BRANCH  23  25
HETATM   25  C16 UNL     1      26.911   6.011  49.129  1.00  0.00     0.139 C 
HETATM   26  C17 UNL     1      27.779   6.583  48.018  1.00  0.00     0.039 C 
BRANCH  25  27
HETATM   27  C18 UNL     1      25.799   6.950  49.374  1.00  0.00     0.097 A 
HETATM   28  N3  UNL     1      25.348   7.380  50.449  1.00  0.00    -0.256 NA
HETATM   29  C19 UNL     1      24.298   8.235  50.384  1.00  0.00     0.124 A 
HETATM   30  C20 UNL     1      23.738   8.620  49.021  1.00  0.00     0.071 A 
HETATM   31  S1  UNL     1      24.884   7.626  47.914  1.00  0.00    -0.083 SA
ENDBRANCH  25  27
ENDBRANCH  23  25
ENDBRANCH  18  23
BRANCH  22  32
HETATM   32  O4  UNL     1      20.149   4.719  51.156  1.00  0.00    -0.325 OA
BRANCH  32  33
HETATM   33  C24 UNL     1      20.157   5.425  49.947  1.00  0.00     0.441 C 
BRANCH  33  34
HETATM   34  N4  UNL     1      18.792   5.827  49.640  1.00  0.00     0.101 N 
HETATM   35  H23 UNL     1      18.768   6.054  48.626  1.00  0.00     0.315 HD
HETATM   36  H24 UNL     1      18.083   5.125  49.937  1.00  0.00     0.315 HD
ENDBRANCH  33  34
ENDBRANCH  32  33
ENDBRANCH  22  32
TORSDOF 6
ENDMDL
MODEL 6
REMARK VINA RESULT:      -8.3      3.032      6.401
REMARK  6 active torsions:
REMARK  status: ('A' for Active; 'I' for Inactive)
REMARK    1  A    between atoms: C15_18  and  N2_20 
REMARK    2  A    between atoms: N2_20  and  C16_21 
REMARK    3  A    between atoms: C16_21  and  C18_23 
REMARK    4  A    between atoms: C23_30  and  O4_31 
REMARK    5  A    between atoms: O4_31  and  C24_32 
REMARK    6  A    between atoms: C24_32  and  N4_33 
ROOT
HETATM    1  C1  UNL     1      17.507   2.998  50.384  1.00  0.00     0.056 A 
HETATM    2  O1  UNL     1      18.563   1.959  50.106  1.00  0.00     0.000 OA
HETATM    3  C2  UNL     1      19.921   2.450  50.477  1.00  0.00    -0.010 A 
HETATM    4  C3  UNL     1      21.062   3.041  50.862  1.00  0.00     0.026 C 
HETATM    5  C4  UNL     1      21.280   3.348  49.623  1.00  0.00     0.006 A 
HETATM    6  C5  UNL     1      22.436   3.889  49.273  1.00  0.00     0.008 A 
HETATM    7  C6  UNL     1      22.828   4.182  47.942  1.00  0.00     0.034 A 
HETATM    8  C7  UNL     1      21.904   3.855  46.906  1.00  0.00     0.118 A 
HETATM    9  N1  UNL     1      20.702   3.274  47.276  1.00  0.00    -0.261 NA
HETATM   10  C8  UNL     1      20.468   3.055  48.571  1.00  0.00     0.067 A 
HETATM   11  C9  UNL     1      19.307   2.364  48.796  1.00  0.00     0.048 C 
HETATM   12  C10 UNL     1      18.809   1.873  50.096  1.00  0.00     0.105 A 
HETATM   13  O2  UNL     1      18.766   1.623  51.565  1.00  0.00    -0.371 OA
HETATM   14  C11 UNL     1      19.759   1.291  52.341  1.00  0.00     0.177 C 
HETATM   15  C12 UNL     1      20.717   0.337  52.779  1.00  0.00     0.053 C 
HETATM   16  C13 UNL     1      22.084   0.220  52.785  1.00  0.00     0.174 A 
HETATM   17  C14 UNL     1      23.363   0.917  52.326  1.00  0.00     0.019 A 
HETATM   18  C15 UNL     1      23.944  -0.253  53.045  1.00  0.00     0.148 A 
HETATM   19  O3  UNL     1      22.916  -0.895  53.464  1.00  0.00    -0.325 OA
HETATM   20  C21 UNL     1      24.227   1.761  51.717  1.00  0.00    -0.000 C 
HETATM   21  C22 UNL     1      23.809   2.814  50.723  1.00  0.00     0.081 C 
HETATM   22  C23 UNL     1      23.840   3.850  49.879  1.00  0.00     0.068 C 
ENDROOT
BRANCH  18  23
HETATM   23  N2  UNL     1      25.228  -0.785  53.353  1.00  0.00    -0.360 N 
HETATM   24  H12 UNL     1      25.260  -1.735  52.973  1.00  0.00     0.162 HD
BRANCH  23  25
HETATM   25  C16 UNL     1      26.189  -0.019  54.089  1.00  0.00     0.139 C 
HETATM   26  C17 UNL     1      25.951  -0.092  55.589  1.00  0.00     0.039 C 
BRANCH  25  27
HETATM   27  C18 UNL     1      27.587  -0.411  53.825  1.00  0.00     0.097 A 
HETATM   28  N3  UNL     1      28.042  -1.486  53.400  1.00  0.00    -0.256 NA
HETATM   29  C19 UNL     1      29.387  -1.581  53.261  1.00  0.00     0.124 A 
HETATM   30  C20 UNL     1      30.255  -0.383  53.624  1.00  0.00     0.071 A 
HETATM   31  S1  UNL     1      28.923   0.825  54.161  1.00  0.00    -0.083 SA
ENDBRANCH  25  27
ENDBRANCH  23  25
ENDBRANCH  18  23
BRANCH  22  32
HETATM   32  O4  UNL     1      24.852   4.765  49.541  1.00  0.00    -0.325 OA
BRANCH  32  33
HETATM   33  C24 UNL     1      26.171   4.298  49.554  1.00  0.00     0.441 C 
BRANCH  33  34
HETATM   34  N4  UNL     1      27.065   5.436  49.395  1.00  0.00     0.101 N 
HETATM   35  H23 UNL     1      26.936   5.783  48.425  1.00  0.00     0.315 HD
HETATM   36  H24 UNL     1      26.935   6.162  50.130  1.00  0.00     0.315 HD
ENDBRANCH  33  34
ENDBRANCH  32  33
ENDBRANCH  22  32
TORSDOF 6
ENDMDL
MODEL 7
REMARK VINA RESULT:      -8.2      2.304      4.858
REMARK  6 active torsions:
REMARK  status: ('A' for Active; 'I' for Inactive)
REMARK    1  A    between atoms: C15_18  and  N2_20 
REMARK    2  A    between atoms: N2_20  and  C16_21 
REMARK    3  A    between atoms: C16_21  and  C18_23 
REMARK    4  A    between atoms: C23_30  and  O4_31 
REMARK    5  A    between atoms: O4_31  and  C24_32 
REMARK    6  A    between atoms: C24_32  and  N4_33 
ROOT
HETATM    1  C1  UNL     1      26.410  -0.186  54.615  1.00  0.00     0.056 A 
HETATM    2  O1  UNL     1      25.966  -0.037  53.183  1.00  0.00     0.000 OA
HETATM    3  C2  UNL     1      24.985   1.077  53.030  1.00  0.00    -0.010 A 
HETATM    4  C3  UNL     1      24.122   2.104  53.069  1.00  0.00     0.026 C 
HETATM    5  C4  UNL     1      23.154   1.243  53.101  1.00  0.00     0.006 A 
HETATM    6  C5  UNL     1      21.902   1.659  53.006  1.00  0.00     0.008 A 
HETATM    7  C6  UNL     1      20.766   0.813  52.935  1.00  0.00     0.034 A 
HETATM    8  C7  UNL     1      21.002  -0.594  52.958  1.00  0.00     0.118 A 
HETATM    9  N1  UNL     1      22.316  -1.024  53.042  1.00  0.00    -0.261 NA
HETATM   10  C8  UNL     1      23.287  -0.110  53.100  1.00  0.00     0.067 A 
HETATM   11  C9  UNL     1      24.541  -0.660  53.052  1.00  0.00     0.048 C 
HETATM   12  C10 UNL     1      25.822   0.071  52.992  1.00  0.00     0.105 A 
HETATM   13  O2  UNL     1      26.766   1.225  52.956  1.00  0.00    -0.371 OA
HETATM   14  C11 UNL     1      26.630   2.338  52.292  1.00  0.00     0.177 C 
HETATM   15  C12 UNL     1      26.608   3.045  51.059  1.00  0.00     0.053 C 
HETATM   16  C13 UNL     1      25.690   3.754  50.327  1.00  0.00     0.174 A 
HETATM   17  C14 UNL     1      24.221   4.172  50.300  1.00  0.00     0.019 A 
HETATM   18  C15 UNL     1      24.717   4.874  49.082  1.00  0.00     0.148 A 
HETATM   19  O3  UNL     1      25.961   4.567  49.037  1.00  0.00    -0.325 OA
HETATM   20  C21 UNL     1      22.901   4.270  50.578  1.00  0.00    -0.000 C 
HETATM   21  C22 UNL     1      22.191   3.405  51.587  1.00  0.00     0.081 C 
HETATM   22  C23 UNL     1      21.250   2.900  52.392  1.00  0.00     0.068 C 
ENDROOT
BRANCH  18  23
HETATM   23  N2  UNL     1      24.205   5.719  48.057  1.00  0.00    -0.360 N 
HETATM   24  H12 UNL     1      23.846   5.110  47.316  1.00  0.00     0.162 HD
BRANCH  23  25
HETATM   25  C16 UNL     1      24.274   7.145  48.170  1.00  0.00     0.139 C 
HETATM   26  C17 UNL     1      23.497   7.663  49.370  1.00  0.00     0.039 C 
BRANCH  25  27
HETATM   27  C18 UNL     1      25.652   7.667  48.252  1.00  0.00     0.097 A 
HETATM   28  N3  UNL     1      26.533   7.721  47.378  1.00  0.00    -0.256 NA
HETATM   29  C19 UNL     1      27.731   8.246  47.733  1.00  0.00     0.124 A 
HETATM   30  C20 UNL     1      27.929   8.739  49.161  1.00  0.00     0.071 A 
HETATM   31  S1  UNL     1      26.234   8.356  49.869  1.00  0.00    -0.083 SA
ENDBRANCH  25  27
ENDBRANCH  23  25
ENDBRANCH  18  23
BRANCH  22  32
HETATM   32  O4  UNL     1      19.942   3.314  52.695  1.00  0.00    -0.325 OA
BRANCH  32  33
HETATM   33  C24 UNL     1      19.133   3.717  51.626  1.00  0.00     0.441 C 
BRANCH  33  34
HETATM   34  N4  UNL     1      17.964   2.850  51.581  1.00  0.00     0.101 N 
HETATM   35  H23 UNL     1      17.294   3.216  52.286  1.00  0.00     0.315 HD
HETATM   36  H24 UNL     1      17.566   2.750  50.625  1.00  0.00     0.315 HD
ENDBRANCH  33  34
ENDBRANCH  32  33
ENDBRANCH  22  32
TORSDOF 6
ENDMDL
MODEL 8
REMARK VINA RESULT:      -8.0      2.732      5.342
REMARK  6 active torsions:
REMARK  status: ('A' for Active; 'I' for Inactive)
REMARK    1  A    between atoms: C15_18  and  N2_20 
REMARK    2  A    between atoms: N2_20  and  C16_21 
REMARK    3  A    between atoms: C16_21  and  C18_23 
REMARK    4  A    between atoms: C23_30  and  O4_31 
REMARK    5  A    between atoms: O4_31  and  C24_32 
REMARK    6  A    between atoms: C24_32  and  N4_33 
ROOT
HETATM    1  C1  UNL     1      26.617  -0.049  54.607  1.00  0.00     0.056 A 
HETATM    2  O1  UNL     1      26.135   0.049  53.182  1.00  0.00     0.000 OA
HETATM    3  C2  UNL     1      25.100   1.113  53.030  1.00  0.00    -0.010 A 
HETATM    4  C3  UNL     1      24.191   2.099  53.067  1.00  0.00     0.026 C 
HETATM    5  C4  UNL     1      23.266   1.196  53.138  1.00  0.00     0.006 A 
HETATM    6  C5  UNL     1      21.993   1.552  53.063  1.00  0.00     0.008 A 
HETATM    7  C6  UNL     1      20.897   0.652  53.035  1.00  0.00     0.034 A 
HETATM    8  C7  UNL     1      21.198  -0.742  53.081  1.00  0.00     0.118 A 
HETATM    9  N1  UNL     1      22.533  -1.108  53.144  1.00  0.00    -0.261 NA
HETATM   10  C8  UNL     1      23.461  -0.150  53.161  1.00  0.00     0.067 A 
HETATM   11  C9  UNL     1      24.738  -0.641  53.096  1.00  0.00     0.048 C 
HETATM   12  C10 UNL     1      25.983   0.146  52.993  1.00  0.00     0.105 A 
HETATM   13  O2  UNL     1      26.871   1.341  52.912  1.00  0.00    -0.371 OA
HETATM   14  C11 UNL     1      26.668   2.433  52.229  1.00  0.00     0.177 C 
HETATM   15  C12 UNL     1      26.587   3.111  50.983  1.00  0.00     0.053 C 
HETATM   16  C13 UNL     1      25.621   3.762  50.258  1.00  0.00     0.174 A 
HETATM   17  C14 UNL     1      24.134   4.110  50.256  1.00  0.00     0.019 A 
HETATM   18  C15 UNL     1      24.570   4.809  49.013  1.00  0.00     0.148 A 
HETATM   19  O3  UNL     1      25.826   4.559  48.945  1.00  0.00    -0.325 OA
HETATM   20  C21 UNL     1      22.817   4.153  50.561  1.00  0.00    -0.000 C 
HETATM   21  C22 UNL     1      22.170   3.278  51.603  1.00  0.00     0.081 C 
HETATM   22  C23 UNL     1      21.272   2.748  52.439  1.00  0.00     0.068 C 
ENDROOT
BRANCH  18  23
HETATM   23  N2  UNL     1      23.998   5.607  47.982  1.00  0.00    -0.360 N 
HETATM   24  H12 UNL     1      23.841   4.994  47.178  1.00  0.00     0.162 HD
BRANCH  23  25
HETATM   25  C16 UNL     1      23.765   7.007  48.173  1.00  0.00     0.139 C 
HETATM   26  C17 UNL     1      23.870   7.788  46.873  1.00  0.00     0.039 C 
BRANCH  25  27
HETATM   27  C18 UNL     1      22.459   7.313  48.790  1.00  0.00     0.097 A 
HETATM   28  N3  UNL     1      22.193   8.038  49.763  1.00  0.00    -0.256 NA
HETATM   29  C19 UNL     1      20.891   8.132  50.130  1.00  0.00     0.124 A 
HETATM   30  C20 UNL     1      19.841   7.359  49.342  1.00  0.00     0.071 A 
HETATM   31  S1  UNL     1      20.944   6.529  48.071  1.00  0.00    -0.083 SA
ENDBRANCH  25  27
ENDBRANCH  23  25
ENDBRANCH  18  23
BRANCH  22  32
HETATM   32  O4  UNL     1      19.952   3.107  52.762  1.00  0.00    -0.325 OA
BRANCH  32  33
HETATM   33  C24 UNL     1      19.126   3.529  51.714  1.00  0.00     0.441 C 
BRANCH  33  34
HETATM   34  N4  UNL     1      17.985   2.628  51.635  1.00  0.00     0.101 N 
HETATM   35  H23 UNL     1      18.120   1.910  52.374  1.00  0.00     0.315 HD
HETATM   36  H24 UNL     1      17.071   3.122  51.683  1.00  0.00     0.315 HD
ENDBRANCH  33  34
ENDBRANCH  32  33
ENDBRANCH  22  32
TORSDOF 6
ENDMDL
MODEL 9
REMARK VINA RESULT:      -8.0      4.822      8.632
REMARK  6 active torsions:
REMARK  status: ('A' for Active; 'I' for Inactive)
REMARK    1  A    between atoms: C15_18  and  N2_20 
REMARK    2  A    between atoms: N2_20  and  C16_21 
REMARK    3  A    between atoms: C16_21  and  C18_23 
REMARK    4  A    between atoms: C23_30  and  O4_31 
REMARK    5  A    between atoms: O4_31  and  C24_32 
REMARK    6  A    between atoms: C24_32  and  N4_33 
ROOT
HETATM    1  C1  UNL     1      25.167   0.064  53.160  1.00  0.00     0.056 A 
HETATM    2  O1  UNL     1      23.873   0.778  53.456  1.00  0.00     0.000 OA
HETATM    3  C2  UNL     1      22.933   0.701  52.301  1.00  0.00    -0.010 A 
HETATM    4  C3  UNL     1      22.214   0.536  51.180  1.00  0.00     0.026 C 
HETATM    5  C4  UNL     1      22.585   1.721  50.810  1.00  0.00     0.006 A 
HETATM    6  C5  UNL     1      22.055   2.267  49.727  1.00  0.00     0.008 A 
HETATM    7  C6  UNL     1      22.310   3.587  49.274  1.00  0.00     0.034 A 
HETATM    8  C7  UNL     1      23.197   4.383  50.058  1.00  0.00     0.118 A 
HETATM    9  N1  UNL     1      23.735   3.811  51.198  1.00  0.00    -0.261 NA
HETATM   10  C8  UNL     1      23.405   2.555  51.504  1.00  0.00     0.067 A 
HETATM   11  C9  UNL     1      23.900   2.152  52.716  1.00  0.00     0.048 C 
HETATM   12  C10 UNL     1      23.636   0.867  53.393  1.00  0.00     0.105 A 
HETATM   13  O2  UNL     1      23.084  -0.500  53.619  1.00  0.00    -0.371 OA
HETATM   14  C11 UNL     1      21.880  -0.921  53.351  1.00  0.00     0.177 C 
HETATM   15  C12 UNL     1      20.485  -0.928  53.625  1.00  0.00     0.053 C 
HETATM   16  C13 UNL     1      19.335  -0.555  52.976  1.00  0.00     0.174 A 
HETATM   17  C14 UNL     1      18.823   0.102  51.696  1.00  0.00     0.019 A 
HETATM   18  C15 UNL     1      17.529  -0.234  52.355  1.00  0.00     0.148 A 
HETATM   19  O3  UNL     1      17.882  -0.796  53.453  1.00  0.00    -0.325 OA
HETATM   20  C21 UNL     1      18.764   0.768  50.520  1.00  0.00    -0.000 C 
HETATM   21  C22 UNL     1      19.953   1.428  49.871  1.00  0.00     0.081 C 
HETATM   22  C23 UNL     1      20.730   2.066  48.990  1.00  0.00     0.068 C 
ENDROOT
BRANCH  18  23
HETATM   23  N2  UNL     1      16.135  -0.101  52.098  1.00  0.00    -0.360 N 
HETATM   24  H12 UNL     1      15.767  -1.043  51.937  1.00  0.00     0.162 HD
BRANCH  23  25
HETATM   25  C16 UNL     1      15.506   1.185  52.076  1.00  0.00     0.139 C 
HETATM   26  C17 UNL     1      15.112   1.606  50.668  1.00  0.00     0.039 C 
BRANCH  25  27
HETATM   27  C18 UNL     1      14.310   1.275  52.936  1.00  0.00     0.097 A 
HETATM   28  N3  UNL     1      13.746   0.392  53.604  1.00  0.00    -0.256 NA
HETATM   29  C19 UNL     1      12.642   0.751  54.303  1.00  0.00     0.124 A 
HETATM   30  C20 UNL     1      12.159   2.194  54.236  1.00  0.00     0.071 A 
HETATM   31  S1  UNL     1      13.458   2.911  53.087  1.00  0.00    -0.083 SA
ENDBRANCH  25  27
ENDBRANCH  23  25
ENDBRANCH  18  23
BRANCH  22  32
HETATM   32  O4  UNL     1      20.507   2.501  47.673  1.00  0.00    -0.325 OA
BRANCH  32  33
HETATM   33  C24 UNL     1      19.237   3.007  47.370  1.00  0.00     0.441 C 
BRANCH  33  34
HETATM   34  N4  UNL     1      19.174   4.391  47.815  1.00  0.00     0.101 N 
HETATM   35  H23 UNL     1      19.384   4.982  46.986  1.00  0.00     0.315 HD
HETATM   36  H24 UNL     1      18.279   4.627  48.291  1.00  0.00     0.315 HD
ENDBRANCH  33  34
ENDBRANCH  32  33
ENDBRANCH  22  32
TORSDOF 6
ENDMDL
