MODEL 1
REMARK VINA RESULT:     -10.2      0.000      0.000
REMARK  1 active torsions:
REMARK  status: ('A' for Active; 'I' for Inactive)
REMARK    1  A    between atoms: C12_15  and  C13_16 
ROOT
HETATM    1  O1  UNL     1      16.273  -0.974  52.610  1.00  0.00    -0.291 OA
HETATM    2  C1  UNL     1      16.926  -0.107  51.976  1.00  0.00     0.176 C 
HETATM    3  C2  UNL     1      16.199   0.822  51.075  1.00  0.00     0.086 C 
HETATM    4  C3  UNL     1      17.218   1.739  50.386  1.00  0.00     0.012 C 
HETATM    5  C4  UNL     1      18.354   0.840  49.931  1.00  0.00     0.037 C 
HETATM    6  C5  UNL     1      19.101   0.426  51.136  1.00  0.00    -0.044 A 
HETATM    7  C6  UNL     1      18.369  -0.045  52.147  1.00  0.00     0.081 A 
HETATM    8  N1  UNL     1      19.254  -0.403  53.229  1.00  0.00    -0.356 N 
HETATM    9  C7  UNL     1      20.603  -0.116  52.804  1.00  0.00     0.022 A 
HETATM   10  C8  UNL     1      21.624  -0.360  53.603  1.00  0.00    -0.005 C 
HETATM   11  C9  UNL     1      21.532  -0.930  54.967  1.00  0.00     0.161 C 
HETATM   12  N2  UNL     1      22.862  -1.456  55.170  1.00  0.00    -0.385 N 
HETATM   13  C10 UNL     1      23.809  -0.813  54.328  1.00  0.00     0.040 A 
HETATM   14  C11 UNL     1      25.187  -0.752  54.306  1.00  0.00     0.042 A 
HETATM   15  C12 UNL     1      25.868  -0.037  53.351  1.00  0.00    -0.024 A 
HETATM   16  C19 UNL     1      25.113   0.624  52.406  1.00  0.00     0.013 A 
HETATM   17  C20 UNL     1      23.733   0.565  52.424  1.00  0.00     0.015 A 
HETATM   18  C21 UNL     1      23.052  -0.152  53.382  1.00  0.00     0.000 A 
HETATM   19  C22 UNL     1      20.576   0.448  51.431  1.00  0.00     0.094 A 
HETATM   20  H7  UNL     1      18.880  -0.801  54.134  1.00  0.00     0.166 HD
HETATM   21  H10 UNL     1      23.048  -2.213  55.862  1.00  0.00     0.160 HD
ENDROOT
BRANCH  15  22
HETATM   22  C13 UNL     1      27.323  -0.050  53.435  1.00  0.00    -0.026 A 
HETATM   23  C14 UNL     1      28.018   1.104  53.727  1.00  0.00     0.012 A 
HETATM   24  C15 UNL     1      29.393   1.115  53.812  1.00  0.00     0.001 A 
HETATM   25  C16 UNL     1      30.085  -0.072  53.594  1.00  0.00     0.000 A 
HETATM   26  C17 UNL     1      29.445  -1.275  53.294  1.00  0.00     0.001 A 
HETATM   27  C18 UNL     1      28.071  -1.188  53.232  1.00  0.00     0.012 A 
ENDBRANCH  15  22
TORSDOF 1
ENDMDL
MODEL 2
REMARK VINA RESULT:     -10.0      1.963      2.901
REMARK  1 active torsions:
REMARK  status: ('A' for Active; 'I' for Inactive)
REMARK    1  A    between atoms: C12_15  and  C13_16 
ROOT
HETATM    1  O1  UNL     1      15.614  -0.056  52.434  1.00  0.00    -0.291 OA
HETATM    2  C1  UNL     1      16.376  -1.045  52.582  1.00  0.00     0.176 C 
HETATM    3  C2  UNL     1      15.789  -2.409  52.585  1.00  0.00     0.086 C 
HETATM    4  C3  UNL     1      16.910  -3.428  52.831  1.00  0.00     0.012 C 
HETATM    5  C4  UNL     1      17.746  -2.868  53.967  1.00  0.00     0.037 C 
HETATM    6  C5  UNL     1      18.506  -1.719  53.434  1.00  0.00    -0.044 A 
HETATM    7  C6  UNL     1      17.803  -0.819  52.744  1.00  0.00     0.081 A 
HETATM    8  N1  UNL     1      18.697   0.226  52.307  1.00  0.00    -0.356 N 
HETATM    9  C7  UNL     1      20.019  -0.099  52.785  1.00  0.00     0.022 A 
HETATM   10  C8  UNL     1      21.038   0.700  52.535  1.00  0.00    -0.005 C 
HETATM   11  C9  UNL     1      20.969   1.969  51.773  1.00  0.00     0.161 C 
HETATM   12  N2  UNL     1      22.154   2.662  52.223  1.00  0.00    -0.385 N 
HETATM   13  C10 UNL     1      23.124   1.756  52.731  1.00  0.00     0.040 A 
HETATM   14  C11 UNL     1      24.467   1.857  53.030  1.00  0.00     0.042 A 
HETATM   15  C12 UNL     1      25.184   0.794  53.523  1.00  0.00    -0.024 A 
HETATM   16  C19 UNL     1      24.502  -0.390  53.709  1.00  0.00     0.013 A 
HETATM   17  C20 UNL     1      23.158  -0.495  53.411  1.00  0.00     0.015 A 
HETATM   18  C21 UNL     1      22.441   0.571  52.917  1.00  0.00     0.000 A 
HETATM   19  C22 UNL     1      19.970  -1.383  53.530  1.00  0.00     0.094 A 
HETATM   20  H7  UNL     1      18.344   1.047  51.741  1.00  0.00     0.166 HD
HETATM   21  H10 UNL     1      22.235   3.699  52.161  1.00  0.00     0.160 HD
ENDROOT
BRANCH  15  22
HETATM   22  C13 UNL     1      26.596   1.027  53.801  1.00  0.00    -0.026 A 
HETATM   23  C14 UNL     1      27.323   0.119  54.541  1.00  0.00     0.012 A 
HETATM   24  C15 UNL     1      28.659   0.319  54.814  1.00  0.00     0.001 A 
HETATM   25  C16 UNL     1      29.276   1.467  54.329  1.00  0.00     0.000 A 
HETATM   26  C17 UNL     1      28.600   2.426  53.574  1.00  0.00     0.001 A 
HETATM   27  C18 UNL     1      27.270   2.140  53.351  1.00  0.00     0.012 A 
ENDBRANCH  15  22
TORSDOF 1
ENDMDL
MODEL 3
REMARK VINA RESULT:      -9.7      3.256      9.102
REMARK  1 active torsions:
REMARK  status: ('A' for Active; 'I' for Inactive)
REMARK    1  A    between atoms: C12_15  and  C13_16 
ROOT
HETATM    1  O1  UNL     1      29.044   2.942  53.061  1.00  0.00    -0.291 OA
HETATM    2  C1  UNL     1      28.598   1.849  53.495  1.00  0.00     0.176 C 
HETATM    3  C2  UNL     1      29.521   0.930  54.206  1.00  0.00     0.086 C 
HETATM    4  C3  UNL     1      28.755  -0.344  54.585  1.00  0.00     0.012 C 
HETATM    5  C4  UNL     1      27.957  -0.737  53.355  1.00  0.00     0.037 C 
HETATM    6  C5  UNL     1      26.856   0.237  53.211  1.00  0.00    -0.044 A 
HETATM    7  C6  UNL     1      27.197   1.525  53.284  1.00  0.00     0.081 A 
HETATM    8  N1  UNL     1      26.008   2.326  53.119  1.00  0.00    -0.356 N 
HETATM    9  C7  UNL     1      24.895   1.426  52.937  1.00  0.00     0.022 A 
HETATM   10  C8  UNL     1      23.676   1.895  52.751  1.00  0.00    -0.005 C 
HETATM   11  C9  UNL     1      23.305   3.329  52.707  1.00  0.00     0.161 C 
HETATM   12  N2  UNL     1      22.049   3.299  51.994  1.00  0.00    -0.385 N 
HETATM   13  C10 UNL     1      21.429   2.022  52.087  1.00  0.00     0.040 A 
HETATM   14  C11 UNL     1      20.159   1.551  51.825  1.00  0.00     0.042 A 
HETATM   15  C12 UNL     1      19.822   0.232  52.006  1.00  0.00    -0.024 A 
HETATM   16  C19 UNL     1      20.812  -0.611  52.465  1.00  0.00     0.013 A 
HETATM   17  C20 UNL     1      22.085  -0.143  52.727  1.00  0.00     0.015 A 
HETATM   18  C21 UNL     1      22.421   1.179  52.545  1.00  0.00     0.000 A 
HETATM   19  C22 UNL     1      25.381   0.024  52.998  1.00  0.00     0.094 A 
HETATM   20  H7  UNL     1      26.052   3.382  53.143  1.00  0.00     0.166 HD
HETATM   21  H10 UNL     1      21.687   4.137  51.492  1.00  0.00     0.160 HD
ENDROOT
BRANCH  15  22
HETATM   22  C13 UNL     1      18.449  -0.143  51.695  1.00  0.00    -0.026 A 
HETATM   23  C14 UNL     1      17.875   0.232  50.498  1.00  0.00     0.012 A 
HETATM   24  C15 UNL     1      16.578  -0.111  50.182  1.00  0.00     0.001 A 
HETATM   25  C16 UNL     1      15.842  -0.852  51.100  1.00  0.00     0.000 A 
HETATM   26  C17 UNL     1      16.359  -1.264  52.328  1.00  0.00     0.001 A 
HETATM   27  C18 UNL     1      17.662  -0.875  52.555  1.00  0.00     0.012 A 
ENDBRANCH  15  22
TORSDOF 1
ENDMDL
MODEL 4
REMARK VINA RESULT:      -9.7      2.226      2.715
REMARK  1 active torsions:
REMARK  status: ('A' for Active; 'I' for Inactive)
REMARK    1  A    between atoms: C12_15  and  C13_16 
ROOT
HETATM    1  O1  UNL     1      17.076   4.041  52.056  1.00  0.00    -0.291 OA
HETATM    2  C1  UNL     1      17.448   2.932  51.594  1.00  0.00     0.176 C 
HETATM    3  C2  UNL     1      16.461   2.088  50.874  1.00  0.00     0.086 C 
HETATM    4  C3  UNL     1      17.142   0.777  50.460  1.00  0.00     0.012 C 
HETATM    5  C4  UNL     1      17.927   0.308  51.672  1.00  0.00     0.037 C 
HETATM    6  C5  UNL     1      19.089   1.208  51.823  1.00  0.00    -0.044 A 
HETATM    7  C6  UNL     1      18.828   2.516  51.781  1.00  0.00     0.081 A 
HETATM    8  N1  UNL     1      20.067   3.237  51.948  1.00  0.00    -0.356 N 
HETATM    9  C7  UNL     1      21.123   2.266  52.099  1.00  0.00     0.022 A 
HETATM   10  C8  UNL     1      22.371   2.654  52.280  1.00  0.00    -0.005 C 
HETATM   11  C9  UNL     1      22.832   4.060  52.349  1.00  0.00     0.161 C 
HETATM   12  N2  UNL     1      24.091   3.936  53.046  1.00  0.00    -0.385 N 
HETATM   13  C10 UNL     1      24.628   2.626  52.919  1.00  0.00     0.040 A 
HETATM   14  C11 UNL     1      25.869   2.070  53.156  1.00  0.00     0.042 A 
HETATM   15  C12 UNL     1      26.120   0.736  52.943  1.00  0.00    -0.024 A 
HETATM   16  C19 UNL     1      25.074  -0.033  52.479  1.00  0.00     0.013 A 
HETATM   17  C20 UNL     1      23.831   0.520  52.241  1.00  0.00     0.015 A 
HETATM   18  C21 UNL     1      23.580   1.856  52.455  1.00  0.00     0.000 A 
HETATM   19  C22 UNL     1      20.549   0.899  52.013  1.00  0.00     0.094 A 
HETATM   20  H7  UNL     1      20.089   4.294  51.947  1.00  0.00     0.166 HD
HETATM   21  H10 UNL     1      24.510   4.738  53.562  1.00  0.00     0.160 HD
ENDROOT
BRANCH  15  22
HETATM   22  C13 UNL     1      27.471   0.270  53.230  1.00  0.00    -0.026 A 
HETATM   23  C14 UNL     1      28.426   1.142  53.708  1.00  0.00     0.012 A 
HETATM   24  C15 UNL     1      29.709   0.723  53.987  1.00  0.00     0.001 A 
HETATM   25  C16 UNL     1      30.035  -0.612  53.777  1.00  0.00     0.000 A 
HETATM   26  C17 UNL     1      29.119  -1.548  53.295  1.00  0.00     0.001 A 
HETATM   27  C18 UNL     1      27.863  -1.037  53.046  1.00  0.00     0.012 A 
ENDBRANCH  15  22
TORSDOF 1
ENDMDL
MODEL 5
REMARK VINA RESULT:      -9.6      6.030      9.125
REMARK  1 active torsions:
REMARK  status: ('A' for Active; 'I' for Inactive)
REMARK    1  A    between atoms: C12_15  and  C13_16 
ROOT
HETATM    1  O1  UNL     1      27.281   8.180  46.733  1.00  0.00    -0.291 OA
HETATM    2  C1  UNL     1      27.929   7.392  47.468  1.00  0.00     0.176 C 
HETATM    3  C2  UNL     1      29.411   7.486  47.490  1.00  0.00     0.086 C 
HETATM    4  C3  UNL     1      29.961   6.393  48.415  1.00  0.00     0.012 C 
HETATM    5  C4  UNL     1      29.203   5.124  48.066  1.00  0.00     0.037 C 
HETATM    6  C5  UNL     1      27.826   5.276  48.578  1.00  0.00    -0.044 A 
HETATM    7  C6  UNL     1      27.206   6.417  48.268  1.00  0.00     0.081 A 
HETATM    8  N1  UNL     1      25.882   6.392  48.841  1.00  0.00    -0.356 N 
HETATM    9  C7  UNL     1      25.728   5.136  49.535  1.00  0.00     0.022 A 
HETATM   10  C8  UNL     1      24.598   4.842  50.148  1.00  0.00    -0.005 C 
HETATM   11  C9  UNL     1      23.400   5.711  50.205  1.00  0.00     0.161 C 
HETATM   12  N2  UNL     1      22.349   4.766  50.504  1.00  0.00    -0.385 N 
HETATM   13  C10 UNL     1      22.865   3.593  51.118  1.00  0.00     0.040 A 
HETATM   14  C11 UNL     1      22.297   2.543  51.810  1.00  0.00     0.042 A 
HETATM   15  C12 UNL     1      23.051   1.509  52.310  1.00  0.00    -0.024 A 
HETATM   16  C19 UNL     1      24.411   1.562  52.091  1.00  0.00     0.013 A 
HETATM   17  C20 UNL     1      24.983   2.611  51.399  1.00  0.00     0.015 A 
HETATM   18  C21 UNL     1      24.226   3.646  50.898  1.00  0.00     0.000 A 
HETATM   19  C22 UNL     1      26.983   4.351  49.413  1.00  0.00     0.094 A 
HETATM   20  H7  UNL     1      25.216   7.203  48.715  1.00  0.00     0.166 HD
HETATM   21  H10 UNL     1      21.353   4.969  50.276  1.00  0.00     0.160 HD
ENDROOT
BRANCH  15  22
HETATM   22  C13 UNL     1      22.334   0.459  53.022  1.00  0.00    -0.026 A 
HETATM   23  C14 UNL     1      23.014  -0.438  53.818  1.00  0.00     0.012 A 
HETATM   24  C15 UNL     1      22.357  -1.438  54.501  1.00  0.00     0.001 A 
HETATM   25  C16 UNL     1      20.976  -1.535  54.376  1.00  0.00     0.000 A 
HETATM   26  C17 UNL     1      20.225  -0.662  53.587  1.00  0.00     0.001 A 
HETATM   27  C18 UNL     1      20.968   0.305  52.944  1.00  0.00     0.012 A 
ENDBRANCH  15  22
TORSDOF 1
ENDMDL
MODEL 6
REMARK VINA RESULT:      -9.5      5.460      6.920
REMARK  1 active torsions:
REMARK  status: ('A' for Active; 'I' for Inactive)
REMARK    1  A    between atoms: C12_15  and  C13_16 
ROOT
HETATM    1  O1  UNL     1      20.306   0.890  54.463  1.00  0.00    -0.291 OA
HETATM    2  C1  UNL     1      21.249   0.281  53.896  1.00  0.00     0.176 C 
HETATM    3  C2  UNL     1      21.367  -1.187  54.081  1.00  0.00     0.086 C 
HETATM    4  C3  UNL     1      22.616  -1.679  53.338  1.00  0.00     0.012 C 
HETATM    5  C4  UNL     1      23.722  -0.695  53.678  1.00  0.00     0.037 C 
HETATM    6  C5  UNL     1      23.431   0.563  52.962  1.00  0.00    -0.044 A 
HETATM    7  C6  UNL     1      22.189   1.035  53.084  1.00  0.00     0.081 A 
HETATM    8  N1  UNL     1      22.086   2.261  52.330  1.00  0.00    -0.356 N 
HETATM    9  C7  UNL     1      23.373   2.514  51.727  1.00  0.00     0.022 A 
HETATM   10  C8  UNL     1      23.566   3.587  50.984  1.00  0.00    -0.005 C 
HETATM   11  C9  UNL     1      22.547   4.619  50.683  1.00  0.00     0.161 C 
HETATM   12  N2  UNL     1      23.361   5.755  50.315  1.00  0.00    -0.385 N 
HETATM   13  C10 UNL     1      24.653   5.350  49.880  1.00  0.00     0.040 A 
HETATM   14  C11 UNL     1      25.677   5.977  49.203  1.00  0.00     0.042 A 
HETATM   15  C12 UNL     1      26.853   5.333  48.904  1.00  0.00    -0.024 A 
HETATM   16  C19 UNL     1      26.970   4.021  49.312  1.00  0.00     0.013 A 
HETATM   17  C20 UNL     1      25.946   3.389  49.991  1.00  0.00     0.015 A 
HETATM   18  C21 UNL     1      24.769   4.037  50.289  1.00  0.00     0.000 A 
HETATM   19  C22 UNL     1      24.310   1.422  52.093  1.00  0.00     0.094 A 
HETATM   20  H7  UNL     1      21.181   2.805  52.291  1.00  0.00     0.166 HD
HETATM   21  H10 UNL     1      22.998   6.729  50.379  1.00  0.00     0.160 HD
ENDROOT
BRANCH  15  22
HETATM   22  C13 UNL     1      27.859   6.103  48.185  1.00  0.00    -0.026 A 
HETATM   23  C14 UNL     1      29.177   5.698  48.176  1.00  0.00     0.012 A 
HETATM   24  C15 UNL     1      30.145   6.411  47.502  1.00  0.00     0.001 A 
HETATM   25  C16 UNL     1      29.772   7.564  46.822  1.00  0.00     0.000 A 
HETATM   26  C17 UNL     1      28.458   8.032  46.790  1.00  0.00     0.001 A 
HETATM   27  C18 UNL     1      27.561   7.254  47.490  1.00  0.00     0.012 A 
ENDBRANCH  15  22
TORSDOF 1
ENDMDL
MODEL 7
REMARK VINA RESULT:      -9.3      6.200      7.394
REMARK  1 active torsions:
REMARK  status: ('A' for Active; 'I' for Inactive)
REMARK    1  A    between atoms: C12_15  and  C13_16 
ROOT
HETATM    1  O1  UNL     1      19.702   2.976  52.707  1.00  0.00    -0.291 OA
HETATM    2  C1  UNL     1      20.629   2.178  52.413  1.00  0.00     0.176 C 
HETATM    3  C2  UNL     1      20.470   0.741  52.747  1.00  0.00     0.086 C 
HETATM    4  C3  UNL     1      21.747  -0.005  52.338  1.00  0.00     0.012 C 
HETATM    5  C4  UNL     1      22.906   0.849  52.821  1.00  0.00     0.037 C 
HETATM    6  C5  UNL     1      22.971   2.041  51.951  1.00  0.00    -0.044 A 
HETATM    7  C6  UNL     1      21.821   2.692  51.760  1.00  0.00     0.081 A 
HETATM    8  N1  UNL     1      22.070   3.821  50.897  1.00  0.00    -0.356 N 
HETATM    9  C7  UNL     1      23.475   3.819  50.567  1.00  0.00     0.022 A 
HETATM   10  C8  UNL     1      23.983   4.758  49.792  1.00  0.00    -0.005 C 
HETATM   11  C9  UNL     1      23.225   5.879  49.188  1.00  0.00     0.161 C 
HETATM   12  N2  UNL     1      24.268   6.838  48.907  1.00  0.00    -0.385 N 
HETATM   13  C10 UNL     1      25.538   6.208  48.798  1.00  0.00     0.040 A 
HETATM   14  C11 UNL     1      26.764   6.602  48.306  1.00  0.00     0.042 A 
HETATM   15  C12 UNL     1      27.857   5.769  48.326  1.00  0.00    -0.024 A 
HETATM   16  C19 UNL     1      27.677   4.512  48.863  1.00  0.00     0.013 A 
HETATM   17  C20 UNL     1      26.450   4.114  49.357  1.00  0.00     0.015 A 
HETATM   18  C21 UNL     1      25.357   4.950  49.336  1.00  0.00     0.000 A 
HETATM   19  C22 UNL     1      24.132   2.660  51.221  1.00  0.00     0.094 A 
HETATM   20  H7  UNL     1      21.291   4.477  50.616  1.00  0.00     0.166 HD
HETATM   21  H10 UNL     1      24.060   7.854  48.805  1.00  0.00     0.160 HD
ENDROOT
BRANCH  15  22
HETATM   22  C13 UNL     1      29.097   6.301  47.776  1.00  0.00    -0.026 A 
HETATM   23  C14 UNL     1      29.122   7.544  47.179  1.00  0.00     0.012 A 
HETATM   24  C15 UNL     1      30.283   8.067  46.653  1.00  0.00     0.001 A 
HETATM   25  C16 UNL     1      31.450   7.315  46.732  1.00  0.00     0.000 A 
HETATM   26  C17 UNL     1      31.497   6.051  47.323  1.00  0.00     0.001 A 
HETATM   27  C18 UNL     1      30.288   5.612  47.821  1.00  0.00     0.012 A 
ENDBRANCH  15  22
TORSDOF 1
ENDMDL
MODEL 8
REMARK VINA RESULT:      -9.3      2.835      8.972
REMARK  1 active torsions:
REMARK  status: ('A' for Active; 'I' for Inactive)
REMARK    1  A    between atoms: C12_15  and  C13_16 
ROOT
HETATM    1  O1  UNL     1      27.000   0.961  54.836  1.00  0.00    -0.291 OA
HETATM    2  C1  UNL     1      26.590   1.258  53.684  1.00  0.00     0.176 C 
HETATM    3  C2  UNL     1      27.544   1.854  52.715  1.00  0.00     0.086 C 
HETATM    4  C3  UNL     1      26.793   2.170  51.415  1.00  0.00     0.012 C 
HETATM    5  C4  UNL     1      25.490   2.830  51.831  1.00  0.00     0.037 C 
HETATM    6  C5  UNL     1      24.631   1.783  52.419  1.00  0.00    -0.044 A 
HETATM    7  C6  UNL     1      25.199   1.008  53.345  1.00  0.00     0.081 A 
HETATM    8  N1  UNL     1      24.221   0.054  53.809  1.00  0.00    -0.356 N 
HETATM    9  C7  UNL     1      22.993   0.301  53.095  1.00  0.00     0.022 A 
HETATM   10  C8  UNL     1      21.919  -0.427  53.333  1.00  0.00    -0.005 C 
HETATM   11  C9  UNL     1      21.833  -1.536  54.312  1.00  0.00     0.161 C 
HETATM   12  N2  UNL     1      20.410  -1.626  54.548  1.00  0.00    -0.385 N 
HETATM   13  C10 UNL     1      19.668  -1.075  53.468  1.00  0.00     0.040 A 
HETATM   14  C11 UNL     1      18.345  -1.139  53.083  1.00  0.00     0.042 A 
HETATM   15  C12 UNL     1      17.882  -0.491  51.963  1.00  0.00    -0.024 A 
HETATM   16  C19 UNL     1      18.801   0.232  51.232  1.00  0.00     0.013 A 
HETATM   17  C20 UNL     1      20.126   0.299  51.615  1.00  0.00     0.015 A 
HETATM   18  C21 UNL     1      20.589  -0.351  52.738  1.00  0.00     0.000 A 
HETATM   19  C22 UNL     1      23.194   1.427  52.147  1.00  0.00     0.094 A 
HETATM   20  H7  UNL     1      24.463  -0.661  54.550  1.00  0.00     0.166 HD
HETATM   21  H10 UNL     1      20.029  -2.051  55.419  1.00  0.00     0.160 HD
ENDROOT
BRANCH  15  22
HETATM   22  C13 UNL     1      16.464  -0.635  51.661  1.00  0.00    -0.026 A 
HETATM   23  C14 UNL     1      16.044  -0.878  50.370  1.00  0.00     0.012 A 
HETATM   24  C15 UNL     1      14.708  -1.018  50.062  1.00  0.00     0.001 A 
HETATM   25  C16 UNL     1      13.772  -0.909  51.084  1.00  0.00     0.000 A 
HETATM   26  C17 UNL     1      14.127  -0.665  52.411  1.00  0.00     0.001 A 
HETATM   27  C18 UNL     1      15.484  -0.540  52.623  1.00  0.00     0.012 A 
ENDBRANCH  15  22
TORSDOF 1
ENDMDL
MODEL 9
REMARK VINA RESULT:      -9.1      4.586      5.560
REMARK  1 active torsions:
REMARK  status: ('A' for Active; 'I' for Inactive)
REMARK    1  A    between atoms: C12_15  and  C13_16 
ROOT
HETATM    1  O1  UNL     1      20.676  -2.008  53.953  1.00  0.00    -0.291 OA
HETATM    2  C1  UNL     1      20.191  -1.042  53.311  1.00  0.00     0.176 C 
HETATM    3  C2  UNL     1      18.715  -0.898  53.240  1.00  0.00     0.086 C 
HETATM    4  C3  UNL     1      18.380   0.316  52.364  1.00  0.00     0.012 C 
HETATM    5  C4  UNL     1      19.276   0.214  51.142  1.00  0.00     0.037 C 
HETATM    6  C5  UNL     1      20.651   0.535  51.574  1.00  0.00    -0.044 A 
HETATM    7  C6  UNL     1      21.091  -0.104  52.660  1.00  0.00     0.081 A 
HETATM    8  N1  UNL     1      22.442   0.324  52.931  1.00  0.00    -0.356 N 
HETATM    9  C7  UNL     1      22.808   1.284  51.919  1.00  0.00     0.022 A 
HETATM   10  C8  UNL     1      24.007   1.836  51.920  1.00  0.00    -0.005 C 
HETATM   11  C9  UNL     1      25.079   1.559  52.905  1.00  0.00     0.161 C 
HETATM   12  N2  UNL     1      26.265   1.975  52.191  1.00  0.00    -0.385 N 
HETATM   13  C10 UNL     1      25.953   2.906  51.163  1.00  0.00     0.040 A 
HETATM   14  C11 UNL     1      26.702   3.773  50.395  1.00  0.00     0.042 A 
HETATM   15  C12 UNL     1      26.129   4.583  49.445  1.00  0.00    -0.024 A 
HETATM   16  C19 UNL     1      24.762   4.493  49.286  1.00  0.00     0.013 A 
HETATM   17  C20 UNL     1      24.009   3.626  50.053  1.00  0.00     0.015 A 
HETATM   18  C21 UNL     1      24.585   2.815  51.005  1.00  0.00     0.000 A 
HETATM   19  C22 UNL     1      21.665   1.483  50.992  1.00  0.00     0.094 A 
HETATM   20  H7  UNL     1      22.983  -0.062  53.753  1.00  0.00     0.166 HD
HETATM   21  H10 UNL     1      27.207   1.607  52.440  1.00  0.00     0.160 HD
ENDROOT
BRANCH  15  22
HETATM   22  C13 UNL     1      27.026   5.455  48.699  1.00  0.00    -0.026 A 
HETATM   23  C14 UNL     1      28.346   5.104  48.507  1.00  0.00     0.012 A 
HETATM   24  C15 UNL     1      29.213   5.913  47.805  1.00  0.00     0.001 A 
HETATM   25  C16 UNL     1      28.733   7.109  47.283  1.00  0.00     0.000 A 
HETATM   26  C17 UNL     1      27.411   7.526  47.439  1.00  0.00     0.001 A 
HETATM   27  C18 UNL     1      26.620   6.653  48.154  1.00  0.00     0.012 A 
ENDBRANCH  15  22
TORSDOF 1
ENDMDL
