MODEL 1
REMARK VINA RESULT:      -9.6      0.000      0.000
REMARK  0 active torsions:
REMARK  status: ('A' for Active; 'I' for Inactive)
ROOT
HETATM    1  C1  UNL     1      21.648  -0.708  54.670  1.00  0.00     0.013 C 
HETATM    2  C2  UNL     1      22.626  -0.048  53.814  1.00  0.00    -0.023 C 
HETATM    3  C3  UNL     1      23.742  -0.766  54.195  1.00  0.00     0.057 C 
HETATM    4  C4  UNL     1      25.176  -0.826  53.892  1.00  0.00    -0.024 C 
HETATM    5  C5  UNL     1      26.396  -0.571  53.357  1.00  0.00    -0.023 C 
HETATM    6  C6  UNL     1      27.161   0.272  52.409  1.00  0.00     0.107 C 
HETATM    7  C7  UNL     1      26.466   1.331  51.710  1.00  0.00     0.132 A 
HETATM    8  N1  UNL     1      25.215   1.057  51.929  1.00  0.00    -0.213 NA
HETATM    9  C8  UNL     1      24.217   1.750  51.506  1.00  0.00     0.165 A 
HETATM   10  C9  UNL     1      24.473   2.870  50.762  1.00  0.00     0.153 A 
HETATM   11  O1  UNL     1      23.601   3.722  50.227  1.00  0.00    -0.285 OA
HETATM   12  C10 UNL     1      24.324   4.653  49.591  1.00  0.00     0.182 A 
HETATM   13  N2  UNL     1      24.112   5.760  48.867  1.00  0.00    -0.236 NA
HETATM   14  C11 UNL     1      25.066   6.532  48.328  1.00  0.00     0.119 A 
HETATM   15  C12 UNL     1      26.393   6.206  48.502  1.00  0.00     0.020 A 
HETATM   16  C13 UNL     1      26.751   5.071  49.240  1.00  0.00     0.020 A 
HETATM   17  C14 UNL     1      25.685   4.354  49.745  1.00  0.00     0.049 A 
HETATM   18  C15 UNL     1      25.777   3.214  50.494  1.00  0.00     0.111 A 
HETATM   19  N3  UNL     1      26.771   2.416  50.987  1.00  0.00    -0.229 NA
HETATM   20  N4  UNL     1      22.896   1.372  51.809  1.00  0.00    -0.354 N 
HETATM   21  C16 UNL     1      22.191   1.274  50.539  1.00  0.00     0.151 C 
HETATM   22  C17 UNL     1      20.904   2.047  50.654  1.00  0.00     0.187 C 
HETATM   23  O2  UNL     1      20.098   1.380  51.528  1.00  0.00    -0.387 OA
HETATM   24  C18 UNL     1      20.693   0.548  52.430  1.00  0.00     0.193 C 
HETATM   25  C19 UNL     1      21.980   1.050  52.929  1.00  0.00     0.114 C 
ENDROOT
TORSDOF 0
ENDMDL
MODEL 2
REMARK VINA RESULT:      -9.6      2.222      4.992
REMARK  0 active torsions:
REMARK  status: ('A' for Active; 'I' for Inactive)
ROOT
HETATM    1  C1  UNL     1      19.494   3.555  51.619  1.00  0.00     0.013 C 
HETATM    2  C2  UNL     1      20.629   2.750  52.054  1.00  0.00    -0.023 C 
HETATM    3  C3  UNL     1      19.930   1.656  52.521  1.00  0.00     0.057 C 
HETATM    4  C4  UNL     1      20.198   0.353  53.140  1.00  0.00    -0.024 C 
HETATM    5  C5  UNL     1      20.838  -0.716  53.677  1.00  0.00    -0.023 C 
HETATM    6  C6  UNL     1      22.152  -1.298  54.036  1.00  0.00     0.107 C 
HETATM    7  C7  UNL     1      23.343  -0.505  53.818  1.00  0.00     0.132 A 
HETATM    8  N1  UNL     1      22.916   0.466  53.068  1.00  0.00    -0.213 NA
HETATM    9  C8  UNL     1      23.635   1.439  52.630  1.00  0.00     0.165 A 
HETATM   10  C9  UNL     1      24.960   1.471  52.971  1.00  0.00     0.153 A 
HETATM   11  O1  UNL     1      25.878   2.373  52.630  1.00  0.00    -0.285 OA
HETATM   12  C10 UNL     1      27.025   1.979  53.199  1.00  0.00     0.182 A 
HETATM   13  N2  UNL     1      28.297   2.393  53.273  1.00  0.00    -0.236 NA
HETATM   14  C11 UNL     1      29.279   1.773  53.943  1.00  0.00     0.119 A 
HETATM   15  C12 UNL     1      29.013   0.610  54.632  1.00  0.00     0.020 A 
HETATM   16  C13 UNL     1      27.721   0.070  54.635  1.00  0.00     0.020 A 
HETATM   17  C14 UNL     1      26.794   0.793  53.910  1.00  0.00     0.049 A 
HETATM   18  C15 UNL     1      25.475   0.471  53.763  1.00  0.00     0.111 A 
HETATM   19  N3  UNL     1      24.632  -0.521  54.180  1.00  0.00    -0.229 NA
HETATM   20  N4  UNL     1      23.072   2.450  51.830  1.00  0.00    -0.354 N 
HETATM   21  C16 UNL     1      23.876   2.515  50.617  1.00  0.00     0.151 C 
HETATM   22  C17 UNL     1      24.244   3.955  50.375  1.00  0.00     0.187 C 
HETATM   23  O2  UNL     1      23.102   4.623  50.047  1.00  0.00    -0.387 OA
HETATM   24  C18 UNL     1      21.915   4.089  50.454  1.00  0.00     0.193 C 
HETATM   25  C19 UNL     1      21.983   3.454  51.777  1.00  0.00     0.114 C 
ENDROOT
TORSDOF 0
ENDMDL
MODEL 3
REMARK VINA RESULT:      -9.4      2.371      6.354
REMARK  0 active torsions:
REMARK  status: ('A' for Active; 'I' for Inactive)
ROOT
HETATM    1  C1  UNL     1      26.788   1.570  51.863  1.00  0.00     0.013 C 
HETATM    2  C2  UNL     1      25.529   1.056  52.390  1.00  0.00    -0.023 C 
HETATM    3  C3  UNL     1      26.033   0.373  53.479  1.00  0.00     0.057 C 
HETATM    4  C4  UNL     1      25.546  -0.449  54.592  1.00  0.00    -0.024 C 
HETATM    5  C5  UNL     1      24.732  -1.132  55.435  1.00  0.00    -0.023 C 
HETATM    6  C6  UNL     1      23.334  -1.525  55.731  1.00  0.00     0.107 C 
HETATM    7  C7  UNL     1      22.292  -1.117  54.813  1.00  0.00     0.132 A 
HETATM    8  N1  UNL     1      22.884  -0.231  54.071  1.00  0.00    -0.213 NA
HETATM    9  C8  UNL     1      22.340   0.403  53.092  1.00  0.00     0.165 A 
HETATM   10  C9  UNL     1      21.032   0.135  52.793  1.00  0.00     0.153 A 
HETATM   11  O1  UNL     1      20.279   0.670  51.835  1.00  0.00    -0.285 OA
HETATM   12  C10 UNL     1      19.073   0.096  51.936  1.00  0.00     0.182 A 
HETATM   13  N2  UNL     1      17.883   0.155  51.323  1.00  0.00    -0.236 NA
HETATM   14  C11 UNL     1      16.801  -0.566  51.651  1.00  0.00     0.119 A 
HETATM   15  C12 UNL     1      16.863  -1.457  52.700  1.00  0.00     0.020 A 
HETATM   16  C13 UNL     1      18.050  -1.615  53.425  1.00  0.00     0.020 A 
HETATM   17  C14 UNL     1      19.095  -0.820  52.997  1.00  0.00     0.049 A 
HETATM   18  C15 UNL     1      20.348  -0.793  53.543  1.00  0.00     0.111 A 
HETATM   19  N3  UNL     1      21.011  -1.416  54.563  1.00  0.00    -0.229 NA
HETATM   20  N4  UNL     1      23.075   1.339  52.341  1.00  0.00    -0.354 N 
HETATM   21  C16 UNL     1      22.314   2.581  52.369  1.00  0.00     0.151 C 
HETATM   22  C17 UNL     1      22.188   3.087  50.956  1.00  0.00     0.187 C 
HETATM   23  O2  UNL     1      23.429   3.472  50.544  1.00  0.00    -0.387 OA
HETATM   24  C18 UNL     1      24.507   2.923  51.176  1.00  0.00     0.193 C 
HETATM   25  C19 UNL     1      24.312   1.514  51.544  1.00  0.00     0.114 C 
ENDROOT
TORSDOF 0
ENDMDL
MODEL 4
REMARK VINA RESULT:      -9.3      1.938      3.870
REMARK  0 active torsions:
REMARK  status: ('A' for Active; 'I' for Inactive)
ROOT
HETATM    1  C1  UNL     1      22.300  -1.555  54.163  1.00  0.00     0.013 C 
HETATM    2  C2  UNL     1      22.542  -0.285  53.490  1.00  0.00    -0.023 C 
HETATM    3  C3  UNL     1      21.262   0.226  53.564  1.00  0.00     0.057 C 
HETATM    4  C4  UNL     1      20.527   1.432  53.165  1.00  0.00    -0.024 C 
HETATM    5  C5  UNL     1      20.222   2.648  52.648  1.00  0.00    -0.023 C 
HETATM    6  C6  UNL     1      20.742   3.834  51.928  1.00  0.00     0.107 C 
HETATM    7  C7  UNL     1      22.124   3.830  51.498  1.00  0.00     0.132 A 
HETATM    8  N1  UNL     1      22.630   2.823  52.143  1.00  0.00    -0.213 NA
HETATM    9  C8  UNL     1      23.850   2.423  52.060  1.00  0.00     0.165 A 
HETATM   10  C9  UNL     1      24.700   3.102  51.228  1.00  0.00     0.153 A 
HETATM   11  O1  UNL     1      25.988   2.865  50.994  1.00  0.00    -0.285 OA
HETATM   12  C10 UNL     1      26.390   3.791  50.114  1.00  0.00     0.182 A 
HETATM   13  N2  UNL     1      27.511   4.135  49.466  1.00  0.00    -0.236 NA
HETATM   14  C11 UNL     1      27.630   5.155  48.604  1.00  0.00     0.119 A 
HETATM   15  C12 UNL     1      26.540   5.949  48.324  1.00  0.00     0.020 A 
HETATM   16  C13 UNL     1      25.306   5.696  48.936  1.00  0.00     0.020 A 
HETATM   17  C14 UNL     1      25.304   4.621  49.804  1.00  0.00     0.049 A 
HETATM   18  C15 UNL     1      24.225   4.179  50.517  1.00  0.00     0.111 A 
HETATM   19  N3  UNL     1      22.913   4.528  50.671  1.00  0.00    -0.229 NA
HETATM   20  N4  UNL     1      24.298   1.310  52.796  1.00  0.00    -0.354 N 
HETATM   21  C16 UNL     1      25.457   1.755  53.556  1.00  0.00     0.151 C 
HETATM   22  C17 UNL     1      26.569   0.764  53.341  1.00  0.00     0.187 C 
HETATM   23  O2  UNL     1      26.207  -0.402  53.948  1.00  0.00    -0.387 OA
HETATM   24  C18 UNL     1      24.877  -0.622  54.154  1.00  0.00     0.193 C 
HETATM   25  C19 UNL     1      24.025  -0.121  53.067  1.00  0.00     0.114 C 
ENDROOT
TORSDOF 0
ENDMDL
MODEL 5
REMARK VINA RESULT:      -9.2      2.885      5.206
REMARK  0 active torsions:
REMARK  status: ('A' for Active; 'I' for Inactive)
ROOT
HETATM    1  C1  UNL     1      18.634   0.340  51.941  1.00  0.00     0.013 C 
HETATM    2  C2  UNL     1      19.987   0.834  52.168  1.00  0.00    -0.023 C 
HETATM    3  C3  UNL     1      19.798   2.134  51.744  1.00  0.00     0.057 C 
HETATM    4  C4  UNL     1      20.569   3.373  51.598  1.00  0.00    -0.024 C 
HETATM    5  C5  UNL     1      21.584   4.273  51.610  1.00  0.00    -0.023 C 
HETATM    6  C6  UNL     1      23.016   4.494  51.919  1.00  0.00     0.107 C 
HETATM    7  C7  UNL     1      23.806   3.371  52.376  1.00  0.00     0.132 A 
HETATM    8  N1  UNL     1      22.909   2.475  52.658  1.00  0.00    -0.213 NA
HETATM    9  C8  UNL     1      23.153   1.288  53.091  1.00  0.00     0.165 A 
HETATM   10  C9  UNL     1      24.459   0.921  53.277  1.00  0.00     0.153 A 
HETATM   11  O1  UNL     1      24.934  -0.242  53.715  1.00  0.00    -0.285 OA
HETATM   12  C10 UNL     1      26.268  -0.125  53.729  1.00  0.00     0.182 A 
HETATM   13  N2  UNL     1      27.334  -0.873  54.044  1.00  0.00    -0.236 NA
HETATM   14  C11 UNL     1      28.613  -0.481  53.958  1.00  0.00     0.119 A 
HETATM   15  C12 UNL     1      28.914   0.788  53.516  1.00  0.00     0.020 A 
HETATM   16  C13 UNL     1      27.890   1.672  53.155  1.00  0.00     0.020 A 
HETATM   17  C14 UNL     1      26.615   1.159  53.285  1.00  0.00     0.049 A 
HETATM   18  C15 UNL     1      25.457   1.825  52.996  1.00  0.00     0.111 A 
HETATM   19  N3  UNL     1      25.099   3.063  52.539  1.00  0.00    -0.229 NA
HETATM   20  N4  UNL     1      22.106   0.387  53.358  1.00  0.00    -0.354 N 
HETATM   21  C16 UNL     1      22.286  -0.062  54.732  1.00  0.00     0.151 C 
HETATM   22  C17 UNL     1      22.206  -1.566  54.748  1.00  0.00     0.187 C 
HETATM   23  O2  UNL     1      20.922  -1.914  54.455  1.00  0.00    -0.387 OA
HETATM   24  C18 UNL     1      20.160  -1.013  53.770  1.00  0.00     0.193 C 
HETATM   25  C19 UNL     1      20.915  -0.260  52.759  1.00  0.00     0.114 C 
ENDROOT
TORSDOF 0
ENDMDL
MODEL 6
REMARK VINA RESULT:      -9.1      2.303      6.297
REMARK  0 active torsions:
REMARK  status: ('A' for Active; 'I' for Inactive)
ROOT
HETATM    1  C1  UNL     1      28.060   2.433  53.488  1.00  0.00     0.013 C 
HETATM    2  C2  UNL     1      26.763   2.159  52.880  1.00  0.00    -0.023 C 
HETATM    3  C3  UNL     1      26.934   2.875  51.713  1.00  0.00     0.057 C 
HETATM    4  C4  UNL     1      26.188   3.195  50.491  1.00  0.00    -0.024 C 
HETATM    5  C5  UNL     1      25.210   3.258  49.552  1.00  0.00    -0.023 C 
HETATM    6  C6  UNL     1      23.838   2.835  49.189  1.00  0.00     0.107 C 
HETATM    7  C7  UNL     1      23.080   2.054  50.142  1.00  0.00     0.132 A 
HETATM    8  N1  UNL     1      23.978   1.692  51.007  1.00  0.00    -0.213 NA
HETATM    9  C8  UNL     1      23.757   0.985  52.059  1.00  0.00     0.165 A 
HETATM   10  C9  UNL     1      22.476   0.569  52.303  1.00  0.00     0.153 A 
HETATM   11  O1  UNL     1      22.026  -0.165  53.318  1.00  0.00    -0.285 OA
HETATM   12  C10 UNL     1      20.709  -0.313  53.124  1.00  0.00     0.182 A 
HETATM   13  N2  UNL     1      19.671  -0.909  53.726  1.00  0.00    -0.236 NA
HETATM   14  C11 UNL     1      18.404  -0.893  53.289  1.00  0.00     0.119 A 
HETATM   15  C12 UNL     1      18.086  -0.224  52.127  1.00  0.00     0.020 A 
HETATM   16  C13 UNL     1      19.082   0.441  51.400  1.00  0.00     0.020 A 
HETATM   17  C14 UNL     1      20.347   0.355  51.946  1.00  0.00     0.049 A 
HETATM   18  C15 UNL     1      21.477   0.918  51.424  1.00  0.00     0.111 A 
HETATM   19  N3  UNL     1      21.810   1.674  50.334  1.00  0.00    -0.229 NA
HETATM   20  N4  UNL     1      24.802   0.655  52.941  1.00  0.00    -0.354 N 
HETATM   21  C16 UNL     1      24.788  -0.795  53.078  1.00  0.00     0.151 C 
HETATM   22  C17 UNL     1      24.824  -1.129  54.545  1.00  0.00     0.187 C 
HETATM   23  O2  UNL     1      26.049  -0.767  55.021  1.00  0.00    -0.387 OA
HETATM   24  C18 UNL     1      26.742   0.184  54.331  1.00  0.00     0.193 C 
HETATM   25  C19 UNL     1      25.886   1.237  53.768  1.00  0.00     0.114 C 
ENDROOT
TORSDOF 0
ENDMDL
MODEL 7
REMARK VINA RESULT:      -8.8      1.897      4.669
REMARK  0 active torsions:
REMARK  status: ('A' for Active; 'I' for Inactive)
ROOT
HETATM    1  C1  UNL     1      27.260  -0.450  53.714  1.00  0.00     0.013 C 
HETATM    2  C2  UNL     1      25.968  -0.046  53.174  1.00  0.00    -0.023 C 
HETATM    3  C3  UNL     1      25.159  -0.707  54.076  1.00  0.00     0.057 C 
HETATM    4  C4  UNL     1      23.730  -0.901  54.346  1.00  0.00    -0.024 C 
HETATM    5  C5  UNL     1      22.378  -0.839  54.260  1.00  0.00    -0.023 C 
HETATM    6  C6  UNL     1      21.227  -0.294  53.502  1.00  0.00     0.107 C 
HETATM    7  C7  UNL     1      21.491   0.489  52.313  1.00  0.00     0.132 A 
HETATM    8  N1  UNL     1      22.764   0.733  52.397  1.00  0.00    -0.213 NA
HETATM    9  C8  UNL     1      23.453   1.396  51.536  1.00  0.00     0.165 A 
HETATM   10  C9  UNL     1      22.810   1.893  50.435  1.00  0.00     0.153 A 
HETATM   11  O1  UNL     1      23.321   2.602  49.431  1.00  0.00    -0.285 OA
HETATM   12  C10 UNL     1      22.307   2.860  48.595  1.00  0.00     0.182 A 
HETATM   13  N2  UNL     1      22.107   3.497  47.434  1.00  0.00    -0.236 NA
HETATM   14  C11 UNL     1      20.933   3.602  46.796  1.00  0.00     0.119 A 
HETATM   15  C12 UNL     1      19.804   3.024  47.334  1.00  0.00     0.020 A 
HETATM   16  C13 UNL     1      19.877   2.327  48.546  1.00  0.00     0.020 A 
HETATM   17  C14 UNL     1      21.137   2.286  49.111  1.00  0.00     0.049 A 
HETATM   18  C15 UNL     1      21.460   1.669  50.287  1.00  0.00     0.111 A 
HETATM   19  N3  UNL     1      20.814   0.953  51.255  1.00  0.00    -0.229 NA
HETATM   20  N4  UNL     1      24.834   1.596  51.716  1.00  0.00    -0.354 N 
HETATM   21  C16 UNL     1      25.058   3.033  51.640  1.00  0.00     0.151 C 
HETATM   22  C17 UNL     1      26.191   3.282  50.681  1.00  0.00     0.187 C 
HETATM   23  O2  UNL     1      27.331   2.803  51.255  1.00  0.00    -0.387 OA
HETATM   24  C18 UNL     1      27.202   1.842  52.215  1.00  0.00     0.193 C 
HETATM   25  C19 UNL     1      26.116   0.889  51.946  1.00  0.00     0.114 C 
ENDROOT
TORSDOF 0
ENDMDL
MODEL 8
REMARK VINA RESULT:      -8.8      2.218      5.802
REMARK  0 active torsions:
REMARK  status: ('A' for Active; 'I' for Inactive)
ROOT
HETATM    1  C1  UNL     1      21.683   6.415  50.366  1.00  0.00     0.013 C 
HETATM    2  C2  UNL     1      22.299   5.219  50.929  1.00  0.00    -0.023 C 
HETATM    3  C3  UNL     1      21.147   4.574  51.332  1.00  0.00     0.057 C 
HETATM    4  C4  UNL     1      20.752   3.324  51.991  1.00  0.00    -0.024 C 
HETATM    5  C5  UNL     1      20.799   2.115  52.606  1.00  0.00    -0.023 C 
HETATM    6  C6  UNL     1      21.679   1.036  53.110  1.00  0.00     0.107 C 
HETATM    7  C7  UNL     1      23.113   1.210  53.011  1.00  0.00     0.132 A 
HETATM    8  N1  UNL     1      23.231   2.224  52.209  1.00  0.00    -0.213 NA
HETATM    9  C8  UNL     1      24.344   2.754  51.839  1.00  0.00     0.165 A 
HETATM   10  C9  UNL     1      25.508   2.219  52.320  1.00  0.00     0.153 A 
HETATM   11  O1  UNL     1      26.758   2.603  52.069  1.00  0.00    -0.285 OA
HETATM   12  C10 UNL     1      27.554   1.779  52.762  1.00  0.00     0.182 A 
HETATM   13  N2  UNL     1      28.865   1.593  52.966  1.00  0.00    -0.236 NA
HETATM   14  C11 UNL     1      29.404   0.645  53.745  1.00  0.00     0.119 A 
HETATM   15  C12 UNL     1      28.589  -0.241  54.415  1.00  0.00     0.020 A 
HETATM   16  C13 UNL     1      27.197  -0.155  54.286  1.00  0.00     0.020 A 
HETATM   17  C14 UNL     1      26.757   0.859  53.458  1.00  0.00     0.049 A 
HETATM   18  C15 UNL     1      25.451   1.142  53.174  1.00  0.00     0.111 A 
HETATM   19  N3  UNL     1      24.222   0.649  53.510  1.00  0.00    -0.229 NA
HETATM   20  N4  UNL     1      24.363   3.862  50.972  1.00  0.00    -0.354 N 
HETATM   21  C16 UNL     1      25.219   3.496  49.852  1.00  0.00     0.151 C 
HETATM   22  C17 UNL     1      26.209   4.609  49.633  1.00  0.00     0.187 C 
HETATM   23  O2  UNL     1      25.517   5.692  49.177  1.00  0.00    -0.387 OA
HETATM   24  C18 UNL     1      24.185   5.759  49.461  1.00  0.00     0.193 C 
HETATM   25  C19 UNL     1      23.844   5.238  50.791  1.00  0.00     0.114 C 
ENDROOT
TORSDOF 0
ENDMDL
MODEL 9
REMARK VINA RESULT:      -8.6      1.957      5.769
REMARK  0 active torsions:
REMARK  status: ('A' for Active; 'I' for Inactive)
ROOT
HETATM    1  C1  UNL     1      20.944   6.435  48.187  1.00  0.00     0.013 C 
HETATM    2  C2  UNL     1      22.091   5.749  48.772  1.00  0.00    -0.023 C 
HETATM    3  C3  UNL     1      23.091   6.470  48.152  1.00  0.00     0.057 C 
HETATM    4  C4  UNL     1      24.557   6.516  48.107  1.00  0.00    -0.024 C 
HETATM    5  C5  UNL     1      25.867   6.241  48.331  1.00  0.00    -0.023 C 
HETATM    6  C6  UNL     1      26.826   5.372  49.052  1.00  0.00     0.107 C 
HETATM    7  C7  UNL     1      26.304   4.300  49.873  1.00  0.00     0.132 A 
HETATM    8  N1  UNL     1      25.041   4.585  49.963  1.00  0.00    -0.213 NA
HETATM    9  C8  UNL     1      24.164   3.887  50.595  1.00  0.00     0.165 A 
HETATM   10  C9  UNL     1      24.577   2.749  51.232  1.00  0.00     0.153 A 
HETATM   11  O1  UNL     1      23.848   1.889  51.940  1.00  0.00    -0.285 OA
HETATM   12  C10 UNL     1      24.691   0.939  52.366  1.00  0.00     0.182 A 
HETATM   13  N2  UNL     1      24.645  -0.184  53.095  1.00  0.00    -0.236 NA
HETATM   14  C11 UNL     1      25.692  -0.974  53.375  1.00  0.00     0.119 A 
HETATM   15  C12 UNL     1      26.943  -0.651  52.898  1.00  0.00     0.020 A 
HETATM   16  C13 UNL     1      27.127   0.500  52.121  1.00  0.00     0.020 A 
HETATM   17  C14 UNL     1      25.979   1.235  51.900  1.00  0.00     0.049 A 
HETATM   18  C15 UNL     1      25.904   2.391  51.176  1.00  0.00     0.111 A 
HETATM   19  N3  UNL     1      26.761   3.196  50.478  1.00  0.00    -0.229 NA
HETATM   20  N4  UNL     1      22.813   4.279  50.623  1.00  0.00    -0.354 N 
HETATM   21  C16 UNL     1      22.431   4.351  52.027  1.00  0.00     0.151 C 
HETATM   22  C17 UNL     1      21.145   3.587  52.204  1.00  0.00     0.187 C 
HETATM   23  O2  UNL     1      20.162   4.279  51.561  1.00  0.00    -0.387 OA
HETATM   24  C18 UNL     1      20.535   5.130  50.562  1.00  0.00     0.193 C 
HETATM   25  C19 UNL     1      21.661   4.633  49.760  1.00  0.00     0.114 C 
ENDROOT
TORSDOF 0
ENDMDL
