MODEL 1
REMARK VINA RESULT:      -8.7      0.000      0.000
REMARK  3 active torsions:
REMARK  status: ('A' for Active; 'I' for Inactive)
REMARK    1  A    between atoms: C12_14  and  C13_15 
REMARK    2  A    between atoms: C16_18  and  N3_19 
REMARK    3  A    between atoms: N3_19  and  C18_21 
ROOT
HETATM    1  C1  UNL     1      21.929   1.295  48.972  1.00  0.00     0.011 C 
HETATM    2  C2  UNL     1      21.235   1.750  50.208  1.00  0.00    -0.000 C 
HETATM    3  C3  UNL     1      21.959   2.806  50.968  1.00  0.00     0.124 C 
HETATM    4  N1  UNL     1      23.101   2.280  51.713  1.00  0.00    -0.389 N 
HETATM    5  C4  UNL     1      23.255   1.157  52.607  1.00  0.00     0.035 A 
HETATM    6  C5  UNL     1      24.596   0.819  52.576  1.00  0.00     0.052 A 
HETATM    7  C6  UNL     1      24.940  -0.241  53.372  1.00  0.00     0.046 A 
HETATM    8  C7  UNL     1      26.324  -0.646  53.386  1.00  0.00     0.099 C 
HETATM    9  N2  UNL     1      27.442  -0.954  53.390  1.00  0.00    -0.191 NA
HETATM   10  C8  UNL     1      24.022  -0.934  54.154  1.00  0.00     0.023 A 
HETATM   11  C9  UNL     1      22.687  -0.561  54.154  1.00  0.00     0.011 A 
HETATM   12  C10 UNL     1      22.287   0.516  53.358  1.00  0.00    -0.031 A 
HETATM   13  C11 UNL     1      20.831   0.640  53.595  1.00  0.00     0.050 C 
HETATM   14  C12 UNL     1      20.105   0.954  52.301  1.00  0.00     0.020 C 
HETATM   15  C24 UNL     1      20.840   0.539  51.070  1.00  0.00     0.015 C 
HETATM   16  H7  UNL     1      24.028   2.794  51.610  1.00  0.00     0.159 HD
ENDROOT
BRANCH  14  17
HETATM   17  C13 UNL     1      18.749   0.337  52.284  1.00  0.00    -0.068 A 
HETATM   18  C14 UNL     1      18.506  -0.814  52.954  1.00  0.00    -0.020 A 
HETATM   19  C15 UNL     1      17.113  -1.321  52.856  1.00  0.00     0.059 A 
HETATM   20  C16 UNL     1      16.497  -0.314  51.904  1.00  0.00     0.043 A 
HETATM   21  C21 UNL     1      17.143  -0.263  50.500  1.00  0.00     0.048 A 
HETATM   22  C22 UNL     1      17.464   0.689  51.626  1.00  0.00     0.007 A 
HETATM   23  C23 UNL     1      17.191   2.155  51.436  1.00  0.00     0.023 C 
BRANCH  20  24
HETATM   24  N3  UNL     1      15.100  -0.302  51.883  1.00  0.00    -0.398 N 
HETATM   25  C17 UNL     1      14.379  -1.435  51.448  1.00  0.00     0.144 C 
BRANCH  24  26
HETATM   26  C18 UNL     1      14.560   0.273  53.072  1.00  0.00     0.127 C 
HETATM   27  C19 UNL     1      13.148  -0.146  53.419  1.00  0.00     0.194 C 
HETATM   28  O1  UNL     1      12.999   1.146  53.977  1.00  0.00    -0.387 OA
HETATM   29  C20 UNL     1      13.813   1.576  52.900  1.00  0.00     0.194 C 
ENDBRANCH  24  26
ENDBRANCH  20  24
ENDBRANCH  14  17
TORSDOF 3
ENDMDL
MODEL 2
REMARK VINA RESULT:      -8.6      6.437     10.367
REMARK  3 active torsions:
REMARK  status: ('A' for Active; 'I' for Inactive)
REMARK    1  A    between atoms: C12_14  and  C13_15 
REMARK    2  A    between atoms: C16_18  and  N3_19 
REMARK    3  A    between atoms: N3_19  and  C18_21 
ROOT
HETATM    1  C1  UNL     1      22.395   4.861  51.859  1.00  0.00     0.011 C 
HETATM    2  C2  UNL     1      23.083   4.375  50.632  1.00  0.00    -0.000 C 
HETATM    3  C3  UNL     1      22.649   3.027  50.174  1.00  0.00     0.124 C 
HETATM    4  N1  UNL     1      23.196   1.950  50.998  1.00  0.00    -0.389 N 
HETATM    5  C4  UNL     1      24.530   1.655  51.466  1.00  0.00     0.035 A 
HETATM    6  C5  UNL     1      24.378   0.880  52.602  1.00  0.00     0.052 A 
HETATM    7  C6  UNL     1      25.551   0.499  53.198  1.00  0.00     0.046 A 
HETATM    8  C7  UNL     1      25.465  -0.311  54.388  1.00  0.00     0.099 C 
HETATM    9  N2  UNL     1      25.376  -0.966  55.341  1.00  0.00    -0.191 NA
HETATM   10  C8  UNL     1      26.804   0.856  52.709  1.00  0.00     0.023 A 
HETATM   11  C9  UNL     1      26.908   1.634  51.567  1.00  0.00     0.011 A 
HETATM   12  C10 UNL     1      25.739   2.048  50.923  1.00  0.00    -0.031 A 
HETATM   13  C11 UNL     1      26.208   2.841  49.763  1.00  0.00     0.050 C 
HETATM   14  C12 UNL     1      25.332   4.064  49.565  1.00  0.00     0.020 C 
HETATM   15  C24 UNL     1      24.608   4.504  50.793  1.00  0.00     0.015 C 
HETATM   16  H7  UNL     1      22.515   1.209  51.347  1.00  0.00     0.159 HD
ENDROOT
BRANCH  14  17
HETATM   17  C13 UNL     1      26.123   5.209  49.034  1.00  0.00    -0.068 A 
HETATM   18  C14 UNL     1      27.452   5.084  48.808  1.00  0.00    -0.020 A 
HETATM   19  C15 UNL     1      28.120   6.300  48.278  1.00  0.00     0.059 A 
HETATM   20  C16 UNL     1      26.975   7.294  48.283  1.00  0.00     0.043 A 
HETATM   21  C21 UNL     1      26.369   7.586  49.675  1.00  0.00     0.048 A 
HETATM   22  C22 UNL     1      25.792   6.613  48.676  1.00  0.00     0.007 A 
HETATM   23  C23 UNL     1      24.409   6.857  48.142  1.00  0.00     0.023 C 
BRANCH  20  24
HETATM   24  N3  UNL     1      27.185   8.438  47.507  1.00  0.00    -0.398 N 
HETATM   25  C17 UNL     1      28.288   9.282  47.759  1.00  0.00     0.144 C 
BRANCH  24  26
HETATM   26  C18 UNL     1      26.995   8.175  46.118  1.00  0.00     0.127 C 
HETATM   27  C19 UNL     1      28.165   8.518  45.221  1.00  0.00     0.194 C 
HETATM   28  O1  UNL     1      27.200   8.809  44.228  1.00  0.00    -0.387 OA
HETATM   29  C20 UNL     1      26.420   9.308  45.300  1.00  0.00     0.194 C 
ENDBRANCH  24  26
ENDBRANCH  20  24
ENDBRANCH  14  17
TORSDOF 3
ENDMDL
MODEL 3
REMARK VINA RESULT:      -8.6      6.859     10.914
REMARK  3 active torsions:
REMARK  status: ('A' for Active; 'I' for Inactive)
REMARK    1  A    between atoms: C12_14  and  C13_15 
REMARK    2  A    between atoms: C16_18  and  N3_19 
REMARK    3  A    between atoms: N3_19  and  C18_21 
ROOT
HETATM    1  C1  UNL     1      22.059   4.781  51.847  1.00  0.00     0.011 C 
HETATM    2  C2  UNL     1      22.945   4.588  50.666  1.00  0.00    -0.000 C 
HETATM    3  C3  UNL     1      22.786   3.274  49.984  1.00  0.00     0.124 C 
HETATM    4  N1  UNL     1      23.407   2.177  50.724  1.00  0.00    -0.389 N 
HETATM    5  C4  UNL     1      24.713   2.012  51.318  1.00  0.00     0.035 A 
HETATM    6  C5  UNL     1      24.567   1.063  52.314  1.00  0.00     0.052 A 
HETATM    7  C6  UNL     1      25.714   0.770  53.001  1.00  0.00     0.046 A 
HETATM    8  C7  UNL     1      25.633  -0.212  54.054  1.00  0.00     0.099 C 
HETATM    9  N2  UNL     1      25.549  -1.007  54.894  1.00  0.00    -0.191 NA
HETATM   10  C8  UNL     1      26.939   1.373  52.729  1.00  0.00     0.023 A 
HETATM   11  C9  UNL     1      27.038   2.319  51.721  1.00  0.00     0.011 A 
HETATM   12  C10 UNL     1      25.894   2.651  50.992  1.00  0.00    -0.031 A 
HETATM   13  C11 UNL     1      26.351   3.668  50.016  1.00  0.00     0.050 C 
HETATM   14  C12 UNL     1      25.316   4.767  49.867  1.00  0.00     0.020 C 
HETATM   15  C24 UNL     1      24.402   4.910  51.038  1.00  0.00     0.015 C 
HETATM   16  H7  UNL     1      22.821   1.303  50.882  1.00  0.00     0.159 HD
ENDROOT
BRANCH  14  17
HETATM   17  C13 UNL     1      25.964   6.081  49.598  1.00  0.00    -0.068 A 
HETATM   18  C14 UNL     1      25.640   7.173  50.329  1.00  0.00    -0.020 A 
HETATM   19  C15 UNL     1      26.359   8.419  49.959  1.00  0.00     0.059 A 
HETATM   20  C16 UNL     1      27.169   7.950  48.765  1.00  0.00     0.043 A 
HETATM   21  C21 UNL     1      26.334   7.445  47.567  1.00  0.00     0.048 A 
HETATM   22  C22 UNL     1      26.966   6.553  48.607  1.00  0.00     0.007 A 
HETATM   23  C23 UNL     1      27.998   5.551  48.172  1.00  0.00     0.023 C 
BRANCH  20  24
HETATM   24  N3  UNL     1      28.224   8.792  48.404  1.00  0.00    -0.398 N 
HETATM   25  C17 UNL     1      27.972  10.113  47.972  1.00  0.00     0.144 C 
BRANCH  24  26
HETATM   26  C18 UNL     1      29.306   8.710  49.330  1.00  0.00     0.127 C 
HETATM   27  C19 UNL     1      30.242   9.899  49.350  1.00  0.00     0.194 C 
HETATM   28  O1  UNL     1      31.261   8.976  49.684  1.00  0.00    -0.387 OA
HETATM   29  C20 UNL     1      30.583   8.092  48.808  1.00  0.00     0.194 C 
ENDBRANCH  24  26
ENDBRANCH  20  24
ENDBRANCH  14  17
TORSDOF 3
ENDMDL
MODEL 4
REMARK VINA RESULT:      -8.3      1.666      2.347
REMARK  3 active torsions:
REMARK  status: ('A' for Active; 'I' for Inactive)
REMARK    1  A    between atoms: C12_14  and  C13_15 
REMARK    2  A    between atoms: C16_18  and  N3_19 
REMARK    3  A    between atoms: N3_19  and  C18_21 
ROOT
HETATM    1  C1  UNL     1      24.242   3.236  49.361  1.00  0.00     0.011 C 
HETATM    2  C2  UNL     1      23.439   3.268  50.615  1.00  0.00    -0.000 C 
HETATM    3  C3  UNL     1      24.125   3.910  51.769  1.00  0.00     0.124 C 
HETATM    4  N1  UNL     1      25.152   3.055  52.361  1.00  0.00    -0.389 N 
HETATM    5  C4  UNL     1      25.153   1.675  52.786  1.00  0.00     0.035 A 
HETATM    6  C5  UNL     1      26.472   1.259  52.746  1.00  0.00     0.052 A 
HETATM    7  C6  UNL     1      26.675  -0.043  53.118  1.00  0.00     0.046 A 
HETATM    8  C7  UNL     1      28.028  -0.541  53.099  1.00  0.00     0.099 C 
HETATM    9  N2  UNL     1      29.123  -0.923  53.082  1.00  0.00    -0.191 NA
HETATM   10  C8  UNL     1      25.644  -0.892  53.508  1.00  0.00     0.023 A 
HETATM   11  C9  UNL     1      24.337  -0.432  53.533  1.00  0.00     0.011 A 
HETATM   12  C10 UNL     1      24.079   0.889  53.162  1.00  0.00    -0.031 A 
HETATM   13  C11 UNL     1      22.613   1.042  53.304  1.00  0.00     0.050 C 
HETATM   14  C12 UNL     1      22.049   1.865  52.161  1.00  0.00     0.020 C 
HETATM   15  C24 UNL     1      22.894   1.865  50.931  1.00  0.00     0.015 C 
HETATM   16  H7  UNL     1      26.108   3.490  52.534  1.00  0.00     0.159 HD
ENDROOT
BRANCH  14  17
HETATM   17  C13 UNL     1      20.675   1.414  51.802  1.00  0.00    -0.068 A 
HETATM   18  C14 UNL     1      20.239   0.182  52.155  1.00  0.00    -0.020 A 
HETATM   19  C15 UNL     1      18.851  -0.142  51.737  1.00  0.00     0.059 A 
HETATM   20  C16 UNL     1      18.481   1.101  50.951  1.00  0.00     0.043 A 
HETATM   21  C21 UNL     1      19.359   1.374  49.708  1.00  0.00     0.048 A 
HETATM   22  C22 UNL     1      19.550   2.031  51.053  1.00  0.00     0.007 A 
HETATM   23  C23 UNL     1      19.420   3.525  51.155  1.00  0.00     0.023 C 
BRANCH  20  24
HETATM   24  N3  UNL     1      17.112   1.267  50.723  1.00  0.00    -0.398 N 
HETATM   25  C17 UNL     1      16.376   0.283  50.028  1.00  0.00     0.144 C 
BRANCH  24  26
HETATM   26  C18 UNL     1      16.438   1.742  51.887  1.00  0.00     0.127 C 
HETATM   27  C19 UNL     1      15.176   0.995  52.263  1.00  0.00     0.194 C 
HETATM   28  O1  UNL     1      14.701   2.231  52.760  1.00  0.00    -0.387 OA
HETATM   29  C20 UNL     1      15.385   2.802  51.658  1.00  0.00     0.194 C 
ENDBRANCH  24  26
ENDBRANCH  20  24
ENDBRANCH  14  17
TORSDOF 3
ENDMDL
MODEL 5
REMARK VINA RESULT:      -7.9      3.742      8.488
REMARK  3 active torsions:
REMARK  status: ('A' for Active; 'I' for Inactive)
REMARK    1  A    between atoms: C12_14  and  C13_15 
REMARK    2  A    between atoms: C16_18  and  N3_19 
REMARK    3  A    between atoms: N3_19  and  C18_21 
ROOT
HETATM    1  C1  UNL     1      22.422  -1.921  53.610  1.00  0.00     0.011 C 
HETATM    2  C2  UNL     1      22.196  -0.451  53.678  1.00  0.00    -0.000 C 
HETATM    3  C3  UNL     1      21.202  -0.026  54.702  1.00  0.00     0.124 C 
HETATM    4  N1  UNL     1      19.824  -0.295  54.293  1.00  0.00    -0.389 N 
HETATM    5  C4  UNL     1      19.091  -0.019  53.080  1.00  0.00     0.035 A 
HETATM    6  C5  UNL     1      18.058  -0.940  53.036  1.00  0.00     0.052 A 
HETATM    7  C6  UNL     1      17.243  -0.836  51.940  1.00  0.00     0.046 A 
HETATM    8  C7  UNL     1      16.146  -1.766  51.832  1.00  0.00     0.099 C 
HETATM    9  N2  UNL     1      15.267  -2.518  51.763  1.00  0.00    -0.191 NA
HETATM   10  C8  UNL     1      17.428   0.116  50.942  1.00  0.00     0.023 A 
HETATM   11  C9  UNL     1      18.477   1.018  51.028  1.00  0.00     0.011 A 
HETATM   12  C10 UNL     1      19.336   0.952  52.128  1.00  0.00    -0.031 A 
HETATM   13  C11 UNL     1      20.318   2.039  51.906  1.00  0.00     0.050 C 
HETATM   14  C12 UNL     1      21.711   1.586  52.297  1.00  0.00     0.020 C 
HETATM   15  C24 UNL     1      21.904   0.106  52.275  1.00  0.00     0.015 C 
HETATM   16  H7  UNL     1      19.195  -0.789  54.995  1.00  0.00     0.159 HD
ENDROOT
BRANCH  14  17
HETATM   17  C13 UNL     1      22.744   2.220  51.430  1.00  0.00    -0.068 A 
HETATM   18  C14 UNL     1      22.656   2.138  50.081  1.00  0.00    -0.020 A 
HETATM   19  C15 UNL     1      23.748   2.813  49.334  1.00  0.00     0.059 A 
HETATM   20  C16 UNL     1      24.636   3.286  50.470  1.00  0.00     0.043 A 
HETATM   21  C21 UNL     1      25.216   2.162  51.358  1.00  0.00     0.048 A 
HETATM   22  C22 UNL     1      23.993   2.978  51.699  1.00  0.00     0.007 A 
HETATM   23  C23 UNL     1      24.007   3.820  52.943  1.00  0.00     0.023 C 
BRANCH  20  24
HETATM   24  N3  UNL     1      25.567   4.267  50.119  1.00  0.00    -0.398 N 
HETATM   25  C17 UNL     1      26.723   3.927  49.382  1.00  0.00     0.144 C 
BRANCH  24  26
HETATM   26  C18 UNL     1      24.932   5.450  49.637  1.00  0.00     0.127 C 
HETATM   27  C19 UNL     1      25.837   6.437  48.931  1.00  0.00     0.194 C 
HETATM   28  O1  UNL     1      24.984   7.444  49.441  1.00  0.00    -0.387 OA
HETATM   29  C20 UNL     1      24.896   6.621  50.592  1.00  0.00     0.194 C 
ENDBRANCH  24  26
ENDBRANCH  20  24
ENDBRANCH  14  17
TORSDOF 3
ENDMDL
MODEL 6
REMARK VINA RESULT:      -7.8      5.522      9.360
REMARK  3 active torsions:
REMARK  status: ('A' for Active; 'I' for Inactive)
REMARK    1  A    between atoms: C12_14  and  C13_15 
REMARK    2  A    between atoms: C16_18  and  N3_19 
REMARK    3  A    between atoms: N3_19  and  C18_21 
ROOT
HETATM    1  C1  UNL     1      19.827   3.944  51.508  1.00  0.00     0.011 C 
HETATM    2  C2  UNL     1      20.944   3.663  50.565  1.00  0.00    -0.000 C 
HETATM    3  C3  UNL     1      20.847   2.352  49.867  1.00  0.00     0.124 C 
HETATM    4  N1  UNL     1      21.196   1.226  50.733  1.00  0.00    -0.389 N 
HETATM    5  C4  UNL     1      22.313   0.977  51.613  1.00  0.00     0.035 A 
HETATM    6  C5  UNL     1      21.870   0.061  52.550  1.00  0.00     0.052 A 
HETATM    7  C6  UNL     1      22.802  -0.302  53.485  1.00  0.00     0.046 A 
HETATM    8  C7  UNL     1      22.405  -1.254  54.491  1.00  0.00     0.099 C 
HETATM    9  N2  UNL     1      22.070  -2.025  55.290  1.00  0.00    -0.191 NA
HETATM   10  C8  UNL     1      24.098   0.204  53.502  1.00  0.00     0.023 A 
HETATM   11  C9  UNL     1      24.499   1.121  52.543  1.00  0.00     0.011 A 
HETATM   12  C10 UNL     1      23.583   1.522  51.568  1.00  0.00    -0.031 A 
HETATM   13  C11 UNL     1      24.328   2.483  50.722  1.00  0.00     0.050 C 
HETATM   14  C12 UNL     1      23.442   3.652  50.336  1.00  0.00     0.020 C 
HETATM   15  C24 UNL     1      22.296   3.885  51.264  1.00  0.00     0.015 C 
HETATM   16  H7  UNL     1      20.525   0.401  50.752  1.00  0.00     0.159 HD
ENDROOT
BRANCH  14  17
HETATM   17  C13 UNL     1      24.232   4.910  50.221  1.00  0.00    -0.068 A 
HETATM   18  C14 UNL     1      23.892   6.006  50.939  1.00  0.00    -0.020 A 
HETATM   19  C15 UNL     1      24.763   7.192  50.734  1.00  0.00     0.059 A 
HETATM   20  C16 UNL     1      25.704   6.686  49.657  1.00  0.00     0.043 A 
HETATM   21  C21 UNL     1      25.024   6.290  48.327  1.00  0.00     0.048 A 
HETATM   22  C22 UNL     1      25.411   5.317  49.413  1.00  0.00     0.007 A 
HETATM   23  C23 UNL     1      26.409   4.239  49.098  1.00  0.00     0.023 C 
BRANCH  20  24
HETATM   24  N3  UNL     1      26.870   7.439  49.494  1.00  0.00    -0.398 N 
HETATM   25  C17 UNL     1      27.645   7.315  48.320  1.00  0.00     0.144 C 
BRANCH  24  26
HETATM   26  C18 UNL     1      26.681   8.796  49.890  1.00  0.00     0.127 C 
HETATM   27  C19 UNL     1      26.521   9.791  48.762  1.00  0.00     0.194 C 
HETATM   28  O1  UNL     1      27.152  10.725  49.617  1.00  0.00    -0.387 OA
HETATM   29  C20 UNL     1      27.936   9.624  50.044  1.00  0.00     0.194 C 
ENDBRANCH  24  26
ENDBRANCH  20  24
ENDBRANCH  14  17
TORSDOF 3
ENDMDL
MODEL 7
REMARK VINA RESULT:      -7.6      5.375      8.993
REMARK  3 active torsions:
REMARK  status: ('A' for Active; 'I' for Inactive)
REMARK    1  A    between atoms: C12_14  and  C13_15 
REMARK    2  A    between atoms: C16_18  and  N3_19 
REMARK    3  A    between atoms: N3_19  and  C18_21 
ROOT
HETATM    1  C1  UNL     1      19.532   3.809  51.349  1.00  0.00     0.011 C 
HETATM    2  C2  UNL     1      20.600   3.519  50.353  1.00  0.00    -0.000 C 
HETATM    3  C3  UNL     1      20.525   2.163  49.745  1.00  0.00     0.124 C 
HETATM    4  N1  UNL     1      20.985   1.113  50.653  1.00  0.00    -0.389 N 
HETATM    5  C4  UNL     1      22.167   0.973  51.471  1.00  0.00     0.035 A 
HETATM    6  C5  UNL     1      21.830   0.100  52.490  1.00  0.00     0.052 A 
HETATM    7  C6  UNL     1      22.837  -0.158  53.382  1.00  0.00     0.046 A 
HETATM    8  C7  UNL     1      22.554  -1.060  54.469  1.00  0.00     0.099 C 
HETATM    9  N2  UNL     1      22.309  -1.792  55.335  1.00  0.00    -0.191 NA
HETATM   10  C8  UNL     1      24.105   0.408  53.282  1.00  0.00     0.023 A 
HETATM   11  C9  UNL     1      24.397   1.278  52.243  1.00  0.00     0.011 A 
HETATM   12  C10 UNL     1      23.402   1.573  51.308  1.00  0.00    -0.031 A 
HETATM   13  C11 UNL     1      24.042   2.511  50.357  1.00  0.00     0.050 C 
HETATM   14  C12 UNL     1      23.076   3.609  49.960  1.00  0.00     0.020 C 
HETATM   15  C24 UNL     1      21.981   3.849  50.945  1.00  0.00     0.015 C 
HETATM   16  H7  UNL     1      20.359   0.260  50.768  1.00  0.00     0.159 HD
ENDROOT
BRANCH  14  17
HETATM   17  C13 UNL     1      23.793   4.892  49.715  1.00  0.00    -0.068 A 
HETATM   18  C14 UNL     1      25.056   5.074  50.169  1.00  0.00    -0.020 A 
HETATM   19  C15 UNL     1      25.656   6.396  49.857  1.00  0.00     0.059 A 
HETATM   20  C16 UNL     1      24.495   7.096  49.177  1.00  0.00     0.043 A 
HETATM   21  C21 UNL     1      23.236   7.278  50.055  1.00  0.00     0.048 A 
HETATM   22  C22 UNL     1      23.426   6.169  49.050  1.00  0.00     0.007 A 
HETATM   23  C23 UNL     1      22.471   6.068  47.894  1.00  0.00     0.023 C 
BRANCH  20  24
HETATM   24  N3  UNL     1      24.842   8.233  48.444  1.00  0.00    -0.398 N 
HETATM   25  C17 UNL     1      25.585   9.274  49.043  1.00  0.00     0.144 C 
BRANCH  24  26
HETATM   26  C18 UNL     1      25.313   7.897  47.140  1.00  0.00     0.127 C 
HETATM   27  C19 UNL     1      26.744   8.291  46.839  1.00  0.00     0.194 C 
HETATM   28  O1  UNL     1      26.319   8.463  45.501  1.00  0.00    -0.387 OA
HETATM   29  C20 UNL     1      25.114   8.946  46.070  1.00  0.00     0.194 C 
ENDBRANCH  24  26
ENDBRANCH  20  24
ENDBRANCH  14  17
TORSDOF 3
ENDMDL
MODEL 8
REMARK VINA RESULT:      -7.6      7.575     11.534
REMARK  3 active torsions:
REMARK  status: ('A' for Active; 'I' for Inactive)
REMARK    1  A    between atoms: C12_14  and  C13_15 
REMARK    2  A    between atoms: C16_18  and  N3_19 
REMARK    3  A    between atoms: N3_19  and  C18_21 
ROOT
HETATM    1  C1  UNL     1      22.298   6.164  50.129  1.00  0.00     0.011 C 
HETATM    2  C2  UNL     1      23.332   5.769  49.133  1.00  0.00    -0.000 C 
HETATM    3  C3  UNL     1      23.047   4.492  48.422  1.00  0.00     0.124 C 
HETATM    4  N1  UNL     1      23.295   3.317  49.256  1.00  0.00    -0.389 N 
HETATM    5  C4  UNL     1      24.410   2.919  50.082  1.00  0.00     0.035 A 
HETATM    6  C5  UNL     1      23.899   2.045  51.025  1.00  0.00     0.052 A 
HETATM    7  C6  UNL     1      24.820   1.555  51.912  1.00  0.00     0.046 A 
HETATM    8  C7  UNL     1      24.354   0.638  52.923  1.00  0.00     0.099 C 
HETATM    9  N2  UNL     1      23.963  -0.102  53.725  1.00  0.00    -0.191 NA
HETATM   10  C8  UNL     1      26.168   1.901  51.879  1.00  0.00     0.023 A 
HETATM   11  C9  UNL     1      26.635   2.781  50.915  1.00  0.00     0.011 A 
HETATM   12  C10 UNL     1      25.733   3.308  49.988  1.00  0.00    -0.031 A 
HETATM   13  C11 UNL     1      26.552   4.189  49.123  1.00  0.00     0.050 C 
HETATM   14  C12 UNL     1      25.798   5.462  48.793  1.00  0.00     0.020 C 
HETATM   15  C24 UNL     1      24.729   5.814  49.774  1.00  0.00     0.015 C 
HETATM   16  H7  UNL     1      22.530   2.578  49.294  1.00  0.00     0.159 HD
ENDROOT
BRANCH  14  17
HETATM   17  C13 UNL     1      26.729   6.618  48.660  1.00  0.00    -0.068 A 
HETATM   18  C14 UNL     1      28.057   6.417  48.490  1.00  0.00    -0.020 A 
HETATM   19  C15 UNL     1      28.873   7.653  48.370  1.00  0.00     0.059 A 
HETATM   20  C16 UNL     1      27.822   8.724  48.586  1.00  0.00     0.043 A 
HETATM   21  C21 UNL     1      27.121   8.684  49.963  1.00  0.00     0.048 A 
HETATM   22  C22 UNL     1      26.554   8.093  48.696  1.00  0.00     0.007 A 
HETATM   23  C23 UNL     1      25.251   8.623  48.168  1.00  0.00     0.023 C 
BRANCH  20  24
HETATM   24  N3  UNL     1      28.199  10.008  48.182  1.00  0.00    -0.398 N 
HETATM   25  C17 UNL     1      29.308  10.650  48.775  1.00  0.00     0.144 C 
BRANCH  24  26
HETATM   26  C18 UNL     1      28.177  10.142  46.762  1.00  0.00     0.127 C 
HETATM   27  C19 UNL     1      29.371  10.844  46.153  1.00  0.00     0.194 C 
HETATM   28  O1  UNL     1      28.475  11.313  45.163  1.00  0.00    -0.387 OA
HETATM   29  C20 UNL     1      27.538  11.401  46.223  1.00  0.00     0.194 C 
ENDBRANCH  24  26
ENDBRANCH  20  24
ENDBRANCH  14  17
TORSDOF 3
ENDMDL
MODEL 9
REMARK VINA RESULT:      -7.6      6.049      9.280
REMARK  3 active torsions:
REMARK  status: ('A' for Active; 'I' for Inactive)
REMARK    1  A    between atoms: C12_14  and  C13_15 
REMARK    2  A    between atoms: C16_18  and  N3_19 
REMARK    3  A    between atoms: N3_19  and  C18_21 
ROOT
HETATM    1  C1  UNL     1      24.446   7.133  50.941  1.00  0.00     0.011 C 
HETATM    2  C2  UNL     1      24.863   5.864  50.283  1.00  0.00    -0.000 C 
HETATM    3  C3  UNL     1      25.192   5.999  48.837  1.00  0.00     0.124 C 
HETATM    4  N1  UNL     1      24.002   6.130  47.999  1.00  0.00    -0.389 N 
HETATM    5  C4  UNL     1      22.770   5.380  47.922  1.00  0.00     0.035 A 
HETATM    6  C5  UNL     1      21.829   6.236  47.380  1.00  0.00     0.052 A 
HETATM    7  C6  UNL     1      20.580   5.697  47.229  1.00  0.00     0.046 A 
HETATM    8  C7  UNL     1      19.551   6.536  46.669  1.00  0.00     0.099 C 
HETATM    9  N2  UNL     1      18.737   7.225  46.212  1.00  0.00    -0.191 NA
HETATM   10  C8  UNL     1      20.267   4.390  47.591  1.00  0.00     0.023 A 
HETATM   11  C9  UNL     1      21.243   3.567  48.132  1.00  0.00     0.011 A 
HETATM   12  C10 UNL     1      22.533   4.072  48.305  1.00  0.00    -0.031 A 
HETATM   13  C11 UNL     1      23.304   2.950  48.889  1.00  0.00     0.050 C 
HETATM   14  C12 UNL     1      24.246   3.454  49.965  1.00  0.00     0.020 C 
HETATM   15  C24 UNL     1      23.840   4.754  50.576  1.00  0.00     0.015 C 
HETATM   16  H7  UNL     1      23.993   6.920  47.286  1.00  0.00     0.159 HD
ENDROOT
BRANCH  14  17
HETATM   17  C13 UNL     1      24.414   2.444  51.047  1.00  0.00    -0.068 A 
HETATM   18  C14 UNL     1      23.433   1.549  51.313  1.00  0.00    -0.020 A 
HETATM   19  C15 UNL     1      23.727   0.597  52.414  1.00  0.00     0.059 A 
HETATM   20  C16 UNL     1      25.075   1.102  52.891  1.00  0.00     0.043 A 
HETATM   21  C21 UNL     1      25.078   2.552  53.428  1.00  0.00     0.048 A 
HETATM   22  C22 UNL     1      25.489   2.155  52.031  1.00  0.00     0.007 A 
HETATM   23  C23 UNL     1      26.896   2.434  51.583  1.00  0.00     0.023 C 
BRANCH  20  24
HETATM   24  N3  UNL     1      25.792   0.205  53.687  1.00  0.00    -0.398 N 
HETATM   25  C17 UNL     1      25.117  -0.743  54.486  1.00  0.00     0.144 C 
BRANCH  24  26
HETATM   26  C18 UNL     1      26.900  -0.354  52.984  1.00  0.00     0.127 C 
HETATM   27  C19 UNL     1      26.956  -1.867  52.947  1.00  0.00     0.194 C 
HETATM   28  O1  UNL     1      28.364  -1.723  52.936  1.00  0.00    -0.387 OA
HETATM   29  C20 UNL     1      28.140  -0.626  53.805  1.00  0.00     0.194 C 
ENDBRANCH  24  26
ENDBRANCH  20  24
ENDBRANCH  14  17
TORSDOF 3
ENDMDL
