MODEL 1
REMARK VINA RESULT:      -9.0      0.000      0.000
REMARK  7 active torsions:
REMARK  status: ('A' for Active; 'I' for Inactive)
REMARK       I    between atoms: C2_2  and  N1_4 
REMARK    1  A    between atoms: C8_11  and  N3_12 
REMARK    2  A    between atoms: N3_12  and  C9_13 
REMARK    3  A    between atoms: C15_21  and  O2_22 
REMARK    4  A    between atoms: O2_22  and  C16_23 
REMARK    5  A    between atoms: C16_23  and  C17_24 
REMARK    6  A    between atoms: C17_24  and  C18_25 
REMARK    7  A    between atoms: C18_25  and  N4_26 
ROOT
HETATM    1  C1  UNL     1      20.480  -1.559  54.117  1.00  0.00     0.117 C 
HETATM    2  C2  UNL     1      20.149  -0.347  53.376  1.00  0.00     0.221 C 
HETATM    3  O1  UNL     1      18.961  -0.458  52.996  1.00  0.00    -0.273 OA
HETATM    4  N1  UNL     1      20.923   0.806  53.075  1.00  0.00    -0.300 N 
HETATM    5  C3  UNL     1      22.256   0.638  53.633  1.00  0.00     0.103 C 
HETATM    6  C4  UNL     1      23.055   1.321  52.826  1.00  0.00    -0.020 C 
HETATM    7  C5  UNL     1      22.685   1.288  51.346  1.00  0.00     0.053 C 
HETATM    8  C6  UNL     1      21.651   2.461  51.394  1.00  0.00     0.079 C 
HETATM    9  C7  UNL     1      22.488   3.554  52.041  1.00  0.00     0.095 C 
HETATM   10  N2  UNL     1      23.708   3.485  52.479  1.00  0.00    -0.275 NA
HETATM   11  C8  UNL     1      24.232   2.209  53.026  1.00  0.00     0.236 C 
HETATM   12  C15 UNL     1      20.565   2.005  52.363  1.00  0.00     0.239 C 
ENDROOT
BRANCH  12  13
HETATM   13  O2  UNL     1      19.358   1.829  51.742  1.00  0.00    -0.365 OA
BRANCH  13  14
HETATM   14  C16 UNL     1      18.601   2.950  51.541  1.00  0.00     0.172 C 
BRANCH  14  15
HETATM   15  C17 UNL     1      17.113   2.751  51.529  1.00  0.00     0.046 C 
BRANCH  15  16
HETATM   16  C18 UNL     1      16.431   4.057  51.937  1.00  0.00     0.126 C 
BRANCH  16  17
HETATM   17  N4  UNL     1      15.001   3.855  52.098  1.00  0.00    -0.366 N 
HETATM   18  C19 UNL     1      14.184   3.320  51.010  1.00  0.00     0.150 C 
HETATM   19  C20 UNL     1      12.829   4.027  51.123  1.00  0.00     0.188 C 
HETATM   20  O3  UNL     1      12.211   3.452  52.231  1.00  0.00    -0.382 OA
HETATM   21  C21 UNL     1      12.821   3.840  53.403  1.00  0.00     0.245 C 
HETATM   22  C22 UNL     1      14.257   4.137  53.281  1.00  0.00     0.118 C 
HETATM   23  N5  UNL     1      14.887   4.670  54.271  1.00  0.00    -0.286 NA
HETATM   24  H27 UNL     1      14.379   4.889  55.149  1.00  0.00     0.188 HD
ENDBRANCH  16  17
ENDBRANCH  15  16
ENDBRANCH  14  15
ENDBRANCH  13  14
ENDBRANCH  12  13
BRANCH  11  25
HETATM   25  N3  UNL     1      25.322   1.719  52.220  1.00  0.00    -0.364 N 
HETATM   26  H10 UNL     1      25.249   1.725  51.160  1.00  0.00     0.162 HD
BRANCH  25  27
HETATM   27  C9  UNL     1      26.586   1.185  52.656  1.00  0.00     0.031 A 
HETATM   28  C10 UNL     1      27.653   1.948  53.145  1.00  0.00     0.032 A 
HETATM   29  C11 UNL     1      28.799   1.284  53.520  1.00  0.00     0.046 A 
HETATM   30  C12 UNL     1      28.976  -0.063  53.453  1.00  0.00     0.138 A 
HETATM   31  F1  UNL     1      30.155  -0.593  53.853  1.00  0.00    -0.204 F 
HETATM   32  C13 UNL     1      27.936  -0.851  52.971  1.00  0.00     0.074 A 
HETATM   33 CL1  UNL     1      28.114  -2.578  52.867  1.00  0.00    -0.081 Cl
HETATM   34  C14 UNL     1      26.776  -0.183  52.591  1.00  0.00     0.056 A 
ENDBRANCH  25  27
ENDBRANCH  11  25
TORSDOF 7
ENDMDL
MODEL 2
REMARK VINA RESULT:      -8.8      5.309      7.851
REMARK  7 active torsions:
REMARK  status: ('A' for Active; 'I' for Inactive)
REMARK       I    between atoms: C2_2  and  N1_4 
REMARK    1  A    between atoms: C8_11  and  N3_12 
REMARK    2  A    between atoms: N3_12  and  C9_13 
REMARK    3  A    between atoms: C15_21  and  O2_22 
REMARK    4  A    between atoms: O2_22  and  C16_23 
REMARK    5  A    between atoms: C16_23  and  C17_24 
REMARK    6  A    between atoms: C17_24  and  C18_25 
REMARK    7  A    between atoms: C18_25  and  N4_26 
ROOT
HETATM    1  C1  UNL     1      22.513   2.967  47.229  1.00  0.00     0.117 C 
HETATM    2  C2  UNL     1      22.256   3.955  48.271  1.00  0.00     0.221 C 
HETATM    3  O1  UNL     1      21.571   4.867  47.756  1.00  0.00    -0.273 OA
HETATM    4  N1  UNL     1      22.643   3.995  49.638  1.00  0.00    -0.300 N 
HETATM    5  C3  UNL     1      23.438   2.814  49.938  1.00  0.00     0.103 C 
HETATM    6  C4  UNL     1      24.269   3.194  50.898  1.00  0.00    -0.020 C 
HETATM    7  C5  UNL     1      24.784   4.626  50.798  1.00  0.00     0.053 C 
HETATM    8  C6  UNL     1      23.570   5.303  51.516  1.00  0.00     0.079 C 
HETATM    9  C7  UNL     1      23.517   4.502  52.808  1.00  0.00     0.095 C 
HETATM   10  N2  UNL     1      24.256   3.496  53.165  1.00  0.00    -0.275 NA
HETATM   11  C8  UNL     1      24.789   2.563  52.142  1.00  0.00     0.236 C 
HETATM   12  C15 UNL     1      22.354   4.970  50.657  1.00  0.00     0.239 C 
ENDROOT
BRANCH  12  13
HETATM   13  O2  UNL     1      21.804   6.086  50.085  1.00  0.00    -0.365 OA
BRANCH  13  14
HETATM   14  C16 UNL     1      22.351   7.289  50.435  1.00  0.00     0.172 C 
BRANCH  14  15
HETATM   15  C17 UNL     1      23.348   7.868  49.472  1.00  0.00     0.046 C 
BRANCH  15  16
HETATM   16  C18 UNL     1      24.521   8.453  50.260  1.00  0.00     0.126 C 
BRANCH  16  17
HETATM   17  N4  UNL     1      25.772   8.204  49.566  1.00  0.00    -0.366 N 
HETATM   18  C19 UNL     1      25.836   7.300  48.419  1.00  0.00     0.150 C 
HETATM   19  C20 UNL     1      27.200   6.605  48.515  1.00  0.00     0.188 C 
HETATM   20  O3  UNL     1      28.128   7.575  48.144  1.00  0.00    -0.382 OA
HETATM   21  C21 UNL     1      28.249   8.548  49.111  1.00  0.00     0.245 C 
HETATM   22  C22 UNL     1      27.031   8.787  49.901  1.00  0.00     0.118 C 
HETATM   23  N5  UNL     1      27.079   9.549  50.938  1.00  0.00    -0.286 NA
HETATM   24  H27 UNL     1      27.977   9.992  51.213  1.00  0.00     0.188 HD
ENDBRANCH  16  17
ENDBRANCH  15  16
ENDBRANCH  14  15
ENDBRANCH  13  14
ENDBRANCH  12  13
BRANCH  11  25
HETATM   25  N3  UNL     1      26.229   2.605  52.114  1.00  0.00    -0.364 N 
HETATM   26  H10 UNL     1      26.732   3.436  51.684  1.00  0.00     0.162 HD
BRANCH  25  27
HETATM   27  C9  UNL     1      27.162   1.627  52.612  1.00  0.00     0.031 A 
HETATM   28  C10 UNL     1      28.358   1.926  53.274  1.00  0.00     0.032 A 
HETATM   29  C11 UNL     1      29.143   0.874  53.688  1.00  0.00     0.046 A 
HETATM   30  C12 UNL     1      28.846  -0.440  53.503  1.00  0.00     0.138 A 
HETATM   31  F1  UNL     1      29.706  -1.381  53.958  1.00  0.00    -0.204 F 
HETATM   32  C13 UNL     1      27.664  -0.772  52.848  1.00  0.00     0.074 A 
HETATM   33 CL1  UNL     1      27.239  -2.438  52.589  1.00  0.00    -0.081 Cl
HETATM   34  C14 UNL     1      26.868   0.289  52.429  1.00  0.00     0.056 A 
ENDBRANCH  25  27
ENDBRANCH  11  25
TORSDOF 7
ENDMDL
MODEL 3
REMARK VINA RESULT:      -8.8      6.267     11.253
REMARK  7 active torsions:
REMARK  status: ('A' for Active; 'I' for Inactive)
REMARK       I    between atoms: C2_2  and  N1_4 
REMARK    1  A    between atoms: C8_11  and  N3_12 
REMARK    2  A    between atoms: N3_12  and  C9_13 
REMARK    3  A    between atoms: C15_21  and  O2_22 
REMARK    4  A    between atoms: O2_22  and  C16_23 
REMARK    5  A    between atoms: C16_23  and  C17_24 
REMARK    6  A    between atoms: C17_24  and  C18_25 
REMARK    7  A    between atoms: C18_25  and  N4_26 
ROOT
HETATM    1  C1  UNL     1      23.206   7.644  50.201  1.00  0.00     0.117 C 
HETATM    2  C2  UNL     1      24.419   6.967  49.757  1.00  0.00     0.221 C 
HETATM    3  O1  UNL     1      24.956   7.698  48.895  1.00  0.00    -0.273 OA
HETATM    4  N1  UNL     1      24.992   5.726  50.144  1.00  0.00    -0.300 N 
HETATM    5  C3  UNL     1      24.138   5.103  51.144  1.00  0.00     0.103 C 
HETATM    6  C4  UNL     1      24.305   3.799  50.975  1.00  0.00    -0.020 C 
HETATM    7  C5  UNL     1      24.490   3.337  49.533  1.00  0.00     0.053 C 
HETATM    8  C6  UNL     1      26.032   3.594  49.460  1.00  0.00     0.079 C 
HETATM    9  C7  UNL     1      26.510   2.813  50.675  1.00  0.00     0.095 C 
HETATM   10  N2  UNL     1      25.801   2.168  51.551  1.00  0.00    -0.275 NA
HETATM   11  C8  UNL     1      24.434   2.634  51.892  1.00  0.00     0.236 C 
HETATM   12  C15 UNL     1      26.207   5.088  49.710  1.00  0.00     0.239 C 
ENDROOT
BRANCH  12  13
HETATM   13  O2  UNL     1      26.704   5.741  48.614  1.00  0.00    -0.365 OA
BRANCH  13  14
HETATM   14  C16 UNL     1      28.048   5.631  48.390  1.00  0.00     0.172 C 
BRANCH  14  15
HETATM   15  C17 UNL     1      28.700   6.789  47.692  1.00  0.00     0.046 C 
BRANCH  15  16
HETATM   16  C18 UNL     1      29.804   7.354  48.587  1.00  0.00     0.126 C 
BRANCH  16  17
HETATM   17  N4  UNL     1      31.092   6.787  48.224  1.00  0.00    -0.366 N 
HETATM   18  C19 UNL     1      31.697   7.055  46.921  1.00  0.00     0.150 C 
HETATM   19  C20 UNL     1      32.427   5.764  46.531  1.00  0.00     0.188 C 
HETATM   20  O3  UNL     1      33.554   5.724  47.348  1.00  0.00    -0.382 OA
HETATM   21  C21 UNL     1      33.216   5.461  48.656  1.00  0.00     0.245 C 
HETATM   22  C22 UNL     1      31.885   5.944  49.057  1.00  0.00     0.118 C 
HETATM   23  N5  UNL     1      31.399   5.606  50.201  1.00  0.00    -0.286 NA
HETATM   24  H27 UNL     1      31.946   4.993  50.835  1.00  0.00     0.188 HD
ENDBRANCH  16  17
ENDBRANCH  15  16
ENDBRANCH  14  15
ENDBRANCH  13  14
ENDBRANCH  12  13
BRANCH  11  25
HETATM   25  N3  UNL     1      23.452   1.645  51.523  1.00  0.00    -0.364 N 
HETATM   26  H10 UNL     1      23.142   1.550  50.512  1.00  0.00     0.162 HD
BRANCH  25  27
HETATM   27  C9  UNL     1      22.775   0.699  52.371  1.00  0.00     0.031 A 
HETATM   28  C10 UNL     1      23.400  -0.108  53.330  1.00  0.00     0.032 A 
HETATM   29  C11 UNL     1      22.610  -0.966  54.061  1.00  0.00     0.046 A 
HETATM   30  C12 UNL     1      21.263  -1.091  53.924  1.00  0.00     0.138 A 
HETATM   31  F1  UNL     1      20.600  -1.976  54.706  1.00  0.00    -0.204 F 
HETATM   32  C13 UNL     1      20.610  -0.305  52.980  1.00  0.00     0.074 A 
HETATM   33 CL1  UNL     1      18.888  -0.428  52.769  1.00  0.00    -0.081 Cl
HETATM   34  C14 UNL     1      21.406   0.564  52.240  1.00  0.00     0.056 A 
ENDBRANCH  25  27
ENDBRANCH  11  25
TORSDOF 7
ENDMDL
MODEL 4
REMARK VINA RESULT:      -8.8      1.744      2.071
REMARK  7 active torsions:
REMARK  status: ('A' for Active; 'I' for Inactive)
REMARK       I    between atoms: C2_2  and  N1_4 
REMARK    1  A    between atoms: C8_11  and  N3_12 
REMARK    2  A    between atoms: N3_12  and  C9_13 
REMARK    3  A    between atoms: C15_21  and  O2_22 
REMARK    4  A    between atoms: O2_22  and  C16_23 
REMARK    5  A    between atoms: C16_23  and  C17_24 
REMARK    6  A    between atoms: C17_24  and  C18_25 
REMARK    7  A    between atoms: C18_25  and  N4_26 
ROOT
HETATM    1  C1  UNL     1      21.358  -1.654  54.567  1.00  0.00     0.117 C 
HETATM    2  C2  UNL     1      20.847  -0.612  53.684  1.00  0.00     0.221 C 
HETATM    3  O1  UNL     1      19.691  -0.950  53.344  1.00  0.00    -0.273 OA
HETATM    4  N1  UNL     1      21.438   0.595  53.223  1.00  0.00    -0.300 N 
HETATM    5  C3  UNL     1      22.781   0.704  53.772  1.00  0.00     0.103 C 
HETATM    6  C4  UNL     1      23.467   1.389  52.869  1.00  0.00    -0.020 C 
HETATM    7  C5  UNL     1      23.107   1.109  51.413  1.00  0.00     0.053 C 
HETATM    8  C6  UNL     1      21.907   2.109  51.330  1.00  0.00     0.079 C 
HETATM    9  C7  UNL     1      22.567   3.391  51.816  1.00  0.00     0.095 C 
HETATM   10  N2  UNL     1      23.784   3.564  52.235  1.00  0.00    -0.275 NA
HETATM   11  C8  UNL     1      24.496   2.463  52.930  1.00  0.00     0.236 C 
HETATM   12  C15 UNL     1      20.902   1.625  52.371  1.00  0.00     0.239 C 
ENDROOT
BRANCH  12  13
HETATM   13  O2  UNL     1      19.736   1.190  51.800  1.00  0.00    -0.365 OA
BRANCH  13  14
HETATM   14  C16 UNL     1      19.417   1.714  50.579  1.00  0.00     0.172 C 
BRANCH  14  15
HETATM   15  C17 UNL     1      18.154   1.203  49.948  1.00  0.00     0.046 C 
BRANCH  15  16
HETATM   16  C18 UNL     1      17.595   0.064  50.800  1.00  0.00     0.126 C 
BRANCH  16  17
HETATM   17  N4  UNL     1      16.331   0.453  51.401  1.00  0.00    -0.366 N 
HETATM   18  C19 UNL     1      15.456   1.433  50.759  1.00  0.00     0.150 C 
HETATM   19  C20 UNL     1      14.809   2.223  51.903  1.00  0.00     0.188 C 
HETATM   20  O3  UNL     1      13.874   1.353  52.460  1.00  0.00    -0.382 OA
HETATM   21  C21 UNL     1      14.489   0.331  53.148  1.00  0.00     0.245 C 
HETATM   22  C22 UNL     1      15.812  -0.051  52.630  1.00  0.00     0.118 C 
HETATM   23  N5  UNL     1      16.547  -0.874  53.296  1.00  0.00    -0.286 NA
HETATM   24  H27 UNL     1      16.203  -1.263  54.195  1.00  0.00     0.188 HD
ENDBRANCH  16  17
ENDBRANCH  15  16
ENDBRANCH  14  15
ENDBRANCH  13  14
ENDBRANCH  12  13
BRANCH  11  25
HETATM   25  N3  UNL     1      25.648   2.043  52.173  1.00  0.00    -0.364 N 
HETATM   26  H10 UNL     1      25.703   2.238  51.130  1.00  0.00     0.162 HD
BRANCH  25  27
HETATM   27  C9  UNL     1      26.820   1.349  52.640  1.00  0.00     0.031 A 
HETATM   28  C10 UNL     1      27.949   1.967  53.192  1.00  0.00     0.032 A 
HETATM   29  C11 UNL     1      28.992   1.160  53.590  1.00  0.00     0.046 A 
HETATM   30  C12 UNL     1      29.010  -0.195  53.488  1.00  0.00     0.138 A 
HETATM   31  F1  UNL     1      30.101  -0.873  53.916  1.00  0.00    -0.204 F 
HETATM   32  C13 UNL     1      27.904  -0.841  52.944  1.00  0.00     0.074 A 
HETATM   33 CL1  UNL     1      27.881  -2.573  52.795  1.00  0.00    -0.081 Cl
HETATM   34  C14 UNL     1      26.849  -0.029  52.541  1.00  0.00     0.056 A 
ENDBRANCH  25  27
ENDBRANCH  11  25
TORSDOF 7
ENDMDL
MODEL 5
REMARK VINA RESULT:      -8.7      3.186      4.334
REMARK  7 active torsions:
REMARK  status: ('A' for Active; 'I' for Inactive)
REMARK       I    between atoms: C2_2  and  N1_4 
REMARK    1  A    between atoms: C8_11  and  N3_12 
REMARK    2  A    between atoms: N3_12  and  C9_13 
REMARK    3  A    between atoms: C15_21  and  O2_22 
REMARK    4  A    between atoms: O2_22  and  C16_23 
REMARK    5  A    between atoms: C16_23  and  C17_24 
REMARK    6  A    between atoms: C17_24  and  C18_25 
REMARK    7  A    between atoms: C18_25  and  N4_26 
ROOT
HETATM    1  C1  UNL     1      21.437  -1.634  54.192  1.00  0.00     0.117 C 
HETATM    2  C2  UNL     1      21.049  -0.445  53.442  1.00  0.00     0.221 C 
HETATM    3  O1  UNL     1      19.883  -0.634  53.025  1.00  0.00    -0.273 OA
HETATM    4  N1  UNL     1      21.753   0.758  53.166  1.00  0.00    -0.300 N 
HETATM    5  C3  UNL     1      23.077   0.678  53.764  1.00  0.00     0.103 C 
HETATM    6  C4  UNL     1      23.853   1.414  52.982  1.00  0.00    -0.020 C 
HETATM    7  C5  UNL     1      23.531   1.361  51.491  1.00  0.00     0.053 C 
HETATM    8  C6  UNL     1      22.420   2.462  51.508  1.00  0.00     0.079 C 
HETATM    9  C7  UNL     1      23.162   3.607  52.182  1.00  0.00     0.095 C 
HETATM   10  N2  UNL     1      24.371   3.618  52.656  1.00  0.00    -0.275 NA
HETATM   11  C8  UNL     1      24.961   2.378  53.218  1.00  0.00     0.236 C 
HETATM   12  C15 UNL     1      21.338   1.932  52.444  1.00  0.00     0.239 C 
ENDROOT
BRANCH  12  13
HETATM   13  O2  UNL     1      20.165   1.678  51.785  1.00  0.00    -0.365 OA
BRANCH  13  14
HETATM   14  C16 UNL     1      19.165   2.598  51.934  1.00  0.00     0.172 C 
BRANCH  14  15
HETATM   15  C17 UNL     1      19.106   3.686  50.901  1.00  0.00     0.046 C 
BRANCH  15  16
HETATM   16  C18 UNL     1      18.851   3.060  49.530  1.00  0.00     0.126 C 
BRANCH  16  17
HETATM   17  N4  UNL     1      19.995   3.264  48.658  1.00  0.00    -0.366 N 
HETATM   18  C19 UNL     1      20.257   4.564  48.043  1.00  0.00     0.150 C 
HETATM   19  C20 UNL     1      20.841   4.258  46.659  1.00  0.00     0.188 C 
HETATM   20  O3  UNL     1      22.137   3.810  46.904  1.00  0.00    -0.382 OA
HETATM   21  C21 UNL     1      22.134   2.560  47.481  1.00  0.00     0.245 C 
HETATM   22  C22 UNL     1      20.957   2.268  48.313  1.00  0.00     0.118 C 
HETATM   23  N5  UNL     1      20.768   1.075  48.761  1.00  0.00    -0.286 NA
HETATM   24  H27 UNL     1      21.447   0.323  48.532  1.00  0.00     0.188 HD
ENDBRANCH  16  17
ENDBRANCH  15  16
ENDBRANCH  14  15
ENDBRANCH  13  14
ENDBRANCH  12  13
BRANCH  11  25
HETATM   25  N3  UNL     1      26.106   1.965  52.446  1.00  0.00    -0.364 N 
HETATM   26  H10 UNL     1      26.183   2.230  51.420  1.00  0.00     0.162 HD
BRANCH  25  27
HETATM   27  C9  UNL     1      27.243   1.192  52.876  1.00  0.00     0.031 A 
HETATM   28  C10 UNL     1      28.403   1.726  53.448  1.00  0.00     0.032 A 
HETATM   29  C11 UNL     1      29.404   0.851  53.805  1.00  0.00     0.046 A 
HETATM   30  C12 UNL     1      29.352  -0.499  53.644  1.00  0.00     0.138 A 
HETATM   31  F1  UNL     1      30.408  -1.250  54.036  1.00  0.00    -0.204 F 
HETATM   32  C13 UNL     1      28.214  -1.062  53.077  1.00  0.00     0.074 A 
HETATM   33 CL1  UNL     1      28.101  -2.782  52.852  1.00  0.00    -0.081 Cl
HETATM   34  C14 UNL     1      27.200  -0.180  52.716  1.00  0.00     0.056 A 
ENDBRANCH  25  27
ENDBRANCH  11  25
TORSDOF 7
ENDMDL
MODEL 6
REMARK VINA RESULT:      -8.6      6.202     10.348
REMARK  7 active torsions:
REMARK  status: ('A' for Active; 'I' for Inactive)
REMARK       I    between atoms: C2_2  and  N1_4 
REMARK    1  A    between atoms: C8_11  and  N3_12 
REMARK    2  A    between atoms: N3_12  and  C9_13 
REMARK    3  A    between atoms: C15_21  and  O2_22 
REMARK    4  A    between atoms: O2_22  and  C16_23 
REMARK    5  A    between atoms: C16_23  and  C17_24 
REMARK    6  A    between atoms: C17_24  and  C18_25 
REMARK    7  A    between atoms: C18_25  and  N4_26 
ROOT
HETATM    1  C1  UNL     1      23.068   7.646  50.290  1.00  0.00     0.117 C 
HETATM    2  C2  UNL     1      24.314   7.008  49.880  1.00  0.00     0.221 C 
HETATM    3  O1  UNL     1      24.875   7.779  49.069  1.00  0.00    -0.273 OA
HETATM    4  N1  UNL     1      24.895   5.766  50.253  1.00  0.00    -0.300 N 
HETATM    5  C3  UNL     1      24.009   5.093  51.190  1.00  0.00     0.103 C 
HETATM    6  C4  UNL     1      24.211   3.800  50.986  1.00  0.00    -0.020 C 
HETATM    7  C5  UNL     1      24.473   3.390  49.540  1.00  0.00     0.053 C 
HETATM    8  C6  UNL     1      26.011   3.680  49.548  1.00  0.00     0.079 C 
HETATM    9  C7  UNL     1      26.449   2.868  50.758  1.00  0.00     0.095 C 
HETATM   10  N2  UNL     1      25.714   2.179  51.577  1.00  0.00    -0.275 NA
HETATM   11  C8  UNL     1      24.323   2.606  51.869  1.00  0.00     0.236 C 
HETATM   12  C15 UNL     1      26.142   5.168  49.855  1.00  0.00     0.239 C 
ENDROOT
BRANCH  12  13
HETATM   13  O2  UNL     1      26.675   5.867  48.805  1.00  0.00    -0.365 OA
BRANCH  13  14
HETATM   14  C16 UNL     1      27.927   5.502  48.396  1.00  0.00     0.172 C 
BRANCH  14  15
HETATM   15  C17 UNL     1      28.701   6.535  47.629  1.00  0.00     0.046 C 
BRANCH  15  16
HETATM   16  C18 UNL     1      29.676   7.235  48.577  1.00  0.00     0.126 C 
BRANCH  16  17
HETATM   17  N4  UNL     1      29.426   8.666  48.597  1.00  0.00    -0.366 N 
HETATM   18  C19 UNL     1      30.279   9.595  47.856  1.00  0.00     0.150 C 
HETATM   19  C20 UNL     1      30.354  10.862  48.715  1.00  0.00     0.188 C 
HETATM   20  O3  UNL     1      29.108  11.470  48.574  1.00  0.00    -0.382 OA
HETATM   21  C21 UNL     1      28.126  10.757  49.224  1.00  0.00     0.245 C 
HETATM   22  C22 UNL     1      28.367   9.308  49.305  1.00  0.00     0.118 C 
HETATM   23  N5  UNL     1      27.603   8.571  50.035  1.00  0.00    -0.286 NA
HETATM   24  H27 UNL     1      26.822   9.002  50.565  1.00  0.00     0.188 HD
ENDBRANCH  16  17
ENDBRANCH  15  16
ENDBRANCH  14  15
ENDBRANCH  13  14
ENDBRANCH  12  13
BRANCH  11  25
HETATM   25  N3  UNL     1      23.380   1.612  51.423  1.00  0.00    -0.364 N 
HETATM   26  H10 UNL     1      23.202   1.471  50.385  1.00  0.00     0.162 HD
BRANCH  25  27
HETATM   27  C9  UNL     1      22.584   0.714  52.219  1.00  0.00     0.031 A 
HETATM   28  C10 UNL     1      21.248   0.385  51.960  1.00  0.00     0.032 A 
HETATM   29  C11 UNL     1      20.624  -0.490  52.821  1.00  0.00     0.046 A 
HETATM   30  C12 UNL     1      21.208  -1.063  53.907  1.00  0.00     0.138 A 
HETATM   31  F1  UNL     1      20.482  -1.908  54.676  1.00  0.00    -0.204 F 
HETATM   32  C13 UNL     1      22.535  -0.758  54.193  1.00  0.00     0.074 A 
HETATM   33 CL1  UNL     1      23.325  -1.466  55.570  1.00  0.00    -0.081 Cl
HETATM   34  C14 UNL     1      23.168   0.127  53.325  1.00  0.00     0.056 A 
ENDBRANCH  25  27
ENDBRANCH  11  25
TORSDOF 7
ENDMDL
MODEL 7
REMARK VINA RESULT:      -8.5      2.796      3.190
REMARK  7 active torsions:
REMARK  status: ('A' for Active; 'I' for Inactive)
REMARK       I    between atoms: C2_2  and  N1_4 
REMARK    1  A    between atoms: C8_11  and  N3_12 
REMARK    2  A    between atoms: N3_12  and  C9_13 
REMARK    3  A    between atoms: C15_21  and  O2_22 
REMARK    4  A    between atoms: O2_22  and  C16_23 
REMARK    5  A    between atoms: C16_23  and  C17_24 
REMARK    6  A    between atoms: C17_24  and  C18_25 
REMARK    7  A    between atoms: C18_25  and  N4_26 
ROOT
HETATM    1  C1  UNL     1      21.206  -1.869  54.641  1.00  0.00     0.117 C 
HETATM    2  C2  UNL     1      20.600  -0.857  53.783  1.00  0.00     0.221 C 
HETATM    3  O1  UNL     1      19.464  -1.275  53.462  1.00  0.00    -0.273 OA
HETATM    4  N1  UNL     1      21.089   0.396  53.326  1.00  0.00    -0.300 N 
HETATM    5  C3  UNL     1      22.432   0.597  53.848  1.00  0.00     0.103 C 
HETATM    6  C4  UNL     1      23.046   1.342  52.940  1.00  0.00    -0.020 C 
HETATM    7  C5  UNL     1      22.676   1.055  51.488  1.00  0.00     0.053 C 
HETATM    8  C6  UNL     1      21.403   1.964  51.445  1.00  0.00     0.079 C 
HETATM    9  C7  UNL     1      21.978   3.285  51.934  1.00  0.00     0.095 C 
HETATM   10  N2  UNL     1      23.188   3.542  52.330  1.00  0.00    -0.275 NA
HETATM   11  C8  UNL     1      23.993   2.489  52.995  1.00  0.00     0.236 C 
HETATM   12  C15 UNL     1      20.461   1.393  52.499  1.00  0.00     0.239 C 
ENDROOT
BRANCH  12  13
HETATM   13  O2  UNL     1      19.317   0.881  51.947  1.00  0.00    -0.365 OA
BRANCH  13  14
HETATM   14  C16 UNL     1      19.221   0.922  50.584  1.00  0.00     0.172 C 
BRANCH  14  15
HETATM   15  C17 UNL     1      17.831   0.891  50.017  1.00  0.00     0.046 C 
BRANCH  15  16
HETATM   16  C18 UNL     1      16.823   0.837  51.166  1.00  0.00     0.126 C 
BRANCH  16  17
HETATM   17  N4  UNL     1      16.170  -0.460  51.207  1.00  0.00    -0.366 N 
HETATM   18  C19 UNL     1      15.491  -1.005  50.032  1.00  0.00     0.150 C 
HETATM   19  C20 UNL     1      14.281  -1.775  50.573  1.00  0.00     0.188 C 
HETATM   20  O3  UNL     1      14.812  -2.933  51.138  1.00  0.00    -0.382 OA
HETATM   21  C21 UNL     1      15.499  -2.655  52.298  1.00  0.00     0.245 C 
HETATM   22  C22 UNL     1      16.116  -1.320  52.344  1.00  0.00     0.118 C 
HETATM   23  N5  UNL     1      16.636  -0.893  53.442  1.00  0.00    -0.286 NA
HETATM   24  H27 UNL     1      16.616  -1.490  54.291  1.00  0.00     0.188 HD
ENDBRANCH  16  17
ENDBRANCH  15  16
ENDBRANCH  14  15
ENDBRANCH  13  14
ENDBRANCH  12  13
BRANCH  11  25
HETATM   25  N3  UNL     1      25.157   2.165  52.208  1.00  0.00    -0.364 N 
HETATM   26  H10 UNL     1      25.255   2.540  51.219  1.00  0.00     0.162 HD
BRANCH  25  27
HETATM   27  C9  UNL     1      26.288   1.353  52.577  1.00  0.00     0.031 A 
HETATM   28  C10 UNL     1      26.427  -0.008  52.282  1.00  0.00     0.032 A 
HETATM   29  C11 UNL     1      27.571  -0.644  52.708  1.00  0.00     0.046 A 
HETATM   30  C12 UNL     1      28.582  -0.049  53.395  1.00  0.00     0.138 A 
HETATM   31  F1  UNL     1      29.656  -0.789  53.758  1.00  0.00    -0.204 F 
HETATM   32  C13 UNL     1      28.476   1.303  53.706  1.00  0.00     0.074 A 
HETATM   33 CL1  UNL     1      29.744   2.107  54.582  1.00  0.00    -0.081 Cl
HETATM   34  C14 UNL     1      27.320   1.948  53.276  1.00  0.00     0.056 A 
ENDBRANCH  25  27
ENDBRANCH  11  25
TORSDOF 7
ENDMDL
MODEL 8
REMARK VINA RESULT:      -8.5      4.928     10.377
REMARK  7 active torsions:
REMARK  status: ('A' for Active; 'I' for Inactive)
REMARK       I    between atoms: C2_2  and  N1_4 
REMARK    1  A    between atoms: C8_11  and  N3_12 
REMARK    2  A    between atoms: N3_12  and  C9_13 
REMARK    3  A    between atoms: C15_21  and  O2_22 
REMARK    4  A    between atoms: O2_22  and  C16_23 
REMARK    5  A    between atoms: C16_23  and  C17_24 
REMARK    6  A    between atoms: C17_24  and  C18_25 
REMARK    7  A    between atoms: C18_25  and  N4_26 
ROOT
HETATM    1  C1  UNL     1      21.141  -1.283  54.324  1.00  0.00     0.117 C 
HETATM    2  C2  UNL     1      21.872  -0.523  53.317  1.00  0.00     0.221 C 
HETATM    3  O1  UNL     1      23.092  -0.670  53.556  1.00  0.00    -0.273 OA
HETATM    4  N1  UNL     1      21.415   0.268  52.228  1.00  0.00    -0.300 N 
HETATM    5  C3  UNL     1      19.960   0.261  52.218  1.00  0.00     0.103 C 
HETATM    6  C4  UNL     1      19.615   1.429  51.697  1.00  0.00    -0.020 C 
HETATM    7  C5  UNL     1      20.509   2.609  52.067  1.00  0.00     0.053 C 
HETATM    8  C6  UNL     1      21.583   2.375  50.953  1.00  0.00     0.079 C 
HETATM    9  C7  UNL     1      20.703   2.326  49.713  1.00  0.00     0.095 C 
HETATM   10  N2  UNL     1      19.409   2.401  49.636  1.00  0.00    -0.275 NA
HETATM   11  C8  UNL     1      18.567   1.879  50.741  1.00  0.00     0.236 C 
HETATM   12  C15 UNL     1      22.158   0.990  51.229  1.00  0.00     0.239 C 
ENDROOT
BRANCH  12  13
HETATM   13  O2  UNL     1      23.480   1.040  51.583  1.00  0.00    -0.365 OA
BRANCH  13  14
HETATM   14  C16 UNL     1      24.180   2.145  51.188  1.00  0.00     0.172 C 
BRANCH  14  15
HETATM   15  C17 UNL     1      25.248   2.624  52.128  1.00  0.00     0.046 C 
BRANCH  15  16
HETATM   16  C18 UNL     1      26.594   2.043  51.693  1.00  0.00     0.126 C 
BRANCH  16  17
HETATM   17  N4  UNL     1      27.219   1.330  52.794  1.00  0.00    -0.366 N 
HETATM   18  C19 UNL     1      26.634   0.103  53.332  1.00  0.00     0.150 C 
HETATM   19  C20 UNL     1      26.917   0.135  54.838  1.00  0.00     0.188 C 
HETATM   20  O3  UNL     1      28.277  -0.141  54.958  1.00  0.00    -0.382 OA
HETATM   21  C21 UNL     1      29.043   0.914  54.514  1.00  0.00     0.245 C 
HETATM   22  C22 UNL     1      28.423   1.721  53.451  1.00  0.00     0.118 C 
HETATM   23  N5  UNL     1      28.974   2.826  53.083  1.00  0.00    -0.286 NA
HETATM   24  H27 UNL     1      29.851   3.143  53.538  1.00  0.00     0.188 HD
ENDBRANCH  16  17
ENDBRANCH  15  16
ENDBRANCH  14  15
ENDBRANCH  13  14
ENDBRANCH  12  13
BRANCH  11  25
HETATM   25  N3  UNL     1      17.810   2.944  51.351  1.00  0.00    -0.364 N 
HETATM   26  H10 UNL     1      18.217   3.924  51.408  1.00  0.00     0.162 HD
BRANCH  25  27
HETATM   27  C9  UNL     1      16.498   2.884  51.940  1.00  0.00     0.031 A 
HETATM   28  C10 UNL     1      15.763   3.994  52.374  1.00  0.00     0.032 A 
HETATM   29  C11 UNL     1      14.519   3.768  52.918  1.00  0.00     0.046 A 
HETATM   30  C12 UNL     1      13.945   2.545  53.067  1.00  0.00     0.138 A 
HETATM   31  F1  UNL     1      12.713   2.458  53.620  1.00  0.00    -0.204 F 
HETATM   32  C13 UNL     1      14.648   1.420  52.646  1.00  0.00     0.074 A 
HETATM   33 CL1  UNL     1      13.954  -0.166  52.814  1.00  0.00    -0.081 Cl
HETATM   34  C14 UNL     1      15.906   1.645  52.095  1.00  0.00     0.056 A 
ENDBRANCH  25  27
ENDBRANCH  11  25
TORSDOF 7
ENDMDL
MODEL 9
REMARK VINA RESULT:      -8.3      1.816      2.876
REMARK  7 active torsions:
REMARK  status: ('A' for Active; 'I' for Inactive)
REMARK       I    between atoms: C2_2  and  N1_4 
REMARK    1  A    between atoms: C8_11  and  N3_12 
REMARK    2  A    between atoms: N3_12  and  C9_13 
REMARK    3  A    between atoms: C15_21  and  O2_22 
REMARK    4  A    between atoms: O2_22  and  C16_23 
REMARK    5  A    between atoms: C16_23  and  C17_24 
REMARK    6  A    between atoms: C17_24  and  C18_25 
REMARK    7  A    between atoms: C18_25  and  N4_26 
ROOT
HETATM    1  C1  UNL     1      20.332   2.033  48.683  1.00  0.00     0.117 C 
HETATM    2  C2  UNL     1      19.593   1.406  49.773  1.00  0.00     0.221 C 
HETATM    3  O1  UNL     1      18.379   1.647  49.584  1.00  0.00    -0.273 OA
HETATM    4  N1  UNL     1      20.037   0.643  50.887  1.00  0.00    -0.300 N 
HETATM    5  C3  UNL     1      21.488   0.546  50.844  1.00  0.00     0.103 C 
HETATM    6  C4  UNL     1      21.864   0.454  52.111  1.00  0.00    -0.020 C 
HETATM    7  C5  UNL     1      21.043   1.270  53.106  1.00  0.00     0.053 C 
HETATM    8  C6  UNL     1      19.911   0.210  53.314  1.00  0.00     0.079 C 
HETATM    9  C7  UNL     1      20.731  -1.017  53.686  1.00  0.00     0.095 C 
HETATM   10  N2  UNL     1      22.022  -1.136  53.748  1.00  0.00    -0.275 NA
HETATM   11  C8  UNL     1      22.888  -0.339  52.844  1.00  0.00     0.236 C 
HETATM   12  C15 UNL     1      19.285   0.009  51.938  1.00  0.00     0.239 C 
ENDROOT
BRANCH  12  13
HETATM   13  O2  UNL     1      17.984   0.435  51.895  1.00  0.00    -0.365 OA
BRANCH  13  14
HETATM   14  C16 UNL     1      17.040  -0.426  52.381  1.00  0.00     0.172 C 
BRANCH  14  15
HETATM   15  C17 UNL     1      15.674   0.153  52.615  1.00  0.00     0.046 C 
BRANCH  15  16
HETATM   16  C18 UNL     1      15.602   1.540  51.975  1.00  0.00     0.126 C 
BRANCH  16  17
HETATM   17  N4  UNL     1      14.751   2.417  52.760  1.00  0.00    -0.366 N 
HETATM   18  C19 UNL     1      13.479   1.948  53.308  1.00  0.00     0.150 C 
HETATM   19  C20 UNL     1      12.531   3.152  53.244  1.00  0.00     0.188 C 
HETATM   20  O3  UNL     1      12.962   4.006  54.257  1.00  0.00    -0.382 OA
HETATM   21  C21 UNL     1      14.168   4.590  53.941  1.00  0.00     0.245 C 
HETATM   22  C22 UNL     1      15.039   3.777  53.079  1.00  0.00     0.118 C 
HETATM   23  N5  UNL     1      16.112   4.292  52.584  1.00  0.00    -0.286 NA
HETATM   24  H27 UNL     1      16.356   5.279  52.794  1.00  0.00     0.188 HD
ENDBRANCH  16  17
ENDBRANCH  15  16
ENDBRANCH  14  15
ENDBRANCH  13  14
ENDBRANCH  12  13
BRANCH  11  25
HETATM   25  N3  UNL     1      23.719   0.564  53.599  1.00  0.00    -0.364 N 
HETATM   26  H10 UNL     1      23.290   1.192  54.341  1.00  0.00     0.162 HD
BRANCH  25  27
HETATM   27  C9  UNL     1      25.142   0.765  53.500  1.00  0.00     0.031 A 
HETATM   28  C10 UNL     1      25.780   2.009  53.552  1.00  0.00     0.032 A 
HETATM   29  C11 UNL     1      27.152   2.032  53.440  1.00  0.00     0.046 A 
HETATM   30  C12 UNL     1      27.939   0.935  53.281  1.00  0.00     0.138 A 
HETATM   31  F1  UNL     1      29.279   1.094  53.181  1.00  0.00    -0.204 F 
HETATM   32  C13 UNL     1      27.336  -0.318  53.225  1.00  0.00     0.074 A 
HETATM   33 CL1  UNL     1      28.301  -1.751  53.025  1.00  0.00    -0.081 Cl
HETATM   34  C14 UNL     1      25.950  -0.345  53.339  1.00  0.00     0.056 A 
ENDBRANCH  25  27
ENDBRANCH  11  25
TORSDOF 7
ENDMDL
