MODEL 1
REMARK VINA RESULT:      -7.7      0.000      0.000
REMARK  8 active torsions:
REMARK  status: ('A' for Active; 'I' for Inactive)
REMARK    1  A    between atoms: C2_2  and  N1_3 
REMARK    2  A    between atoms: N1_3  and  C4_5 
REMARK    3  A    between atoms: C4_5  and  C5_6 
REMARK    4  A    between atoms: C5_6  and  N2_7 
REMARK    5  A    between atoms: N2_7  and  C6_8 
REMARK    6  A    between atoms: C12_16  and  N4_17 
REMARK    7  A    between atoms: N4_17  and  C13_18 
REMARK    8  A    between atoms: C13_18  and  C14_19 
ROOT
HETATM    1  C6  UNL     1      19.801  -0.105  52.515  1.00  0.00     0.056 A 
HETATM    2  C7  UNL     1      19.880  -0.965  53.512  1.00  0.00     0.030 A 
HETATM    3  C8  UNL     1      21.076  -1.095  54.329  1.00  0.00     0.019 A 
HETATM    4  C9  UNL     1      22.153  -0.365  54.125  1.00  0.00     0.097 A 
HETATM    5  N3  UNL     1      22.076   0.564  53.053  1.00  0.00    -0.289 N 
HETATM    6  C10 UNL     1      23.362   1.201  53.072  1.00  0.00     0.268 C 
HETATM    7  O1  UNL     1      24.208   0.543  53.767  1.00  0.00    -0.266 OA
HETATM    8  C11 UNL     1      23.987   2.399  52.519  1.00  0.00     0.088 C 
HETATM    9  C12 UNL     1      25.197   2.699  52.965  1.00  0.00     0.107 C 
HETATM   10  S1  UNL     1      23.377   3.554  51.298  1.00  0.00    -0.093 SA
HETATM   11  C19 UNL     1      21.671   3.907  51.678  1.00  0.00     0.084 C 
HETATM   12  C20 UNL     1      20.756   3.350  52.436  1.00  0.00     0.089 C 
HETATM   13  N5  UNL     1      20.431   2.139  52.304  1.00  0.00    -0.248 NA
HETATM   14  C21 UNL     1      20.954   0.800  52.168  1.00  0.00     0.173 A 
HETATM   15  C22 UNL     1      21.392   0.492  50.751  1.00  0.00     0.073 C 
ENDROOT
BRANCH   9  16
HETATM   16  N4  UNL     1      26.331   2.463  53.771  1.00  0.00    -0.397 N 
HETATM   17  H16 UNL     1      26.358   2.787  54.783  1.00  0.00     0.158 HD
BRANCH  16  18
HETATM   18  C13 UNL     1      27.484   1.768  53.215  1.00  0.00     0.131 C 
BRANCH  18  19
HETATM   19  C14 UNL     1      27.923   0.637  54.122  1.00  0.00     0.048 A 
HETATM   20  C15 UNL     1      29.404   0.606  54.128  1.00  0.00    -0.017 A 
HETATM   21  C16 UNL     1      29.812  -0.524  53.569  1.00  0.00    -0.004 A 
HETATM   22  C17 UNL     1      28.672  -1.335  53.148  1.00  0.00    -0.004 A 
HETATM   23  C18 UNL     1      27.576  -0.644  53.477  1.00  0.00    -0.017 A 
ENDBRANCH  18  19
ENDBRANCH  16  18
ENDBRANCH   9  16
BRANCH   1  24
HETATM   24  N2  UNL     1      18.764   0.200  51.595  1.00  0.00    -0.388 N 
HETATM   25  H11 UNL     1      19.157   0.605  50.693  1.00  0.00     0.159 HD
BRANCH  24  26
HETATM   26  C5  UNL     1      17.323   0.078  51.628  1.00  0.00     0.139 C 
BRANCH  26  27
HETATM   27  C4  UNL     1      16.756   1.146  50.721  1.00  0.00     0.141 C 
BRANCH  27  28
HETATM   28  N1  UNL     1      16.150   2.162  51.556  1.00  0.00    -0.393 N 
HETATM   29  C3  UNL     1      14.957   2.065  52.333  1.00  0.00     0.148 C 
BRANCH  28  30
HETATM   30  C2  UNL     1      16.617   3.465  51.774  1.00  0.00     0.075 C 
HETATM   31  C1  UNL     1      15.992   4.172  50.854  1.00  0.00     0.029 C 
ENDBRANCH  28  30
ENDBRANCH  27  28
ENDBRANCH  26  27
ENDBRANCH  24  26
ENDBRANCH   1  24
TORSDOF 8
ENDMDL
MODEL 2
REMARK VINA RESULT:      -7.5      4.103      5.581
REMARK  8 active torsions:
REMARK  status: ('A' for Active; 'I' for Inactive)
REMARK    1  A    between atoms: C2_2  and  N1_3 
REMARK    2  A    between atoms: N1_3  and  C4_5 
REMARK    3  A    between atoms: C4_5  and  C5_6 
REMARK    4  A    between atoms: C5_6  and  N2_7 
REMARK    5  A    between atoms: N2_7  and  C6_8 
REMARK    6  A    between atoms: C12_16  and  N4_17 
REMARK    7  A    between atoms: N4_17  and  C13_18 
REMARK    8  A    between atoms: C13_18  and  C14_19 
ROOT
HETATM    1  C6  UNL     1      24.113   0.711  52.813  1.00  0.00     0.056 A 
HETATM    2  C7  UNL     1      25.219   0.019  53.008  1.00  0.00     0.030 A 
HETATM    3  C8  UNL     1      26.479   0.382  52.380  1.00  0.00     0.019 A 
HETATM    4  C9  UNL     1      26.596   1.421  51.580  1.00  0.00     0.097 A 
HETATM    5  N3  UNL     1      25.410   2.172  51.365  1.00  0.00    -0.289 N 
HETATM    6  C10 UNL     1      25.832   3.217  50.476  1.00  0.00     0.268 C 
HETATM    7  O1  UNL     1      26.962   2.955  49.939  1.00  0.00    -0.266 OA
HETATM    8  C11 UNL     1      25.337   4.506  50.004  1.00  0.00     0.088 C 
HETATM    9  C12 UNL     1      26.179   5.245  49.298  1.00  0.00     0.107 C 
HETATM   10  S1  UNL     1      23.735   5.270  50.219  1.00  0.00    -0.093 SA
HETATM   11  C19 UNL     1      23.237   5.038  51.916  1.00  0.00     0.084 C 
HETATM   12  C20 UNL     1      23.631   4.262  52.899  1.00  0.00     0.089 C 
HETATM   13  N5  UNL     1      23.665   3.008  52.782  1.00  0.00    -0.248 NA
HETATM   14  C21 UNL     1      24.096   1.928  51.925  1.00  0.00     0.173 A 
HETATM   15  C22 UNL     1      23.132   1.675  50.786  1.00  0.00     0.073 C 
ENDROOT
BRANCH   9  16
HETATM   16  N4  UNL     1      27.428   5.487  48.689  1.00  0.00    -0.397 N 
HETATM   17  H16 UNL     1      28.058   4.683  48.396  1.00  0.00     0.158 HD
BRANCH  16  18
HETATM   18  C13 UNL     1      27.869   6.856  48.457  1.00  0.00     0.131 C 
BRANCH  18  19
HETATM   19  C14 UNL     1      29.201   6.881  47.737  1.00  0.00     0.048 A 
HETATM   20  C15 UNL     1      29.906   5.613  48.040  1.00  0.00    -0.017 A 
HETATM   21  C16 UNL     1      30.995   5.885  48.745  1.00  0.00    -0.004 A 
HETATM   22  C17 UNL     1      31.119   7.322  48.973  1.00  0.00    -0.004 A 
HETATM   23  C18 UNL     1      30.064   7.890  48.379  1.00  0.00    -0.017 A 
ENDBRANCH  18  19
ENDBRANCH  16  18
ENDBRANCH   9  16
BRANCH   1  24
HETATM   24  N2  UNL     1      22.790   0.557  53.304  1.00  0.00    -0.388 N 
HETATM   25  H11 UNL     1      22.435   1.459  53.742  1.00  0.00     0.159 HD
BRANCH  24  26
HETATM   26  C5  UNL     1      21.850  -0.542  53.332  1.00  0.00     0.139 C 
BRANCH  26  27
HETATM   27  C4  UNL     1      20.492   0.030  53.669  1.00  0.00     0.141 C 
BRANCH  27  28
HETATM   28  N1  UNL     1      20.044   0.809  52.534  1.00  0.00    -0.393 N 
HETATM   29  C3  UNL     1      19.900   2.226  52.441  1.00  0.00     0.148 C 
BRANCH  28  30
HETATM   30  C2  UNL     1      19.653   0.323  51.279  1.00  0.00     0.075 C 
HETATM   31  C1  UNL     1      18.401  -0.042  51.467  1.00  0.00     0.029 C 
ENDBRANCH  28  30
ENDBRANCH  27  28
ENDBRANCH  26  27
ENDBRANCH  24  26
ENDBRANCH   1  24
TORSDOF 8
ENDMDL
MODEL 3
REMARK VINA RESULT:      -7.4      2.342      9.733
REMARK  8 active torsions:
REMARK  status: ('A' for Active; 'I' for Inactive)
REMARK    1  A    between atoms: C2_2  and  N1_3 
REMARK    2  A    between atoms: N1_3  and  C4_5 
REMARK    3  A    between atoms: C4_5  and  C5_6 
REMARK    4  A    between atoms: C5_6  and  N2_7 
REMARK    5  A    between atoms: N2_7  and  C6_8 
REMARK    6  A    between atoms: C12_16  and  N4_17 
REMARK    7  A    between atoms: N4_17  and  C13_18 
REMARK    8  A    between atoms: C13_18  and  C14_19 
ROOT
HETATM    1  C6  UNL     1      23.581   2.057  52.539  1.00  0.00     0.056 A 
HETATM    2  C7  UNL     1      23.964   3.309  52.700  1.00  0.00     0.030 A 
HETATM    3  C8  UNL     1      23.045   4.424  52.550  1.00  0.00     0.019 A 
HETATM    4  C9  UNL     1      21.775   4.257  52.244  1.00  0.00     0.097 A 
HETATM    5  N3  UNL     1      21.354   2.912  52.069  1.00  0.00    -0.289 N 
HETATM    6  C10 UNL     1      19.959   3.037  51.752  1.00  0.00     0.268 C 
HETATM    7  O1  UNL     1      19.654   4.233  51.421  1.00  0.00    -0.266 OA
HETATM    8  C11 UNL     1      18.777   2.183  51.700  1.00  0.00     0.088 C 
HETATM    9  C12 UNL     1      17.612   2.787  51.526  1.00  0.00     0.107 C 
HETATM   10  S1  UNL     1      18.639   0.404  51.825  1.00  0.00    -0.093 SA
HETATM   11  C19 UNL     1      19.695  -0.138  53.156  1.00  0.00     0.084 C 
HETATM   12  C20 UNL     1      20.678   0.403  53.838  1.00  0.00     0.089 C 
HETATM   13  N5  UNL     1      21.703   0.867  53.272  1.00  0.00    -0.248 NA
HETATM   14  C21 UNL     1      22.156   1.712  52.191  1.00  0.00     0.173 A 
HETATM   15  C22 UNL     1      22.150   0.996  50.857  1.00  0.00     0.073 C 
ENDROOT
BRANCH   9  16
HETATM   16  N4  UNL     1      16.808   3.932  51.345  1.00  0.00    -0.397 N 
HETATM   17  H16 UNL     1      16.813   4.463  50.424  1.00  0.00     0.158 HD
BRANCH  16  18
HETATM   18  C13 UNL     1      15.959   4.401  52.432  1.00  0.00     0.131 C 
BRANCH  18  19
HETATM   19  C14 UNL     1      14.718   3.541  52.557  1.00  0.00     0.048 A 
HETATM   20  C15 UNL     1      13.911   3.726  51.328  1.00  0.00    -0.017 A 
HETATM   21  C16 UNL     1      12.768   4.316  51.650  1.00  0.00    -0.004 A 
HETATM   22  C17 UNL     1      12.705   4.574  53.086  1.00  0.00    -0.004 A 
HETATM   23  C18 UNL     1      13.850   4.117  53.602  1.00  0.00    -0.017 A 
ENDBRANCH  18  19
ENDBRANCH  16  18
ENDBRANCH   9  16
BRANCH   1  24
HETATM   24  N2  UNL     1      24.278   0.824  52.631  1.00  0.00    -0.388 N 
HETATM   25  H11 UNL     1      23.605   0.009  52.752  1.00  0.00     0.159 HD
BRANCH  24  26
HETATM   26  C5  UNL     1      25.677   0.455  52.596  1.00  0.00     0.139 C 
BRANCH  26  27
HETATM   27  C4  UNL     1      26.164   0.387  54.025  1.00  0.00     0.141 C 
BRANCH  27  28
HETATM   28  N1  UNL     1      27.525  -0.107  54.008  1.00  0.00    -0.393 N 
HETATM   29  C3  UNL     1      28.613   0.283  54.846  1.00  0.00     0.148 C 
BRANCH  28  30
HETATM   30  C2  UNL     1      28.059  -1.080  53.152  1.00  0.00     0.075 C 
HETATM   31  C1  UNL     1      29.341  -1.083  53.455  1.00  0.00     0.029 C 
ENDBRANCH  28  30
ENDBRANCH  27  28
ENDBRANCH  26  27
ENDBRANCH  24  26
ENDBRANCH   1  24
TORSDOF 8
ENDMDL
MODEL 4
REMARK VINA RESULT:      -7.2      5.872      9.685
REMARK  8 active torsions:
REMARK  status: ('A' for Active; 'I' for Inactive)
REMARK    1  A    between atoms: C2_2  and  N1_3 
REMARK    2  A    between atoms: N1_3  and  C4_5 
REMARK    3  A    between atoms: C4_5  and  C5_6 
REMARK    4  A    between atoms: C5_6  and  N2_7 
REMARK    5  A    between atoms: N2_7  and  C6_8 
REMARK    6  A    between atoms: C12_16  and  N4_17 
REMARK    7  A    between atoms: N4_17  and  C13_18 
REMARK    8  A    between atoms: C13_18  and  C14_19 
ROOT
HETATM    1  C6  UNL     1      26.993   7.192  48.407  1.00  0.00     0.056 A 
HETATM    2  C7  UNL     1      28.040   6.442  48.121  1.00  0.00     0.030 A 
HETATM    3  C8  UNL     1      28.108   5.037  48.488  1.00  0.00     0.019 A 
HETATM    4  C9  UNL     1      27.133   4.426  49.127  1.00  0.00     0.097 A 
HETATM    5  N3  UNL     1      26.001   5.226  49.438  1.00  0.00    -0.289 N 
HETATM    6  C10 UNL     1      25.123   4.314  50.114  1.00  0.00     0.268 C 
HETATM    7  O1  UNL     1      25.735   3.256  50.489  1.00  0.00    -0.266 OA
HETATM    8  C11 UNL     1      23.717   4.245  50.501  1.00  0.00     0.088 C 
HETATM    9  C12 UNL     1      23.283   3.085  50.967  1.00  0.00     0.107 C 
HETATM   10  S1  UNL     1      22.451   5.507  50.456  1.00  0.00    -0.093 SA
HETATM   11  C19 UNL     1      22.590   6.373  48.902  1.00  0.00     0.084 C 
HETATM   12  C20 UNL     1      23.510   6.461  47.970  1.00  0.00     0.089 C 
HETATM   13  N5  UNL     1      24.687   6.828  48.231  1.00  0.00    -0.248 NA
HETATM   14  C21 UNL     1      25.798   6.627  49.131  1.00  0.00     0.173 A 
HETATM   15  C22 UNL     1      25.630   7.381  50.433  1.00  0.00     0.073 C 
ENDROOT
BRANCH   9  16
HETATM   16  N4  UNL     1      23.462   1.734  51.332  1.00  0.00    -0.397 N 
HETATM   17  H16 UNL     1      23.685   0.996  50.601  1.00  0.00     0.158 HD
BRANCH  16  18
HETATM   18  C13 UNL     1      23.338   1.338  52.729  1.00  0.00     0.131 C 
BRANCH  18  19
HETATM   19  C14 UNL     1      22.549   0.051  52.857  1.00  0.00     0.048 A 
HETATM   20  C15 UNL     1      21.263   0.370  53.520  1.00  0.00    -0.017 A 
HETATM   21  C16 UNL     1      21.229  -0.229  54.701  1.00  0.00    -0.004 A 
HETATM   22  C17 UNL     1      22.456  -0.986  54.934  1.00  0.00    -0.004 A 
HETATM   23  C18 UNL     1      23.218  -0.812  53.849  1.00  0.00    -0.017 A 
ENDBRANCH  18  19
ENDBRANCH  16  18
ENDBRANCH   9  16
BRANCH   1  24
HETATM   24  N2  UNL     1      26.698   8.558  48.158  1.00  0.00    -0.388 N 
HETATM   25  H11 UNL     1      25.680   8.778  48.376  1.00  0.00     0.159 HD
BRANCH  24  26
HETATM   26  C5  UNL     1      27.473   9.683  47.682  1.00  0.00     0.139 C 
BRANCH  26  27
HETATM   27  C4  UNL     1      27.899  10.486  48.891  1.00  0.00     0.141 C 
BRANCH  27  28
HETATM   28  N1  UNL     1      29.341  10.410  48.989  1.00  0.00    -0.393 N 
HETATM   29  C3  UNL     1      30.296  11.438  48.727  1.00  0.00     0.148 C 
BRANCH  28  30
HETATM   30  C2  UNL     1      30.104   9.297  49.365  1.00  0.00     0.075 C 
HETATM   31  C1  UNL     1      31.024   9.223  48.424  1.00  0.00     0.029 C 
ENDBRANCH  28  30
ENDBRANCH  27  28
ENDBRANCH  26  27
ENDBRANCH  24  26
ENDBRANCH   1  24
TORSDOF 8
ENDMDL
MODEL 5
REMARK VINA RESULT:      -7.1      4.579      6.062
REMARK  8 active torsions:
REMARK  status: ('A' for Active; 'I' for Inactive)
REMARK    1  A    between atoms: C2_2  and  N1_3 
REMARK    2  A    between atoms: N1_3  and  C4_5 
REMARK    3  A    between atoms: C4_5  and  C5_6 
REMARK    4  A    between atoms: C5_6  and  N2_7 
REMARK    5  A    between atoms: N2_7  and  C6_8 
REMARK    6  A    between atoms: C12_16  and  N4_17 
REMARK    7  A    between atoms: N4_17  and  C13_18 
REMARK    8  A    between atoms: C13_18  and  C14_19 
ROOT
HETATM    1  C6  UNL     1      23.268   1.926  51.535  1.00  0.00     0.056 A 
HETATM    2  C7  UNL     1      24.138   1.167  52.173  1.00  0.00     0.030 A 
HETATM    3  C8  UNL     1      25.573   1.362  52.044  1.00  0.00     0.019 A 
HETATM    4  C9  UNL     1      26.093   2.303  51.284  1.00  0.00     0.097 A 
HETATM    5  N3  UNL     1      25.162   3.125  50.594  1.00  0.00    -0.289 N 
HETATM    6  C10 UNL     1      25.997   4.037  49.867  1.00  0.00     0.268 C 
HETATM    7  O1  UNL     1      27.208   3.631  49.811  1.00  0.00    -0.266 OA
HETATM    8  C11 UNL     1      25.860   5.310  49.165  1.00  0.00     0.088 C 
HETATM    9  C12 UNL     1      26.981   5.903  48.783  1.00  0.00     0.107 C 
HETATM   10  S1  UNL     1      24.389   6.222  48.716  1.00  0.00    -0.093 SA
HETATM   11  C19 UNL     1      23.280   6.200  50.112  1.00  0.00     0.084 C 
HETATM   12  C20 UNL     1      23.194   5.496  51.217  1.00  0.00     0.089 C 
HETATM   13  N5  UNL     1      23.125   4.238  51.199  1.00  0.00    -0.248 NA
HETATM   14  C21 UNL     1      23.716   3.047  50.634  1.00  0.00     0.173 A 
HETATM   15  C22 UNL     1      23.215   2.762  49.234  1.00  0.00     0.073 C 
ENDROOT
BRANCH   9  16
HETATM   16  N4  UNL     1      28.385   5.980  48.675  1.00  0.00    -0.397 N 
HETATM   17  H16 UNL     1      29.007   5.220  49.083  1.00  0.00     0.158 HD
BRANCH  16  18
HETATM   18  C13 UNL     1      28.999   7.114  47.997  1.00  0.00     0.131 C 
BRANCH  18  19
HETATM   19  C14 UNL     1      30.478   6.872  47.771  1.00  0.00     0.048 A 
HETATM   20  C15 UNL     1      30.929   5.862  48.756  1.00  0.00    -0.017 A 
HETATM   21  C16 UNL     1      31.792   6.429  49.587  1.00  0.00    -0.004 A 
HETATM   22  C17 UNL     1      31.993   7.835  49.246  1.00  0.00    -0.004 A 
HETATM   23  C18 UNL     1      31.219   8.079  48.184  1.00  0.00    -0.017 A 
ENDBRANCH  18  19
ENDBRANCH  16  18
ENDBRANCH   9  16
BRANCH   1  24
HETATM   24  N2  UNL     1      21.848   1.931  51.502  1.00  0.00    -0.388 N 
HETATM   25  H11 UNL     1      21.470   2.917  51.366  1.00  0.00     0.159 HD
BRANCH  24  26
HETATM   26  C5  UNL     1      20.836   0.904  51.612  1.00  0.00     0.139 C 
BRANCH  26  27
HETATM   27  C4  UNL     1      20.283   0.960  53.018  1.00  0.00     0.141 C 
BRANCH  27  28
HETATM   28  N1  UNL     1      19.990  -0.395  53.434  1.00  0.00    -0.393 N 
HETATM   29  C3  UNL     1      18.744  -1.088  53.361  1.00  0.00     0.148 C 
BRANCH  28  30
HETATM   30  C2  UNL     1      20.881  -1.315  54.003  1.00  0.00     0.075 C 
HETATM   31  C1  UNL     1      21.559  -0.589  54.869  1.00  0.00     0.029 C 
ENDBRANCH  28  30
ENDBRANCH  27  28
ENDBRANCH  26  27
ENDBRANCH  24  26
ENDBRANCH   1  24
TORSDOF 8
ENDMDL
MODEL 6
REMARK VINA RESULT:      -6.8      1.575      2.051
REMARK  8 active torsions:
REMARK  status: ('A' for Active; 'I' for Inactive)
REMARK    1  A    between atoms: C2_2  and  N1_3 
REMARK    2  A    between atoms: N1_3  and  C4_5 
REMARK    3  A    between atoms: C4_5  and  C5_6 
REMARK    4  A    between atoms: C5_6  and  N2_7 
REMARK    5  A    between atoms: N2_7  and  C6_8 
REMARK    6  A    between atoms: C12_16  and  N4_17 
REMARK    7  A    between atoms: N4_17  and  C13_18 
REMARK    8  A    between atoms: C13_18  and  C14_19 
ROOT
HETATM    1  C6  UNL     1      19.492   0.936  50.538  1.00  0.00     0.056 A 
HETATM    2  C7  UNL     1      19.280   0.258  51.650  1.00  0.00     0.030 A 
HETATM    3  C8  UNL     1      20.316   0.078  52.653  1.00  0.00     0.019 A 
HETATM    4  C9  UNL     1      21.527   0.577  52.517  1.00  0.00     0.097 A 
HETATM    5  N3  UNL     1      21.763   1.308  51.322  1.00  0.00    -0.289 N 
HETATM    6  C10 UNL     1      23.132   1.721  51.448  1.00  0.00     0.268 C 
HETATM    7  O1  UNL     1      23.744   1.063  52.356  1.00  0.00    -0.266 OA
HETATM    8  C11 UNL     1      24.034   2.688  50.831  1.00  0.00     0.088 C 
HETATM    9  C12 UNL     1      25.211   2.859  51.412  1.00  0.00     0.107 C 
HETATM   10  S1  UNL     1      23.812   3.700  49.374  1.00  0.00    -0.093 SA
HETATM   11  C19 UNL     1      22.166   4.386  49.426  1.00  0.00     0.084 C 
HETATM   12  C20 UNL     1      21.074   4.124  50.104  1.00  0.00     0.089 C 
HETATM   13  N5  UNL     1      20.549   2.977  50.101  1.00  0.00    -0.248 NA
HETATM   14  C21 UNL     1      20.828   1.568  50.247  1.00  0.00     0.173 A 
HETATM   15  C22 UNL     1      21.379   0.954  48.977  1.00  0.00     0.073 C 
ENDROOT
BRANCH   9  16
HETATM   16  N4  UNL     1      26.168   2.584  52.412  1.00  0.00    -0.397 N 
HETATM   17  H16 UNL     1      26.167   3.118  53.331  1.00  0.00     0.158 HD
BRANCH  16  18
HETATM   18  C13 UNL     1      27.176   1.556  52.187  1.00  0.00     0.131 C 
BRANCH  18  19
HETATM   19  C14 UNL     1      27.145   0.519  53.291  1.00  0.00     0.048 A 
HETATM   20  C15 UNL     1      28.546   0.205  53.660  1.00  0.00    -0.017 A 
HETATM   21  C16 UNL     1      28.800  -1.057  53.343  1.00  0.00    -0.004 A 
HETATM   22  C17 UNL     1      27.626  -1.689  52.748  1.00  0.00    -0.004 A 
HETATM   23  C18 UNL     1      26.668  -0.756  52.723  1.00  0.00    -0.017 A 
ENDBRANCH  18  19
ENDBRANCH  16  18
ENDBRANCH   9  16
BRANCH   1  24
HETATM   24  N2  UNL     1      18.656   1.242  49.432  1.00  0.00    -0.388 N 
HETATM   25  H11 UNL     1      19.093   0.916  48.518  1.00  0.00     0.159 HD
BRANCH  24  26
HETATM   26  C5  UNL     1      17.370   1.890  49.292  1.00  0.00     0.139 C 
BRANCH  26  27
HETATM   27  C4  UNL     1      16.306   0.848  49.552  1.00  0.00     0.141 C 
BRANCH  27  28
HETATM   28  N1  UNL     1      15.862   0.997  50.922  1.00  0.00    -0.393 N 
HETATM   29  C3  UNL     1      15.675   2.205  51.658  1.00  0.00     0.148 C 
BRANCH  28  30
HETATM   30  C2  UNL     1      15.523  -0.027  51.816  1.00  0.00     0.075 C 
HETATM   31  C1  UNL     1      14.891   0.607  52.782  1.00  0.00     0.029 C 
ENDBRANCH  28  30
ENDBRANCH  27  28
ENDBRANCH  26  27
ENDBRANCH  24  26
ENDBRANCH   1  24
TORSDOF 8
ENDMDL
MODEL 7
REMARK VINA RESULT:      -6.8      2.117      9.111
REMARK  8 active torsions:
REMARK  status: ('A' for Active; 'I' for Inactive)
REMARK    1  A    between atoms: C2_2  and  N1_3 
REMARK    2  A    between atoms: N1_3  and  C4_5 
REMARK    3  A    between atoms: C4_5  and  C5_6 
REMARK    4  A    between atoms: C5_6  and  N2_7 
REMARK    5  A    between atoms: N2_7  and  C6_8 
REMARK    6  A    between atoms: C12_16  and  N4_17 
REMARK    7  A    between atoms: N4_17  and  C13_18 
REMARK    8  A    between atoms: C13_18  and  C14_19 
ROOT
HETATM    1  C6  UNL     1      23.232   0.988  52.648  1.00  0.00     0.056 A 
HETATM    2  C7  UNL     1      22.487   0.263  53.461  1.00  0.00     0.030 A 
HETATM    3  C8  UNL     1      21.067   0.517  53.640  1.00  0.00     0.019 A 
HETATM    4  C9  UNL     1      20.437   1.484  53.006  1.00  0.00     0.097 A 
HETATM    5  N3  UNL     1      21.231   2.268  52.129  1.00  0.00    -0.289 N 
HETATM    6  C10 UNL     1      20.298   3.217  51.592  1.00  0.00     0.268 C 
HETATM    7  O1  UNL     1      19.221   3.263  52.277  1.00  0.00    -0.266 OA
HETATM    8  C11 UNL     1      20.225   4.154  50.475  1.00  0.00     0.088 C 
HETATM    9  C12 UNL     1      19.049   4.717  50.246  1.00  0.00     0.107 C 
HETATM   10  S1  UNL     1      21.497   4.688  49.338  1.00  0.00    -0.093 SA
HETATM   11  C19 UNL     1      22.428   3.252  48.837  1.00  0.00     0.084 C 
HETATM   12  C20 UNL     1      22.548   2.024  49.284  1.00  0.00     0.089 C 
HETATM   13  N5  UNL     1      22.895   1.780  50.472  1.00  0.00    -0.248 NA
HETATM   14  C21 UNL     1      22.646   2.125  51.852  1.00  0.00     0.173 A 
HETATM   15  C22 UNL     1      23.345   3.404  52.263  1.00  0.00     0.073 C 
ENDROOT
BRANCH   9  16
HETATM   16  N4  UNL     1      17.682   4.926  50.527  1.00  0.00    -0.397 N 
HETATM   17  H16 UNL     1      17.377   5.627  51.265  1.00  0.00     0.158 HD
BRANCH  16  18
HETATM   18  C13 UNL     1      16.669   4.169  49.802  1.00  0.00     0.131 C 
BRANCH  18  19
HETATM   19  C14 UNL     1      15.353   4.171  50.553  1.00  0.00     0.048 A 
HETATM   20  C15 UNL     1      15.656   4.088  52.001  1.00  0.00    -0.017 A 
HETATM   21  C16 UNL     1      15.199   2.935  52.469  1.00  0.00    -0.004 A 
HETATM   22  C17 UNL     1      14.566   2.159  51.407  1.00  0.00    -0.004 A 
HETATM   23  C18 UNL     1      14.664   2.893  50.294  1.00  0.00    -0.017 A 
ENDBRANCH  18  19
ENDBRANCH  16  18
ENDBRANCH   9  16
BRANCH   1  24
HETATM   24  N2  UNL     1      24.610   0.934  52.311  1.00  0.00    -0.388 N 
HETATM   25  H11 UNL     1      24.823   1.543  51.465  1.00  0.00     0.159 HD
BRANCH  24  26
HETATM   26  C5  UNL     1      25.754   0.242  52.864  1.00  0.00     0.139 C 
BRANCH  26  27
HETATM   27  C4  UNL     1      26.779   1.286  53.241  1.00  0.00     0.141 C 
BRANCH  27  28
HETATM   28  N1  UNL     1      28.017   0.603  53.549  1.00  0.00    -0.393 N 
HETATM   29  C3  UNL     1      29.181   1.135  54.181  1.00  0.00     0.148 C 
BRANCH  28  30
HETATM   30  C2  UNL     1      28.330  -0.737  53.284  1.00  0.00     0.075 C 
HETATM   31  C1  UNL     1      29.609  -0.819  53.593  1.00  0.00     0.029 C 
ENDBRANCH  28  30
ENDBRANCH  27  28
ENDBRANCH  26  27
ENDBRANCH  24  26
ENDBRANCH   1  24
TORSDOF 8
ENDMDL
MODEL 8
REMARK VINA RESULT:      -6.7      1.754      2.717
REMARK  8 active torsions:
REMARK  status: ('A' for Active; 'I' for Inactive)
REMARK    1  A    between atoms: C2_2  and  N1_3 
REMARK    2  A    between atoms: N1_3  and  C4_5 
REMARK    3  A    between atoms: C4_5  and  C5_6 
REMARK    4  A    between atoms: C5_6  and  N2_7 
REMARK    5  A    between atoms: N2_7  and  C6_8 
REMARK    6  A    between atoms: C12_16  and  N4_17 
REMARK    7  A    between atoms: N4_17  and  C13_18 
REMARK    8  A    between atoms: C13_18  and  C14_19 
ROOT
HETATM    1  C6  UNL     1      17.044   0.507  51.600  1.00  0.00     0.056 A 
HETATM    2  C7  UNL     1      16.754  -0.439  52.473  1.00  0.00     0.030 A 
HETATM    3  C8  UNL     1      17.780  -1.110  53.255  1.00  0.00     0.019 A 
HETATM    4  C9  UNL     1      19.058  -0.818  53.142  1.00  0.00     0.097 A 
HETATM    5  N3  UNL     1      19.379   0.200  52.204  1.00  0.00    -0.289 N 
HETATM    6  C10 UNL     1      20.808   0.301  52.297  1.00  0.00     0.268 C 
HETATM    7  O1  UNL     1      21.318  -0.709  52.892  1.00  0.00    -0.266 OA
HETATM    8  C11 UNL     1      21.858   1.236  51.904  1.00  0.00     0.088 C 
HETATM    9  C12 UNL     1      23.072   1.002  52.377  1.00  0.00     0.107 C 
HETATM   10  S1  UNL     1      21.775   2.681  50.854  1.00  0.00    -0.093 SA
HETATM   11  C19 UNL     1      20.308   3.597  51.292  1.00  0.00     0.084 C 
HETATM   12  C20 UNL     1      19.220   3.332  51.976  1.00  0.00     0.089 C 
HETATM   13  N5  UNL     1      18.473   2.359  51.685  1.00  0.00    -0.248 NA
HETATM   14  C21 UNL     1      18.465   0.950  51.368  1.00  0.00     0.173 A 
HETATM   15  C22 UNL     1      18.817   0.683  49.919  1.00  0.00     0.073 C 
ENDROOT
BRANCH   9  16
HETATM   16  N4  UNL     1      24.001   0.258  53.135  1.00  0.00    -0.397 N 
HETATM   17  H16 UNL     1      23.679  -0.525  53.778  1.00  0.00     0.158 HD
BRANCH  16  18
HETATM   18  C13 UNL     1      25.422   0.564  53.043  1.00  0.00     0.131 C 
BRANCH  18  19
HETATM   19  C14 UNL     1      26.247  -0.474  53.776  1.00  0.00     0.048 A 
HETATM   20  C15 UNL     1      26.972   0.211  54.871  1.00  0.00    -0.017 A 
HETATM   21  C16 UNL     1      28.273   0.155  54.625  1.00  0.00    -0.004 A 
HETATM   22  C17 UNL     1      28.534  -0.554  53.376  1.00  0.00    -0.004 A 
HETATM   23  C18 UNL     1      27.341  -0.915  52.891  1.00  0.00    -0.017 A 
ENDBRANCH  18  19
ENDBRANCH  16  18
ENDBRANCH   9  16
BRANCH   1  24
HETATM   24  N2  UNL     1      16.236   1.292  50.737  1.00  0.00    -0.388 N 
HETATM   25  H11 UNL     1      16.750   1.527  49.836  1.00  0.00     0.159 HD
BRANCH  24  26
HETATM   26  C5  UNL     1      14.894   1.826  50.826  1.00  0.00     0.139 C 
BRANCH  26  27
HETATM   27  C4  UNL     1      14.921   2.957  51.829  1.00  0.00     0.141 C 
BRANCH  27  28
HETATM   28  N1  UNL     1      13.718   2.869  52.630  1.00  0.00    -0.393 N 
HETATM   29  C3  UNL     1      13.206   1.733  53.326  1.00  0.00     0.148 C 
BRANCH  28  30
HETATM   30  C2  UNL     1      12.799   3.895  52.889  1.00  0.00     0.075 C 
HETATM   31  C1  UNL     1      13.186   4.365  54.058  1.00  0.00     0.029 C 
ENDBRANCH  28  30
ENDBRANCH  27  28
ENDBRANCH  26  27
ENDBRANCH  24  26
ENDBRANCH   1  24
TORSDOF 8
ENDMDL
MODEL 9
REMARK VINA RESULT:      -6.7      3.065      4.241
REMARK  8 active torsions:
REMARK  status: ('A' for Active; 'I' for Inactive)
REMARK    1  A    between atoms: C2_2  and  N1_3 
REMARK    2  A    between atoms: N1_3  and  C4_5 
REMARK    3  A    between atoms: C4_5  and  C5_6 
REMARK    4  A    between atoms: C5_6  and  N2_7 
REMARK    5  A    between atoms: N2_7  and  C6_8 
REMARK    6  A    between atoms: C12_16  and  N4_17 
REMARK    7  A    between atoms: N4_17  and  C13_18 
REMARK    8  A    between atoms: C13_18  and  C14_19 
ROOT
HETATM    1  C6  UNL     1      19.593   2.256  49.433  1.00  0.00     0.056 A 
HETATM    2  C7  UNL     1      18.657   1.440  49.877  1.00  0.00     0.030 A 
HETATM    3  C8  UNL     1      18.919   0.455  50.913  1.00  0.00     0.019 A 
HETATM    4  C9  UNL     1      20.103   0.315  51.472  1.00  0.00     0.097 A 
HETATM    5  N3  UNL     1      21.116   1.191  51.000  1.00  0.00    -0.289 N 
HETATM    6  C10 UNL     1      22.267   0.818  51.772  1.00  0.00     0.268 C 
HETATM    7  O1  UNL     1      22.109  -0.315  52.342  1.00  0.00    -0.266 OA
HETATM    8  C11 UNL     1      23.580   1.367  52.098  1.00  0.00     0.088 C 
HETATM    9  C12 UNL     1      24.271   0.739  53.036  1.00  0.00     0.107 C 
HETATM   10  S1  UNL     1      24.436   2.780  51.415  1.00  0.00    -0.093 SA
HETATM   11  C19 UNL     1      23.263   4.116  51.267  1.00  0.00     0.084 C 
HETATM   12  C20 UNL     1      21.954   4.207  51.296  1.00  0.00     0.089 C 
HETATM   13  N5  UNL     1      21.224   3.538  50.516  1.00  0.00    -0.248 NA
HETATM   14  C21 UNL     1      20.995   2.215  49.983  1.00  0.00     0.173 A 
HETATM   15  C22 UNL     1      21.941   1.878  48.850  1.00  0.00     0.073 C 
ENDROOT
BRANCH   9  16
HETATM   16  N4  UNL     1      24.447  -0.283  53.993  1.00  0.00    -0.397 N 
HETATM   17  H16 UNL     1      23.654  -0.563  54.644  1.00  0.00     0.158 HD
BRANCH  16  18
HETATM   18  C13 UNL     1      25.730  -0.965  54.099  1.00  0.00     0.131 C 
BRANCH  18  19
HETATM   19  C14 UNL     1      26.835  -0.135  53.479  1.00  0.00     0.048 A 
HETATM   20  C15 UNL     1      27.818  -1.065  52.875  1.00  0.00    -0.017 A 
HETATM   21  C16 UNL     1      28.966  -0.960  53.530  1.00  0.00    -0.004 A 
HETATM   22  C17 UNL     1      28.862   0.024  54.604  1.00  0.00    -0.004 A 
HETATM   23  C18 UNL     1      27.612   0.496  54.563  1.00  0.00    -0.017 A 
ENDBRANCH  18  19
ENDBRANCH  16  18
ENDBRANCH   9  16
BRANCH   1  24
HETATM   24  N2  UNL     1      19.580   3.280  48.449  1.00  0.00    -0.388 N 
HETATM   25  H11 UNL     1      19.796   4.229  48.879  1.00  0.00     0.159 HD
BRANCH  24  26
HETATM   26  C5  UNL     1      19.341   3.300  47.022  1.00  0.00     0.139 C 
BRANCH  26  27
HETATM   27  C4  UNL     1      19.669   4.690  46.527  1.00  0.00     0.141 C 
BRANCH  27  28
HETATM   28  N1  UNL     1      21.070   4.712  46.162  1.00  0.00    -0.393 N 
HETATM   29  C3  UNL     1      21.812   3.715  45.459  1.00  0.00     0.148 C 
BRANCH  28  30
HETATM   30  C2  UNL     1      21.996   5.730  46.428  1.00  0.00     0.075 C 
HETATM   31  C1  UNL     1      22.509   5.380  47.591  1.00  0.00     0.029 C 
ENDBRANCH  28  30
ENDBRANCH  27  28
ENDBRANCH  26  27
ENDBRANCH  24  26
ENDBRANCH   1  24
TORSDOF 8
ENDMDL
