MODEL 1
REMARK VINA RESULT:      -7.5      0.000      0.000
REMARK  5 active torsions:
REMARK  status: ('A' for Active; 'I' for Inactive)
REMARK    1  A    between atoms: C1_2  and  C2_3 
REMARK       I    between atoms: C1_2  and  N2_13 
REMARK    2  A    between atoms: C3_4  and  C4_5 
REMARK    3  A    between atoms: C4_5  and  C5_6 
REMARK    4  A    between atoms: C5_6  and  N1_7 
REMARK    5  A    between atoms: N2_13  and  C11_14 
ROOT
HETATM    1  O1  UNL     1      22.346  -1.750  55.202  1.00  0.00    -0.258 OA
HETATM    2  C1  UNL     1      21.774  -1.248  54.187  1.00  0.00     0.302 C 
HETATM    3  N2  UNL     1      22.559  -0.470  53.289  1.00  0.00    -0.303 N 
HETATM    4  H15 UNL     1      22.007  -0.082  52.465  1.00  0.00     0.171 HD
ENDROOT
BRANCH   2   5
HETATM    5  C2  UNL     1      20.371  -1.469  53.960  1.00  0.00    -0.005 C 
HETATM    6  C3  UNL     1      19.186  -1.676  53.765  1.00  0.00    -0.095 C 
BRANCH   6   7
HETATM    7  C4  UNL     1      17.749  -1.915  53.509  1.00  0.00     0.114 C 
BRANCH   7   8
HETATM    8  C5  UNL     1      17.403  -3.386  53.607  1.00  0.00     0.129 C 
BRANCH   8   9
HETATM    9  N1  UNL     1      16.145  -3.756  53.104  1.00  0.00    -0.412 N 
HETATM   10  C6  UNL     1      15.412  -2.856  52.335  1.00  0.00     0.117 C 
HETATM   11  C7  UNL     1      14.476  -3.462  51.324  1.00  0.00     0.019 C 
HETATM   12  C8  UNL     1      14.693  -4.944  51.243  1.00  0.00     0.003 C 
HETATM   13  C9  UNL     1      14.524  -5.533  52.603  1.00  0.00     0.019 C 
HETATM   14  C10 UNL     1      15.558  -4.963  53.514  1.00  0.00     0.117 C 
ENDBRANCH   8   9
ENDBRANCH   7   8
ENDBRANCH   6   7
ENDBRANCH   2   5
BRANCH   3  15
HETATM   15  C11 UNL     1      23.947  -0.177  53.395  1.00  0.00     0.101 A 
HETATM   16  C12 UNL     1      24.261   1.069  53.033  1.00  0.00     0.024 A 
HETATM   17  C13 UNL     1      25.703   1.396  53.135  1.00  0.00     0.066 A 
HETATM   18  C14 UNL     1      26.299   0.091  53.619  1.00  0.00     0.059 A 
HETATM   19  C15 UNL     1      27.428  -0.414  52.867  1.00  0.00     0.024 A 
HETATM   20  C17 UNL     1      27.208   0.176  54.779  1.00  0.00     0.086 A 
HETATM   21  N3  UNL     1      25.161  -0.801  53.775  1.00  0.00    -0.363 N 
HETATM   22  C16 UNL     1      28.239  -0.340  53.886  1.00  0.00     0.013 A 
HETATM   23 CL1  UNL     1      29.920  -0.824  53.711  1.00  0.00    -0.089 Cl
HETATM   24  H22 UNL     1      25.085  -1.777  54.103  1.00  0.00     0.162 HD
ENDBRANCH   3  15
TORSDOF 5
ENDMDL
MODEL 2
REMARK VINA RESULT:      -7.3      6.565      9.591
REMARK  5 active torsions:
REMARK  status: ('A' for Active; 'I' for Inactive)
REMARK    1  A    between atoms: C1_2  and  C2_3 
REMARK       I    between atoms: C1_2  and  N2_13 
REMARK    2  A    between atoms: C3_4  and  C4_5 
REMARK    3  A    between atoms: C4_5  and  C5_6 
REMARK    4  A    between atoms: C5_6  and  N1_7 
REMARK    5  A    between atoms: N2_13  and  C11_14 
ROOT
HETATM    1  O1  UNL     1      27.115   3.112  50.801  1.00  0.00    -0.258 OA
HETATM    2  C1  UNL     1      25.849   3.191  50.805  1.00  0.00     0.302 C 
HETATM    3  N2  UNL     1      25.243   4.308  50.160  1.00  0.00    -0.303 N 
HETATM    4  H15 UNL     1      24.179   4.303  50.209  1.00  0.00     0.171 HD
ENDROOT
BRANCH   2   5
HETATM    5  C2  UNL     1      25.060   2.174  51.445  1.00  0.00    -0.005 C 
HETATM    6  C3  UNL     1      24.396   1.298  51.972  1.00  0.00    -0.095 C 
BRANCH   6   7
HETATM    7  C4  UNL     1      23.571   0.248  52.608  1.00  0.00     0.114 C 
BRANCH   7   8
HETATM    8  C5  UNL     1      24.149  -0.183  53.940  1.00  0.00     0.129 C 
BRANCH   8   9
HETATM    9  N1  UNL     1      25.536  -0.401  53.966  1.00  0.00    -0.412 N 
HETATM   10  C6  UNL     1      26.107  -1.341  53.112  1.00  0.00     0.117 C 
HETATM   11  C7  UNL     1      27.533  -1.081  52.706  1.00  0.00     0.019 C 
HETATM   12  C8  UNL     1      27.966   0.275  53.180  1.00  0.00     0.003 C 
HETATM   13  C9  UNL     1      27.768   0.358  54.655  1.00  0.00     0.019 C 
HETATM   14  C10 UNL     1      26.317   0.202  54.963  1.00  0.00     0.117 C 
ENDBRANCH   8   9
ENDBRANCH   7   8
ENDBRANCH   6   7
ENDBRANCH   2   5
BRANCH   3  15
HETATM   15  C11 UNL     1      25.904   5.376  49.493  1.00  0.00     0.101 A 
HETATM   16  C12 UNL     1      25.102   6.088  48.698  1.00  0.00     0.024 A 
HETATM   17  C13 UNL     1      25.770   7.208  47.992  1.00  0.00     0.066 A 
HETATM   18  C14 UNL     1      27.204   7.078  48.461  1.00  0.00     0.059 A 
HETATM   19  C15 UNL     1      28.215   7.061  47.426  1.00  0.00     0.024 A 
HETATM   20  C17 UNL     1      27.843   8.313  48.958  1.00  0.00     0.086 A 
HETATM   21  N3  UNL     1      27.191   5.959  49.389  1.00  0.00    -0.363 N 
HETATM   22  C16 UNL     1      28.786   8.152  47.857  1.00  0.00     0.013 A 
HETATM   23 CL1  UNL     1      30.195   8.795  47.026  1.00  0.00    -0.089 Cl
HETATM   24  H22 UNL     1      27.931   5.528  49.965  1.00  0.00     0.162 HD
ENDBRANCH   3  15
TORSDOF 5
ENDMDL
MODEL 3
REMARK VINA RESULT:      -7.3      6.686     12.639
REMARK  5 active torsions:
REMARK  status: ('A' for Active; 'I' for Inactive)
REMARK    1  A    between atoms: C1_2  and  C2_3 
REMARK       I    between atoms: C1_2  and  N2_13 
REMARK    2  A    between atoms: C3_4  and  C4_5 
REMARK    3  A    between atoms: C4_5  and  C5_6 
REMARK    4  A    between atoms: C5_6  and  N1_7 
REMARK    5  A    between atoms: N2_13  and  C11_14 
ROOT
HETATM    1  O1  UNL     1      24.879   3.163  49.695  1.00  0.00    -0.258 OA
HETATM    2  C1  UNL     1      25.987   3.696  50.008  1.00  0.00     0.302 C 
HETATM    3  N2  UNL     1      26.721   3.133  51.091  1.00  0.00    -0.303 N 
HETATM    4  H15 UNL     1      27.637   3.638  51.292  1.00  0.00     0.171 HD
ENDROOT
BRANCH   2   5
HETATM    5  C2  UNL     1      26.476   4.835  49.279  1.00  0.00    -0.005 C 
HETATM    6  C3  UNL     1      26.893   5.811  48.679  1.00  0.00    -0.095 C 
BRANCH   6   7
HETATM    7  C4  UNL     1      27.378   6.997  47.942  1.00  0.00     0.114 C 
BRANCH   7   8
HETATM    8  C5  UNL     1      28.855   6.887  47.620  1.00  0.00     0.129 C 
BRANCH   8   9
HETATM    9  N1  UNL     1      29.717   7.651  48.422  1.00  0.00    -0.412 N 
HETATM   10  C6  UNL     1      30.968   7.150  48.770  1.00  0.00     0.117 C 
HETATM   11  C7  UNL     1      32.042   8.174  49.021  1.00  0.00     0.019 C 
HETATM   12  C8  UNL     1      31.551   9.541  48.642  1.00  0.00     0.003 C 
HETATM   13  C9  UNL     1      30.298   9.830  49.396  1.00  0.00     0.019 C 
HETATM   14  C10 UNL     1      29.254   8.839  49.008  1.00  0.00     0.117 C 
ENDBRANCH   8   9
ENDBRANCH   7   8
ENDBRANCH   6   7
ENDBRANCH   2   5
BRANCH   3  15
HETATM   15  C11 UNL     1      26.353   2.015  51.888  1.00  0.00     0.101 A 
HETATM   16  C12 UNL     1      26.884   0.863  51.471  1.00  0.00     0.024 A 
HETATM   17  C13 UNL     1      26.513  -0.318  52.288  1.00  0.00     0.066 A 
HETATM   18  C14 UNL     1      25.594   0.284  53.330  1.00  0.00     0.059 A 
HETATM   19  C15 UNL     1      24.313  -0.368  53.505  1.00  0.00     0.024 A 
HETATM   20  C17 UNL     1      25.879  -0.069  54.736  1.00  0.00     0.086 A 
HETATM   21  N3  UNL     1      25.573   1.706  53.030  1.00  0.00    -0.363 N 
HETATM   22  C16 UNL     1      24.557  -0.685  54.746  1.00  0.00     0.013 A 
HETATM   23 CL1  UNL     1      23.356  -1.566  55.682  1.00  0.00    -0.089 Cl
HETATM   24  H22 UNL     1      25.104   2.504  53.487  1.00  0.00     0.162 HD
ENDBRANCH   3  15
TORSDOF 5
ENDMDL
MODEL 4
REMARK VINA RESULT:      -7.2      2.630      4.106
REMARK  5 active torsions:
REMARK  status: ('A' for Active; 'I' for Inactive)
REMARK    1  A    between atoms: C1_2  and  C2_3 
REMARK       I    between atoms: C1_2  and  N2_13 
REMARK    2  A    between atoms: C3_4  and  C4_5 
REMARK    3  A    between atoms: C4_5  and  C5_6 
REMARK    4  A    between atoms: C5_6  and  N1_7 
REMARK    5  A    between atoms: N2_13  and  C11_14 
ROOT
HETATM    1  O1  UNL     1      22.287  -1.023  55.016  1.00  0.00    -0.258 OA
HETATM    2  C1  UNL     1      21.852  -0.580  53.909  1.00  0.00     0.302 C 
HETATM    3  N2  UNL     1      22.784   0.014  53.010  1.00  0.00    -0.303 N 
HETATM    4  H15 UNL     1      22.341   0.363  52.106  1.00  0.00     0.171 HD
ENDROOT
BRANCH   2   5
HETATM    5  C2  UNL     1      20.455  -0.684  53.584  1.00  0.00    -0.005 C 
HETATM    6  C3  UNL     1      19.271  -0.791  53.315  1.00  0.00    -0.095 C 
BRANCH   6   7
HETATM    7  C4  UNL     1      17.840  -0.918  52.965  1.00  0.00     0.114 C 
BRANCH   7   8
HETATM    8  C5  UNL     1      17.569  -0.443  51.553  1.00  0.00     0.129 C 
BRANCH   8   9
HETATM    9  N1  UNL     1      18.228   0.734  51.163  1.00  0.00    -0.412 N 
HETATM   10  C6  UNL     1      17.716   1.973  51.538  1.00  0.00     0.117 C 
HETATM   11  C7  UNL     1      18.722   3.083  51.689  1.00  0.00     0.019 C 
HETATM   12  C8  UNL     1      20.115   2.536  51.580  1.00  0.00     0.003 C 
HETATM   13  C9  UNL     1      20.251   1.813  50.283  1.00  0.00     0.019 C 
HETATM   14  C10 UNL     1      19.300   0.666  50.260  1.00  0.00     0.117 C 
ENDBRANCH   8   9
ENDBRANCH   7   8
ENDBRANCH   6   7
ENDBRANCH   2   5
BRANCH   3  15
HETATM   15  C11 UNL     1      24.182   0.176  53.207  1.00  0.00     0.101 A 
HETATM   16  C12 UNL     1      24.621   1.409  52.941  1.00  0.00     0.024 A 
HETATM   17  C13 UNL     1      26.077   1.601  53.140  1.00  0.00     0.066 A 
HETATM   18  C14 UNL     1      26.532   0.223  53.571  1.00  0.00     0.059 A 
HETATM   19  C15 UNL     1      27.656  -0.334  52.850  1.00  0.00     0.024 A 
HETATM   20  C17 UNL     1      27.376   0.160  54.781  1.00  0.00     0.086 A 
HETATM   21  N3  UNL     1      25.316  -0.573  53.611  1.00  0.00    -0.363 N 
HETATM   22  C16 UNL     1      28.410  -0.391  53.913  1.00  0.00     0.013 A 
HETATM   23 CL1  UNL     1      30.051  -1.010  53.796  1.00  0.00    -0.089 Cl
HETATM   24  H22 UNL     1      25.139  -1.556  53.872  1.00  0.00     0.162 HD
ENDBRANCH   3  15
TORSDOF 5
ENDMDL
MODEL 5
REMARK VINA RESULT:      -7.1      1.842      2.641
REMARK  5 active torsions:
REMARK  status: ('A' for Active; 'I' for Inactive)
REMARK    1  A    between atoms: C1_2  and  C2_3 
REMARK       I    between atoms: C1_2  and  N2_13 
REMARK    2  A    between atoms: C3_4  and  C4_5 
REMARK    3  A    between atoms: C4_5  and  C5_6 
REMARK    4  A    between atoms: C5_6  and  N1_7 
REMARK    5  A    between atoms: N2_13  and  C11_14 
ROOT
HETATM    1  O1  UNL     1      22.234  -1.329  55.241  1.00  0.00    -0.258 OA
HETATM    2  C1  UNL     1      21.723  -0.959  54.140  1.00  0.00     0.302 C 
HETATM    3  N2  UNL     1      22.572  -0.332  53.183  1.00  0.00    -0.303 N 
HETATM    4  H15 UNL     1      22.069  -0.049  52.288  1.00  0.00     0.171 HD
ENDROOT
BRANCH   2   5
HETATM    5  C2  UNL     1      20.326  -1.174  53.879  1.00  0.00    -0.005 C 
HETATM    6  C3  UNL     1      19.143  -1.377  53.662  1.00  0.00    -0.095 C 
BRANCH   6   7
HETATM    7  C4  UNL     1      17.713  -1.617  53.376  1.00  0.00     0.114 C 
BRANCH   7   8
HETATM    8  C5  UNL     1      17.271  -0.906  52.113  1.00  0.00     0.129 C 
BRANCH   8   9
HETATM    9  N1  UNL     1      15.964  -0.393  52.122  1.00  0.00    -0.412 N 
HETATM   10  C6  UNL     1      14.882  -1.247  51.921  1.00  0.00     0.117 C 
HETATM   11  C7  UNL     1      13.587  -0.833  52.567  1.00  0.00     0.019 C 
HETATM   12  C8  UNL     1      13.813   0.347  53.467  1.00  0.00     0.003 C 
HETATM   13  C9  UNL     1      14.434   1.447  52.675  1.00  0.00     0.019 C 
HETATM   14  C10 UNL     1      15.759   0.994  52.164  1.00  0.00     0.117 C 
ENDBRANCH   8   9
ENDBRANCH   7   8
ENDBRANCH   6   7
ENDBRANCH   2   5
BRANCH   3  15
HETATM   15  C11 UNL     1      23.962  -0.063  53.315  1.00  0.00     0.101 A 
HETATM   16  C12 UNL     1      24.302   1.180  52.965  1.00  0.00     0.024 A 
HETATM   17  C13 UNL     1      25.747   1.483  53.094  1.00  0.00     0.066 A 
HETATM   18  C14 UNL     1      26.313   0.166  53.580  1.00  0.00     0.059 A 
HETATM   19  C15 UNL     1      27.447  -0.352  52.846  1.00  0.00     0.024 A 
HETATM   20  C17 UNL     1      27.204   0.231  54.757  1.00  0.00     0.086 A 
HETATM   21  N3  UNL     1      25.159  -0.708  53.713  1.00  0.00    -0.363 N 
HETATM   22  C16 UNL     1      28.241  -0.296  53.879  1.00  0.00     0.013 A 
HETATM   23 CL1  UNL     1      29.917  -0.807  53.730  1.00  0.00    -0.089 Cl
HETATM   24  H22 UNL     1      25.062  -1.684  54.034  1.00  0.00     0.162 HD
ENDBRANCH   3  15
TORSDOF 5
ENDMDL
MODEL 6
REMARK VINA RESULT:      -7.1      7.088     13.328
REMARK  5 active torsions:
REMARK  status: ('A' for Active; 'I' for Inactive)
REMARK    1  A    between atoms: C1_2  and  C2_3 
REMARK       I    between atoms: C1_2  and  N2_13 
REMARK    2  A    between atoms: C3_4  and  C4_5 
REMARK    3  A    between atoms: C4_5  and  C5_6 
REMARK    4  A    between atoms: C5_6  and  N1_7 
REMARK    5  A    between atoms: N2_13  and  C11_14 
ROOT
HETATM    1  O1  UNL     1      25.720   5.206  48.728  1.00  0.00    -0.258 OA
HETATM    2  C1  UNL     1      26.816   4.687  49.102  1.00  0.00     0.302 C 
HETATM    3  N2  UNL     1      26.767   3.602  50.024  1.00  0.00    -0.303 N 
HETATM    4  H15 UNL     1      27.727   3.225  50.289  1.00  0.00     0.171 HD
ENDROOT
BRANCH   2   5
HETATM    5  C2  UNL     1      28.066   5.190  48.599  1.00  0.00    -0.005 C 
HETATM    6  C3  UNL     1      29.123   5.633  48.183  1.00  0.00    -0.095 C 
BRANCH   6   7
HETATM    7  C4  UNL     1      30.396   6.172  47.658  1.00  0.00     0.114 C 
BRANCH   7   8
HETATM    8  C5  UNL     1      31.581   5.689  48.468  1.00  0.00     0.129 C 
BRANCH   8   9
HETATM    9  N1  UNL     1      32.414   4.750  47.838  1.00  0.00    -0.412 N 
HETATM   10  C6  UNL     1      33.798   4.880  47.927  1.00  0.00     0.117 C 
HETATM   11  C7  UNL     1      34.586   3.600  47.843  1.00  0.00     0.019 C 
HETATM   12  C8  UNL     1      33.660   2.420  47.873  1.00  0.00     0.003 C 
HETATM   13  C9  UNL     1      32.669   2.555  46.767  1.00  0.00     0.019 C 
HETATM   14  C10 UNL     1      31.857   3.786  46.985  1.00  0.00     0.117 C 
ENDBRANCH   8   9
ENDBRANCH   7   8
ENDBRANCH   6   7
ENDBRANCH   2   5
BRANCH   3  15
HETATM   15  C11 UNL     1      25.605   3.013  50.593  1.00  0.00     0.101 A 
HETATM   16  C12 UNL     1      25.872   2.039  51.467  1.00  0.00     0.024 A 
HETATM   17  C13 UNL     1      24.676   1.410  52.074  1.00  0.00     0.066 A 
HETATM   18  C14 UNL     1      23.541   2.151  51.399  1.00  0.00     0.059 A 
HETATM   19  C15 UNL     1      22.510   1.331  50.800  1.00  0.00     0.024 A 
HETATM   20  C17 UNL     1      22.490   2.688  52.287  1.00  0.00     0.086 A 
HETATM   21  N3  UNL     1      24.193   3.123  50.537  1.00  0.00    -0.363 N 
HETATM   22  C16 UNL     1      21.575   1.799  51.581  1.00  0.00     0.013 A 
HETATM   23 CL1  UNL     1      19.924   1.217  51.424  1.00  0.00    -0.089 Cl
HETATM   24  H22 UNL     1      23.821   3.854  49.911  1.00  0.00     0.162 HD
ENDBRANCH   3  15
TORSDOF 5
ENDMDL
MODEL 7
REMARK VINA RESULT:      -7.1      7.109     13.170
REMARK  5 active torsions:
REMARK  status: ('A' for Active; 'I' for Inactive)
REMARK    1  A    between atoms: C1_2  and  C2_3 
REMARK       I    between atoms: C1_2  and  N2_13 
REMARK    2  A    between atoms: C3_4  and  C4_5 
REMARK    3  A    between atoms: C4_5  and  C5_6 
REMARK    4  A    between atoms: C5_6  and  N1_7 
REMARK    5  A    between atoms: N2_13  and  C11_14 
ROOT
HETATM    1  O1  UNL     1      27.162   3.078  49.033  1.00  0.00    -0.258 OA
HETATM    2  C1  UNL     1      27.029   4.325  49.224  1.00  0.00     0.302 C 
HETATM    3  N2  UNL     1      25.981   4.765  50.084  1.00  0.00    -0.303 N 
HETATM    4  H15 UNL     1      25.934   5.824  50.191  1.00  0.00     0.171 HD
ENDROOT
BRANCH   2   5
HETATM    5  C2  UNL     1      27.919   5.258  48.588  1.00  0.00    -0.005 C 
HETATM    6  C3  UNL     1      28.690   6.035  48.052  1.00  0.00    -0.095 C 
BRANCH   6   7
HETATM    7  C4  UNL     1      29.620   6.995  47.420  1.00  0.00     0.114 C 
BRANCH   7   8
HETATM    8  C5  UNL     1      30.997   6.933  48.049  1.00  0.00     0.129 C 
BRANCH   8   9
HETATM    9  N1  UNL     1      31.855   5.940  47.551  1.00  0.00    -0.412 N 
HETATM   10  C6  UNL     1      32.330   4.943  48.399  1.00  0.00     0.117 C 
HETATM   11  C7  UNL     1      32.652   3.623  47.750  1.00  0.00     0.019 C 
HETATM   12  C8  UNL     1      32.196   3.626  46.321  1.00  0.00     0.003 C 
HETATM   13  C9  UNL     1      32.823   4.779  45.614  1.00  0.00     0.019 C 
HETATM   14  C10 UNL     1      32.366   6.048  46.248  1.00  0.00     0.117 C 
ENDBRANCH   8   9
ENDBRANCH   7   8
ENDBRANCH   6   7
ENDBRANCH   2   5
BRANCH   3  15
HETATM   15  C11 UNL     1      25.038   3.953  50.772  1.00  0.00     0.101 A 
HETATM   16  C12 UNL     1      24.067   4.648  51.368  1.00  0.00     0.024 A 
HETATM   17  C13 UNL     1      23.072   3.822  52.092  1.00  0.00     0.066 A 
HETATM   18  C14 UNL     1      23.599   2.418  51.879  1.00  0.00     0.059 A 
HETATM   19  C15 UNL     1      23.746   1.604  53.067  1.00  0.00     0.024 A 
HETATM   20  C17 UNL     1      22.621   1.417  51.408  1.00  0.00     0.086 A 
HETATM   21  N3  UNL     1      24.779   2.587  51.046  1.00  0.00    -0.363 N 
HETATM   22  C16 UNL     1      22.883   0.715  52.659  1.00  0.00     0.013 A 
HETATM   23 CL1  UNL     1      22.514  -0.679  53.664  1.00  0.00    -0.089 Cl
HETATM   24  H22 UNL     1      25.439   1.909  50.634  1.00  0.00     0.162 HD
ENDBRANCH   3  15
TORSDOF 5
ENDMDL
MODEL 8
REMARK VINA RESULT:      -7.0      6.982     10.146
REMARK  5 active torsions:
REMARK  status: ('A' for Active; 'I' for Inactive)
REMARK    1  A    between atoms: C1_2  and  C2_3 
REMARK       I    between atoms: C1_2  and  N2_13 
REMARK    2  A    between atoms: C3_4  and  C4_5 
REMARK    3  A    between atoms: C4_5  and  C5_6 
REMARK    4  A    between atoms: C5_6  and  N1_7 
REMARK    5  A    between atoms: N2_13  and  C11_14 
ROOT
HETATM    1  O1  UNL     1      25.139   6.029  50.168  1.00  0.00    -0.258 OA
HETATM    2  C1  UNL     1      25.569   4.852  49.973  1.00  0.00     0.302 C 
HETATM    3  N2  UNL     1      26.839   4.695  49.347  1.00  0.00    -0.303 N 
HETATM    4  H15 UNL     1      27.127   3.679  49.216  1.00  0.00     0.171 HD
ENDROOT
BRANCH   2   5
HETATM    5  C2  UNL     1      24.786   3.716  50.379  1.00  0.00    -0.005 C 
HETATM    6  C3  UNL     1      24.110   2.756  50.707  1.00  0.00    -0.095 C 
BRANCH   6   7
HETATM    7  C4  UNL     1      23.283   1.603  51.124  1.00  0.00     0.114 C 
BRANCH   7   8
HETATM    8  C5  UNL     1      23.427   1.323  52.606  1.00  0.00     0.129 C 
BRANCH   8   9
HETATM    9  N1  UNL     1      24.719   0.995  53.046  1.00  0.00    -0.412 N 
HETATM   10  C6  UNL     1      25.151  -0.328  53.008  1.00  0.00     0.117 C 
HETATM   11  C7  UNL     1      26.633  -0.534  52.844  1.00  0.00     0.019 C 
HETATM   12  C8  UNL     1      27.308   0.776  52.561  1.00  0.00     0.003 C 
HETATM   13  C9  UNL     1      26.981   1.735  53.656  1.00  0.00     0.019 C 
HETATM   14  C10 UNL     1      25.509   1.968  53.678  1.00  0.00     0.117 C 
ENDBRANCH   8   9
ENDBRANCH   7   8
ENDBRANCH   6   7
ENDBRANCH   2   5
BRANCH   3  15
HETATM   15  C11 UNL     1      27.708   5.728  48.901  1.00  0.00     0.101 A 
HETATM   16  C12 UNL     1      28.734   5.286  48.169  1.00  0.00     0.024 A 
HETATM   17  C13 UNL     1      29.655   6.346  47.693  1.00  0.00     0.066 A 
HETATM   18  C14 UNL     1      29.043   7.598  48.286  1.00  0.00     0.059 A 
HETATM   19  C15 UNL     1      29.940   8.459  49.026  1.00  0.00     0.024 A 
HETATM   20  C17 UNL     1      28.844   8.731  47.359  1.00  0.00     0.086 A 
HETATM   21  N3  UNL     1      27.852   7.136  48.980  1.00  0.00    -0.363 N 
HETATM   22  C16 UNL     1      29.772   9.464  48.212  1.00  0.00     0.013 A 
HETATM   23 CL1  UNL     1      30.617  10.979  48.498  1.00  0.00    -0.089 Cl
HETATM   24  H22 UNL     1      27.117   7.637  49.504  1.00  0.00     0.162 HD
ENDBRANCH   3  15
TORSDOF 5
ENDMDL
MODEL 9
REMARK VINA RESULT:      -7.0      6.172     11.209
REMARK  5 active torsions:
REMARK  status: ('A' for Active; 'I' for Inactive)
REMARK    1  A    between atoms: C1_2  and  C2_3 
REMARK       I    between atoms: C1_2  and  N2_13 
REMARK    2  A    between atoms: C3_4  and  C4_5 
REMARK    3  A    between atoms: C4_5  and  C5_6 
REMARK    4  A    between atoms: C5_6  and  N1_7 
REMARK    5  A    between atoms: N2_13  and  C11_14 
ROOT
HETATM    1  O1  UNL     1      26.791   2.417  50.584  1.00  0.00    -0.258 OA
HETATM    2  C1  UNL     1      26.283   3.440  50.033  1.00  0.00     0.302 C 
HETATM    3  N2  UNL     1      24.884   3.660  50.185  1.00  0.00    -0.303 N 
HETATM    4  H15 UNL     1      24.534   4.537  49.692  1.00  0.00     0.171 HD
ENDROOT
BRANCH   2   5
HETATM    5  C2  UNL     1      27.108   4.345  49.279  1.00  0.00    -0.005 C 
HETATM    6  C3  UNL     1      27.825   5.103  48.649  1.00  0.00    -0.095 C 
BRANCH   6   7
HETATM    7  C4  UNL     1      28.686   6.041  47.896  1.00  0.00     0.114 C 
BRANCH   7   8
HETATM    8  C5  UNL     1      28.402   7.481  48.271  1.00  0.00     0.129 C 
BRANCH   8   9
HETATM    9  N1  UNL     1      27.048   7.816  48.438  1.00  0.00    -0.412 N 
HETATM   10  C6  UNL     1      26.239   8.012  47.322  1.00  0.00     0.117 C 
HETATM   11  C7  UNL     1      24.776   7.712  47.508  1.00  0.00     0.019 C 
HETATM   12  C8  UNL     1      24.546   7.069  48.844  1.00  0.00     0.003 C 
HETATM   13  C9  UNL     1      25.087   7.961  49.910  1.00  0.00     0.019 C 
HETATM   14  C10 UNL     1      26.557   8.117  49.717  1.00  0.00     0.117 C 
ENDBRANCH   8   9
ENDBRANCH   7   8
ENDBRANCH   6   7
ENDBRANCH   2   5
BRANCH   3  15
HETATM   15  C11 UNL     1      23.961   2.849  50.901  1.00  0.00     0.101 A 
HETATM   16  C12 UNL     1      22.930   3.530  51.407  1.00  0.00     0.024 A 
HETATM   17  C13 UNL     1      21.954   2.704  52.158  1.00  0.00     0.066 A 
HETATM   18  C14 UNL     1      22.565   1.321  52.071  1.00  0.00     0.059 A 
HETATM   19  C15 UNL     1      22.710   0.607  53.322  1.00  0.00     0.024 A 
HETATM   20  C17 UNL     1      21.663   0.233  51.644  1.00  0.00     0.086 A 
HETATM   21  N3  UNL     1      23.765   1.495  51.270  1.00  0.00    -0.363 N 
HETATM   22  C16 UNL     1      21.913  -0.357  52.954  1.00  0.00     0.013 A 
HETATM   23 CL1  UNL     1      21.581  -1.692  54.049  1.00  0.00    -0.089 Cl
HETATM   24  H22 UNL     1      24.477   0.827  50.934  1.00  0.00     0.162 HD
ENDBRANCH   3  15
TORSDOF 5
ENDMDL
