MODEL 1
REMARK VINA RESULT:      -8.5      0.000      0.000
REMARK  3 active torsions:
REMARK  status: ('A' for Active; 'I' for Inactive)
REMARK    1  A    between atoms: O1_2  and  C2_3 
REMARK    2  A    between atoms: C10_12  and  N1_13 
REMARK    3  A    between atoms: N1_13  and  C11_14 
ROOT
HETATM    1  C2  UNL     1      20.849   1.143  50.170  1.00  0.00     0.084 A 
HETATM    2  C3  UNL     1      19.615   0.618  50.298  1.00  0.00     0.069 A 
HETATM    3  C4  UNL     1      19.677   0.361  51.718  1.00  0.00     0.071 A 
HETATM    4  C5  UNL     1      20.897   0.793  52.172  1.00  0.00     0.070 A 
HETATM    5  C6  UNL     1      21.995   1.182  52.576  1.00  0.00     0.066 A 
HETATM    6  C7  UNL     1      21.879   1.399  51.068  1.00  0.00     0.132 A 
HETATM    7  O2  UNL     1      22.932   1.960  50.199  1.00  0.00    -0.365 OA
HETATM    8  C8  UNL     1      24.151   2.611  50.889  1.00  0.00     0.230 C 
HETATM    9  C9  UNL     1      23.550   2.231  52.257  1.00  0.00     0.075 C 
HETATM   10  C10 UNL     1      24.350   1.212  52.743  1.00  0.00     0.154 C 
HETATM   11  N2  UNL     1      24.344   0.166  53.814  1.00  0.00    -0.222 NA
HETATM   12  C17 UNL     1      23.336  -0.737  54.090  1.00  0.00     0.237 C 
HETATM   13  N3  UNL     1      21.976  -1.408  53.907  1.00  0.00    -0.230 NA
HETATM   14  C18 UNL     1      20.796  -0.864  53.578  1.00  0.00     0.259 C 
HETATM   15  O3  UNL     1      19.539   0.003  53.184  1.00  0.00    -0.307 OA
HETATM   16  N4  UNL     1      22.215   3.094  52.349  1.00  0.00    -0.388 N 
HETATM   17  C19 UNL     1      20.874   2.437  52.021  1.00  0.00     0.131 C 
HETATM   18  H15 UNL     1      22.446   4.027  52.648  1.00  0.00     0.159 HD
ENDROOT
BRANCH  10  19
HETATM   19  N1  UNL     1      25.439   0.856  51.908  1.00  0.00    -0.339 N 
HETATM   20  H8  UNL     1      25.441   0.536  50.902  1.00  0.00     0.167 HD
BRANCH  19  21
HETATM   21  C11 UNL     1      26.735   0.942  52.551  1.00  0.00     0.035 A 
HETATM   22  C12 UNL     1      27.213   2.176  52.980  1.00  0.00     0.029 A 
HETATM   23  C13 UNL     1      28.462   2.281  53.609  1.00  0.00     0.004 A 
HETATM   24  C14 UNL     1      29.243   1.149  53.814  1.00  0.00     0.019 A 
HETATM   25  C15 UNL     1      28.755  -0.078  53.379  1.00  0.00     0.013 A 
HETATM   26 BR1  UNL     1      29.822  -1.622  53.660  1.00  0.00    -0.051 Br
HETATM   27  C16 UNL     1      27.519  -0.177  52.757  1.00  0.00     0.048 A 
ENDBRANCH  19  21
ENDBRANCH  10  19
BRANCH   1  28
HETATM   28  O1  UNL     1      21.074   1.467  48.859  1.00  0.00    -0.357 OA
HETATM   29  C1  UNL     1      20.289   2.418  48.202  1.00  0.00     0.209 C 
ENDBRANCH   1  28
TORSDOF 3
ENDMDL
MODEL 2
REMARK VINA RESULT:      -8.1      3.432      4.534
REMARK  3 active torsions:
REMARK  status: ('A' for Active; 'I' for Inactive)
REMARK    1  A    between atoms: O1_2  and  C2_3 
REMARK    2  A    between atoms: C10_12  and  N1_13 
REMARK    3  A    between atoms: N1_13  and  C11_14 
ROOT
HETATM    1  C2  UNL     1      21.963   0.994  51.026  1.00  0.00     0.084 A 
HETATM    2  C3  UNL     1      21.677  -0.109  51.746  1.00  0.00     0.069 A 
HETATM    3  C4  UNL     1      22.792  -0.019  52.660  1.00  0.00     0.071 A 
HETATM    4  C5  UNL     1      23.507   1.108  52.344  1.00  0.00     0.070 A 
HETATM    5  C6  UNL     1      24.147   2.121  52.056  1.00  0.00     0.066 A 
HETATM    6  C7  UNL     1      22.967   1.952  51.100  1.00  0.00     0.132 A 
HETATM    7  O2  UNL     1      22.646   2.845  49.970  1.00  0.00    -0.365 OA
HETATM    8  C8  UNL     1      23.401   4.189  49.887  1.00  0.00     0.230 C 
HETATM    9  C9  UNL     1      24.198   3.792  51.146  1.00  0.00     0.075 C 
HETATM   10  C10 UNL     1      25.481   3.524  50.704  1.00  0.00     0.154 C 
HETATM   11  N2  UNL     1      26.745   2.880  51.183  1.00  0.00    -0.222 NA
HETATM   12  C17 UNL     1      26.876   1.632  51.760  1.00  0.00     0.237 C 
HETATM   13  N3  UNL     1      26.394   0.284  52.292  1.00  0.00    -0.230 NA
HETATM   14  C18 UNL     1      25.267  -0.017  52.951  1.00  0.00     0.259 C 
HETATM   15  O3  UNL     1      23.885  -0.116  53.705  1.00  0.00    -0.307 OA
HETATM   16  N4  UNL     1      23.101   3.734  52.299  1.00  0.00    -0.388 N 
HETATM   17  C19 UNL     1      22.525   2.381  52.718  1.00  0.00     0.131 C 
HETATM   18  H15 UNL     1      22.927   4.667  52.635  1.00  0.00     0.159 HD
ENDROOT
BRANCH  10  19
HETATM   19  N1  UNL     1      25.686   3.710  49.313  1.00  0.00    -0.339 N 
HETATM   20  H8  UNL     1      25.325   3.145  48.497  1.00  0.00     0.167 HD
BRANCH  19  21
HETATM   21  C11 UNL     1      26.525   4.844  48.982  1.00  0.00     0.035 A 
HETATM   22  C12 UNL     1      25.996   6.130  49.020  1.00  0.00     0.029 A 
HETATM   23  C13 UNL     1      26.792   7.241  48.708  1.00  0.00     0.004 A 
HETATM   24  C14 UNL     1      28.127   7.073  48.355  1.00  0.00     0.019 A 
HETATM   25  C15 UNL     1      28.643   5.783  48.320  1.00  0.00     0.013 A 
HETATM   26 BR1  UNL     1      30.465   5.555  47.839  1.00  0.00    -0.051 Br
HETATM   27  C16 UNL     1      27.852   4.686  48.629  1.00  0.00     0.048 A 
ENDBRANCH  19  21
ENDBRANCH  10  19
BRANCH   1  28
HETATM   28  O1  UNL     1      21.037   1.142  50.029  1.00  0.00    -0.357 OA
HETATM   29  C1  UNL     1      19.667   1.039  50.290  1.00  0.00     0.209 C 
ENDBRANCH   1  28
TORSDOF 3
ENDMDL
MODEL 3
REMARK VINA RESULT:      -8.0      1.833      2.155
REMARK  3 active torsions:
REMARK  status: ('A' for Active; 'I' for Inactive)
REMARK    1  A    between atoms: O1_2  and  C2_3 
REMARK    2  A    between atoms: C10_12  and  N1_13 
REMARK    3  A    between atoms: N1_13  and  C11_14 
ROOT
HETATM    1  C2  UNL     1      21.878   4.052  49.899  1.00  0.00     0.084 A 
HETATM    2  C3  UNL     1      20.534   4.138  49.874  1.00  0.00     0.069 A 
HETATM    3  C4  UNL     1      20.299   3.656  51.215  1.00  0.00     0.071 A 
HETATM    4  C5  UNL     1      21.517   3.400  51.791  1.00  0.00     0.070 A 
HETATM    5  C6  UNL     1      22.614   3.172  52.304  1.00  0.00     0.066 A 
HETATM    6  C7  UNL     1      22.795   3.658  50.867  1.00  0.00     0.132 A 
HETATM    7  O2  UNL     1      24.086   3.806  50.167  1.00  0.00    -0.365 OA
HETATM    8  C8  UNL     1      25.371   3.704  51.018  1.00  0.00     0.230 C 
HETATM    9  C9  UNL     1      24.500   3.427  52.259  1.00  0.00     0.075 C 
HETATM   10  C10 UNL     1      24.698   2.091  52.560  1.00  0.00     0.154 C 
HETATM   11  N2  UNL     1      24.097   1.007  53.399  1.00  0.00    -0.222 NA
HETATM   12  C17 UNL     1      22.767   0.636  53.452  1.00  0.00     0.237 C 
HETATM   13  N3  UNL     1      21.286   0.702  53.088  1.00  0.00    -0.230 NA
HETATM   14  C18 UNL     1      20.520   1.772  52.832  1.00  0.00     0.259 C 
HETATM   15  O3  UNL     1      19.836   3.170  52.573  1.00  0.00    -0.307 OA
HETATM   16  N4  UNL     1      23.686   4.778  52.473  1.00  0.00    -0.388 N 
HETATM   17  C19 UNL     1      22.244   4.872  51.971  1.00  0.00     0.131 C 
HETATM   18  H15 UNL     1      24.267   5.440  52.960  1.00  0.00     0.159 HD
ENDROOT
BRANCH  10  19
HETATM   19  N1  UNL     1      25.611   1.415  51.712  1.00  0.00    -0.339 N 
HETATM   20  H8  UNL     1      25.540   1.200  50.680  1.00  0.00     0.167 HD
BRANCH  19  21
HETATM   21  C11 UNL     1      26.811   0.951  52.377  1.00  0.00     0.035 A 
HETATM   22  C12 UNL     1      27.660   1.867  52.990  1.00  0.00     0.029 A 
HETATM   23  C13 UNL     1      28.823   1.437  53.645  1.00  0.00     0.004 A 
HETATM   24  C14 UNL     1      29.147   0.085  53.691  1.00  0.00     0.019 A 
HETATM   25  C15 UNL     1      28.290  -0.819  53.074  1.00  0.00     0.013 A 
HETATM   26 BR1  UNL     1      28.732  -2.664  53.138  1.00  0.00    -0.051 Br
HETATM   27  C16 UNL     1      27.140  -0.390  52.427  1.00  0.00     0.048 A 
ENDBRANCH  19  21
ENDBRANCH  10  19
BRANCH   1  28
HETATM   28  O1  UNL     1      22.383   4.443  48.688  1.00  0.00    -0.357 OA
HETATM   29  C1  UNL     1      21.793   4.035  47.489  1.00  0.00     0.209 C 
ENDBRANCH   1  28
TORSDOF 3
ENDMDL
MODEL 4
REMARK VINA RESULT:      -7.7      3.457      6.193
REMARK  3 active torsions:
REMARK  status: ('A' for Active; 'I' for Inactive)
REMARK    1  A    between atoms: O1_2  and  C2_3 
REMARK    2  A    between atoms: C10_12  and  N1_13 
REMARK    3  A    between atoms: N1_13  and  C11_14 
ROOT
HETATM    1  C2  UNL     1      23.843   5.994  50.317  1.00  0.00     0.084 A 
HETATM    2  C3  UNL     1      24.900   6.635  49.781  1.00  0.00     0.069 A 
HETATM    3  C4  UNL     1      25.660   5.460  49.425  1.00  0.00     0.071 A 
HETATM    4  C5  UNL     1      24.925   4.358  49.781  1.00  0.00     0.070 A 
HETATM    5  C6  UNL     1      24.261   3.370  50.103  1.00  0.00     0.066 A 
HETATM    6  C7  UNL     1      23.520   4.652  50.484  1.00  0.00     0.132 A 
HETATM    7  O2  UNL     1      22.215   4.717  51.169  1.00  0.00    -0.365 OA
HETATM    8  C8  UNL     1      21.411   3.404  51.292  1.00  0.00     0.230 C 
HETATM    9  C9  UNL     1      22.566   2.658  50.595  1.00  0.00     0.075 C 
HETATM   10  C10 UNL     1      23.162   1.893  51.581  1.00  0.00     0.154 C 
HETATM   11  N2  UNL     1      24.415   1.109  51.820  1.00  0.00    -0.222 NA
HETATM   12  C17 UNL     1      25.714   1.533  51.615  1.00  0.00     0.237 C 
HETATM   13  N3  UNL     1      26.813   2.513  51.212  1.00  0.00    -0.230 NA
HETATM   14  C18 UNL     1      26.832   3.406  50.212  1.00  0.00     0.259 C 
HETATM   15  O3  UNL     1      26.614   4.369  48.982  1.00  0.00    -0.307 OA
HETATM   16  N4  UNL     1      22.592   3.267  49.124  1.00  0.00    -0.388 N 
HETATM   17  C19 UNL     1      23.611   4.354  48.781  1.00  0.00     0.131 C 
HETATM   18  H15 UNL     1      21.888   2.812  48.567  1.00  0.00     0.159 HD
ENDROOT
BRANCH  10  19
HETATM   19  N1  UNL     1      22.557   1.988  52.860  1.00  0.00    -0.339 N 
HETATM   20  H8  UNL     1      22.490   2.814  53.515  1.00  0.00     0.167 HD
BRANCH  19  21
HETATM   21  C11 UNL     1      21.953   0.756  53.326  1.00  0.00     0.035 A 
HETATM   22  C12 UNL     1      22.708  -0.146  54.070  1.00  0.00     0.029 A 
HETATM   23  C13 UNL     1      22.141  -1.341  54.535  1.00  0.00     0.004 A 
HETATM   24  C14 UNL     1      20.811  -1.644  54.259  1.00  0.00     0.019 A 
HETATM   25  C15 UNL     1      20.069  -0.734  53.514  1.00  0.00     0.013 A 
HETATM   26 BR1  UNL     1      18.255  -1.147  53.139  1.00  0.00    -0.051 Br
HETATM   27  C16 UNL     1      20.634   0.447  53.056  1.00  0.00     0.048 A 
ENDBRANCH  19  21
ENDBRANCH  10  19
BRANCH   1  28
HETATM   28  O1  UNL     1      22.937   6.912  50.777  1.00  0.00    -0.357 OA
HETATM   29  C1  UNL     1      22.657   8.078  50.060  1.00  0.00     0.209 C 
ENDBRANCH   1  28
TORSDOF 3
ENDMDL
MODEL 5
REMARK VINA RESULT:      -7.6      3.189      4.244
REMARK  3 active torsions:
REMARK  status: ('A' for Active; 'I' for Inactive)
REMARK    1  A    between atoms: O1_2  and  C2_3 
REMARK    2  A    between atoms: C10_12  and  N1_13 
REMARK    3  A    between atoms: N1_13  and  C11_14 
ROOT
HETATM    1  C2  UNL     1      19.848   0.821  51.272  1.00  0.00     0.084 A 
HETATM    2  C3  UNL     1      19.391  -0.129  52.111  1.00  0.00     0.069 A 
HETATM    3  C4  UNL     1      20.374   0.065  53.151  1.00  0.00     0.071 A 
HETATM    4  C5  UNL     1      21.202   1.088  52.765  1.00  0.00     0.070 A 
HETATM    5  C6  UNL     1      21.943   2.007  52.413  1.00  0.00     0.066 A 
HETATM    6  C7  UNL     1      20.896   1.732  51.335  1.00  0.00     0.132 A 
HETATM    7  O2  UNL     1      20.794   2.432  50.040  1.00  0.00    -0.365 OA
HETATM    8  C8  UNL     1      21.645   3.707  49.852  1.00  0.00     0.230 C 
HETATM    9  C9  UNL     1      22.233   3.495  51.262  1.00  0.00     0.075 C 
HETATM   10  C10 UNL     1      23.543   3.098  51.060  1.00  0.00     0.154 C 
HETATM   11  N2  UNL     1      24.682   2.489  51.817  1.00  0.00    -0.222 NA
HETATM   12  C17 UNL     1      24.647   1.352  52.602  1.00  0.00     0.237 C 
HETATM   13  N3  UNL     1      24.005   0.138  53.269  1.00  0.00    -0.230 NA
HETATM   14  C18 UNL     1      22.780   0.005  53.797  1.00  0.00     0.259 C 
HETATM   15  O3  UNL     1      21.304   0.098  54.346  1.00  0.00    -0.307 OA
HETATM   16  N4  UNL     1      20.988   3.684  52.235  1.00  0.00    -0.388 N 
HETATM   17  C19 UNL     1      20.267   2.449  52.780  1.00  0.00     0.131 C 
HETATM   18  H15 UNL     1      20.834   4.667  52.387  1.00  0.00     0.159 HD
ENDROOT
BRANCH  10  19
HETATM   19  N1  UNL     1      23.948   3.035  49.703  1.00  0.00    -0.339 N 
HETATM   20  H8  UNL     1      23.603   2.409  48.925  1.00  0.00     0.167 HD
BRANCH  19  21
HETATM   21  C11 UNL     1      24.997   3.970  49.351  1.00  0.00     0.035 A 
HETATM   22  C12 UNL     1      26.323   3.548  49.339  1.00  0.00     0.029 A 
HETATM   23  C13 UNL     1      27.353   4.436  48.996  1.00  0.00     0.004 A 
HETATM   24  C14 UNL     1      27.063   5.754  48.660  1.00  0.00     0.019 A 
HETATM   25  C15 UNL     1      25.735   6.162  48.677  1.00  0.00     0.013 A 
HETATM   26 BR1  UNL     1      25.340   7.961  48.218  1.00  0.00    -0.051 Br
HETATM   27  C16 UNL     1      24.719   5.281  49.018  1.00  0.00     0.048 A 
ENDBRANCH  19  21
ENDBRANCH  10  19
BRANCH   1  28
HETATM   28  O1  UNL     1      19.078   0.839  50.139  1.00  0.00    -0.357 OA
HETATM   29  C1  UNL     1      17.781   0.317  50.135  1.00  0.00     0.209 C 
ENDBRANCH   1  28
TORSDOF 3
ENDMDL
MODEL 6
REMARK VINA RESULT:      -7.6      2.527      4.373
REMARK  3 active torsions:
REMARK  status: ('A' for Active; 'I' for Inactive)
REMARK    1  A    between atoms: O1_2  and  C2_3 
REMARK    2  A    between atoms: C10_12  and  N1_13 
REMARK    3  A    between atoms: N1_13  and  C11_14 
ROOT
HETATM    1  C2  UNL     1      21.585   4.416  50.914  1.00  0.00     0.084 A 
HETATM    2  C3  UNL     1      21.068   5.342  50.083  1.00  0.00     0.069 A 
HETATM    3  C4  UNL     1      22.105   5.279  49.079  1.00  0.00     0.071 A 
HETATM    4  C5  UNL     1      23.015   4.331  49.471  1.00  0.00     0.070 A 
HETATM    5  C6  UNL     1      23.830   3.478  49.828  1.00  0.00     0.066 A 
HETATM    6  C7  UNL     1      22.720   3.615  50.869  1.00  0.00     0.132 A 
HETATM    7  O2  UNL     1      22.639   2.867  52.138  1.00  0.00    -0.365 OA
HETATM    8  C8  UNL     1      23.604   1.677  52.326  1.00  0.00     0.230 C 
HETATM    9  C9  UNL     1      24.222   1.991  50.949  1.00  0.00     0.075 C 
HETATM   10  C10 UNL     1      25.477   2.508  51.215  1.00  0.00     0.154 C 
HETATM   11  N2  UNL     1      26.578   3.250  50.523  1.00  0.00    -0.222 NA
HETATM   12  C17 UNL     1      26.460   4.402  49.769  1.00  0.00     0.237 C 
HETATM   13  N3  UNL     1      25.727   5.568  49.110  1.00  0.00    -0.230 NA
HETATM   14  C18 UNL     1      24.516   5.596  48.536  1.00  0.00     0.259 C 
HETATM   15  O3  UNL     1      23.079   5.375  47.923  1.00  0.00    -0.307 OA
HETATM   16  N4  UNL     1      23.040   1.711  49.920  1.00  0.00    -0.388 N 
HETATM   17  C19 UNL     1      22.222   2.885  49.380  1.00  0.00     0.131 C 
HETATM   18  H15 UNL     1      22.992   0.723  49.734  1.00  0.00     0.159 HD
ENDROOT
BRANCH  10  19
HETATM   19  N1  UNL     1      25.822   2.568  52.589  1.00  0.00    -0.339 N 
HETATM   20  H8  UNL     1      25.394   3.139  53.367  1.00  0.00     0.167 HD
BRANCH  19  21
HETATM   21  C11 UNL     1      26.934   1.717  52.961  1.00  0.00     0.035 A 
HETATM   22  C12 UNL     1      28.063   2.275  53.552  1.00  0.00     0.029 A 
HETATM   23  C13 UNL     1      29.148   1.469  53.926  1.00  0.00     0.004 A 
HETATM   24  C14 UNL     1      29.111   0.095  53.710  1.00  0.00     0.019 A 
HETATM   25  C15 UNL     1      27.977  -0.449  53.118  1.00  0.00     0.013 A 
HETATM   26 BR1  UNL     1      27.927  -2.323  52.825  1.00  0.00    -0.051 Br
HETATM   27  C16 UNL     1      26.906   0.352  52.750  1.00  0.00     0.048 A 
ENDBRANCH  19  21
ENDBRANCH  10  19
BRANCH   1  28
HETATM   28  O1  UNL     1      20.778   4.287  52.012  1.00  0.00    -0.357 OA
HETATM   29  C1  UNL     1      19.544   3.635  51.934  1.00  0.00     0.209 C 
ENDBRANCH   1  28
TORSDOF 3
ENDMDL
MODEL 7
REMARK VINA RESULT:      -7.4      8.416     10.364
REMARK  3 active torsions:
REMARK  status: ('A' for Active; 'I' for Inactive)
REMARK    1  A    between atoms: O1_2  and  C2_3 
REMARK    2  A    between atoms: C10_12  and  N1_13 
REMARK    3  A    between atoms: N1_13  and  C11_14 
ROOT
HETATM    1  C2  UNL     1      28.653  10.182  47.386  1.00  0.00     0.084 A 
HETATM    2  C3  UNL     1      27.399  10.640  47.569  1.00  0.00     0.069 A 
HETATM    3  C4  UNL     1      26.959   9.600  48.469  1.00  0.00     0.071 A 
HETATM    4  C5  UNL     1      28.013   8.746  48.675  1.00  0.00     0.070 A 
HETATM    5  C6  UNL     1      28.963   7.981  48.856  1.00  0.00     0.066 A 
HETATM    6  C7  UNL     1      29.357   9.091  47.883  1.00  0.00     0.132 A 
HETATM    7  O2  UNL     1      30.669   9.224  47.221  1.00  0.00    -0.365 OA
HETATM    8  C8  UNL     1      31.817   8.326  47.730  1.00  0.00     0.230 C 
HETATM    9  C9  UNL     1      30.838   7.680  48.730  1.00  0.00     0.075 C 
HETATM   10  C10 UNL     1      30.611   6.401  48.254  1.00  0.00     0.154 C 
HETATM   11  N2  UNL     1      29.669   5.256  48.457  1.00  0.00    -0.222 NA
HETATM   12  C17 UNL     1      28.289   5.304  48.463  1.00  0.00     0.237 C 
HETATM   13  N3  UNL     1      26.917   5.967  48.367  1.00  0.00    -0.230 NA
HETATM   14  C18 UNL     1      26.520   7.170  48.807  1.00  0.00     0.259 C 
HETATM   15  O3  UNL     1      26.301   8.611  49.409  1.00  0.00    -0.307 OA
HETATM   16  N4  UNL     1      30.454   8.867  49.720  1.00  0.00    -0.388 N 
HETATM   17  C19 UNL     1      29.135   9.615  49.518  1.00  0.00     0.131 C 
HETATM   18  H15 UNL     1      31.179   8.967  50.411  1.00  0.00     0.159 HD
ENDROOT
BRANCH  10  19
HETATM   19  N1  UNL     1      31.325   6.066  47.075  1.00  0.00    -0.339 N 
HETATM   20  H8  UNL     1      31.297   6.515  46.120  1.00  0.00     0.167 HD
BRANCH  19  21
HETATM   21  C11 UNL     1      32.213   4.931  47.220  1.00  0.00     0.035 A 
HETATM   22  C12 UNL     1      33.507   5.122  47.693  1.00  0.00     0.029 A 
HETATM   23  C13 UNL     1      34.381   4.036  47.846  1.00  0.00     0.004 A 
HETATM   24  C14 UNL     1      33.966   2.748  47.525  1.00  0.00     0.019 A 
HETATM   25  C15 UNL     1      32.671   2.571  47.052  1.00  0.00     0.013 A 
HETATM   26 BR1  UNL     1      32.105   0.813  46.616  1.00  0.00    -0.051 Br
HETATM   27  C16 UNL     1      31.809   3.648  46.903  1.00  0.00     0.048 A 
ENDBRANCH  19  21
ENDBRANCH  10  19
BRANCH   1  28
HETATM   28  O1  UNL     1      29.317  11.004  46.515  1.00  0.00    -0.357 OA
HETATM   29  C1  UNL     1      28.662  12.056  45.868  1.00  0.00     0.209 C 
ENDBRANCH   1  28
TORSDOF 3
ENDMDL
MODEL 8
REMARK VINA RESULT:      -7.4      3.834      6.245
REMARK  3 active torsions:
REMARK  status: ('A' for Active; 'I' for Inactive)
REMARK    1  A    between atoms: O1_2  and  C2_3 
REMARK    2  A    between atoms: C10_12  and  N1_13 
REMARK    3  A    between atoms: N1_13  and  C11_14 
ROOT
HETATM    1  C2  UNL     1      24.389   5.433  49.442  1.00  0.00     0.084 A 
HETATM    2  C3  UNL     1      24.083   6.542  48.740  1.00  0.00     0.069 A 
HETATM    3  C4  UNL     1      22.869   6.872  49.450  1.00  0.00     0.071 A 
HETATM    4  C5  UNL     1      22.691   5.939  50.439  1.00  0.00     0.070 A 
HETATM    5  C6  UNL     1      22.535   5.098  51.326  1.00  0.00     0.066 A 
HETATM    6  C7  UNL     1      23.792   4.783  50.515  1.00  0.00     0.132 A 
HETATM    7  O2  UNL     1      24.682   3.626  50.728  1.00  0.00    -0.365 OA
HETATM    8  C8  UNL     1      24.482   2.802  52.019  1.00  0.00     0.230 C 
HETATM    9  C9  UNL     1      23.299   3.718  52.392  1.00  0.00     0.075 C 
HETATM   10  C10 UNL     1      22.164   2.945  52.223  1.00  0.00     0.154 C 
HETATM   11  N2  UNL     1      20.678   3.100  52.130  1.00  0.00    -0.222 NA
HETATM   12  C17 UNL     1      19.982   3.979  51.323  1.00  0.00     0.237 C 
HETATM   13  N3  UNL     1      19.817   5.085  50.283  1.00  0.00    -0.230 NA
HETATM   14  C18 UNL     1      20.560   6.183  50.084  1.00  0.00     0.259 C 
HETATM   15  O3  UNL     1      21.577   7.387  50.050  1.00  0.00    -0.307 OA
HETATM   16  N4  UNL     1      23.969   5.142  52.629  1.00  0.00    -0.388 N 
HETATM   17  C19 UNL     1      23.917   6.190  51.516  1.00  0.00     0.131 C 
HETATM   18  H15 UNL     1      24.358   5.173  53.558  1.00  0.00     0.159 HD
ENDROOT
BRANCH  10  19
HETATM   19  N1  UNL     1      22.405   1.610  51.811  1.00  0.00    -0.339 N 
HETATM   20  H8  UNL     1      22.927   1.248  50.967  1.00  0.00     0.167 HD
BRANCH  19  21
HETATM   21  C11 UNL     1      21.835   0.605  52.685  1.00  0.00     0.035 A 
HETATM   22  C12 UNL     1      22.620   0.028  53.679  1.00  0.00     0.029 A 
HETATM   23  C13 UNL     1      22.088  -0.942  54.539  1.00  0.00     0.004 A 
HETATM   24  C14 UNL     1      20.762  -1.343  54.413  1.00  0.00     0.019 A 
HETATM   25  C15 UNL     1      19.989  -0.760  53.416  1.00  0.00     0.013 A 
HETATM   26 BR1  UNL     1      18.179  -1.308  53.244  1.00  0.00    -0.051 Br
HETATM   27  C16 UNL     1      20.520   0.199  52.566  1.00  0.00     0.048 A 
ENDBRANCH  19  21
ENDBRANCH  10  19
BRANCH   1  28
HETATM   28  O1  UNL     1      25.536   4.878  48.940  1.00  0.00    -0.357 OA
HETATM   29  C1  UNL     1      26.682   5.649  48.727  1.00  0.00     0.209 C 
ENDBRANCH   1  28
TORSDOF 3
ENDMDL
MODEL 9
REMARK VINA RESULT:      -7.3      3.930      6.854
REMARK  3 active torsions:
REMARK  status: ('A' for Active; 'I' for Inactive)
REMARK    1  A    between atoms: O1_2  and  C2_3 
REMARK    2  A    between atoms: C10_12  and  N1_13 
REMARK    3  A    between atoms: N1_13  and  C11_14 
ROOT
HETATM    1  C2  UNL     1      23.877   1.253  52.328  1.00  0.00     0.084 A 
HETATM    2  C3  UNL     1      24.953   0.442  52.320  1.00  0.00     0.069 A 
HETATM    3  C4  UNL     1      25.928   1.443  51.955  1.00  0.00     0.071 A 
HETATM    4  C5  UNL     1      25.277   2.645  51.841  1.00  0.00     0.070 A 
HETATM    5  C6  UNL     1      24.687   3.723  51.740  1.00  0.00     0.066 A 
HETATM    6  C7  UNL     1      23.699   2.612  52.095  1.00  0.00     0.132 A 
HETATM    7  O2  UNL     1      22.243   2.781  52.262  1.00  0.00    -0.365 OA
HETATM    8  C8  UNL     1      21.698   4.224  52.333  1.00  0.00     0.230 C 
HETATM    9  C9  UNL     1      23.131   4.751  52.118  1.00  0.00     0.075 C 
HETATM   10  C10 UNL     1      23.148   5.268  50.835  1.00  0.00     0.154 C 
HETATM   11  N2  UNL     1      24.127   5.723  49.799  1.00  0.00    -0.222 NA
HETATM   12  C17 UNL     1      25.237   5.038  49.344  1.00  0.00     0.237 C 
HETATM   13  N3  UNL     1      26.226   3.877  49.272  1.00  0.00    -0.230 NA
HETATM   14  C18 UNL     1      26.696   3.097  50.257  1.00  0.00     0.259 C 
HETATM   15  O3  UNL     1      27.098   2.326  51.573  1.00  0.00    -0.307 OA
HETATM   16  N4  UNL     1      23.915   4.289  53.425  1.00  0.00    -0.388 N 
HETATM   17  C19 UNL     1      24.791   3.037  53.370  1.00  0.00     0.131 C 
HETATM   18  H15 UNL     1      23.728   4.941  54.169  1.00  0.00     0.159 HD
ENDROOT
BRANCH  10  19
HETATM   19  N1  UNL     1      21.912   5.195  50.144  1.00  0.00    -0.339 N 
HETATM   20  H8  UNL     1      20.958   5.547  50.429  1.00  0.00     0.167 HD
BRANCH  19  21
HETATM   21  C11 UNL     1      21.986   4.528  48.860  1.00  0.00     0.035 A 
HETATM   22  C12 UNL     1      22.188   3.153  48.806  1.00  0.00     0.029 A 
HETATM   23  C13 UNL     1      22.257   2.487  47.573  1.00  0.00     0.004 A 
HETATM   24  C14 UNL     1      22.125   3.195  46.383  1.00  0.00     0.019 A 
HETATM   25  C15 UNL     1      21.924   4.569  46.451  1.00  0.00     0.013 A 
HETATM   26 BR1  UNL     1      21.743   5.533  44.827  1.00  0.00    -0.051 Br
HETATM   27  C16 UNL     1      21.857   5.223  47.673  1.00  0.00     0.048 A 
ENDBRANCH  19  21
ENDBRANCH  10  19
BRANCH   1  28
HETATM   28  O1  UNL     1      22.759   0.525  52.635  1.00  0.00    -0.357 OA
HETATM   29  C1  UNL     1      22.838  -0.636  53.409  1.00  0.00     0.209 C 
ENDBRANCH   1  28
TORSDOF 3
ENDMDL
