MODEL 1
REMARK VINA RESULT:      -8.5      0.000      0.000
REMARK  4 active torsions:
REMARK  status: ('A' for Active; 'I' for Inactive)
REMARK    1  A    between atoms: N3_7  and  C5_8 
REMARK    2  A    between atoms: C8_11  and  O1_12 
REMARK    3  A    between atoms: O1_12  and  C9_13 
REMARK    4  A    between atoms: C9_13  and  C10_14 
ROOT
HETATM    1  C5  UNL     1      25.521  -0.013  53.405  1.00  0.00     0.043 A 
HETATM    2  C6  UNL     1      25.218   0.877  52.400  1.00  0.00     0.033 A 
HETATM    3  C7  UNL     1      23.919   1.188  52.163  1.00  0.00     0.041 A 
HETATM    4  C8  UNL     1      22.854   0.677  52.860  1.00  0.00     0.091 A 
HETATM    5  C16 UNL     1      23.165  -0.232  53.885  1.00  0.00     0.069 A 
HETATM    6 CL1  UNL     1      22.071  -1.076  54.969  1.00  0.00    -0.081 Cl
HETATM    7  C17 UNL     1      24.495  -0.577  54.158  1.00  0.00     0.056 A 
ENDROOT
BRANCH   4   8
HETATM    8  O1  UNL     1      21.496   0.802  52.845  1.00  0.00    -0.345 OA
BRANCH   8   9
HETATM    9  C9  UNL     1      20.562   0.666  51.847  1.00  0.00     0.214 C 
BRANCH   9  10
HETATM   10  C10 UNL     1      19.346  -0.086  52.151  1.00  0.00    -0.031 A 
HETATM   11  C11 UNL     1      18.231   0.189  51.349  1.00  0.00     0.009 A 
HETATM   12  C12 UNL     1      16.979  -0.387  51.456  1.00  0.00     0.004 A 
HETATM   13  C13 UNL     1      16.814  -1.327  52.456  1.00  0.00     0.042 A 
HETATM   14  C14 UNL     1      17.868  -1.642  53.277  1.00  0.00     0.117 A 
HETATM   15  F1  UNL     1      17.757  -2.552  54.266  1.00  0.00    -0.206 F 
HETATM   16  C15 UNL     1      19.086  -1.033  53.119  1.00  0.00     0.051 A 
ENDBRANCH   9  10
ENDBRANCH   8   9
ENDBRANCH   4   8
BRANCH   1  17
HETATM   17  N3  UNL     1      26.908  -0.286  53.594  1.00  0.00    -0.294 N 
HETATM   18  C2  UNL     1      27.541  -1.423  53.040  1.00  0.00     0.113 A 
HETATM   19  C1  UNL     1      26.744  -2.203  52.341  1.00  0.00     0.087 C 
HETATM   20  N1  UNL     1      28.935  -1.647  53.260  1.00  0.00    -0.228 NA
HETATM   21  C3  UNL     1      29.626  -0.810  53.970  1.00  0.00     0.236 A 
HETATM   22  N2  UNL     1      29.011   0.338  54.537  1.00  0.00    -0.236 NA
HETATM   23  C4  UNL     1      27.777   0.572  54.363  1.00  0.00     0.217 A 
ENDBRANCH   1  17
TORSDOF 4
ENDMDL
MODEL 2
REMARK VINA RESULT:      -8.1      1.613      2.170
REMARK  4 active torsions:
REMARK  status: ('A' for Active; 'I' for Inactive)
REMARK    1  A    between atoms: N3_7  and  C5_8 
REMARK    2  A    between atoms: C8_11  and  O1_12 
REMARK    3  A    between atoms: O1_12  and  C9_13 
REMARK    4  A    between atoms: C9_13  and  C10_14 
ROOT
HETATM    1  C5  UNL     1      25.428  -0.317  53.775  1.00  0.00     0.043 A 
HETATM    2  C6  UNL     1      24.744  -0.980  54.767  1.00  0.00     0.033 A 
HETATM    3  C7  UNL     1      23.389  -0.933  54.783  1.00  0.00     0.041 A 
HETATM    4  C8  UNL     1      22.621  -0.261  53.865  1.00  0.00     0.091 A 
HETATM    5  C16 UNL     1      23.320   0.417  52.853  1.00  0.00     0.069 A 
HETATM    6 CL1  UNL     1      22.675   1.371  51.526  1.00  0.00    -0.081 Cl
HETATM    7  C17 UNL     1      24.720   0.390  52.806  1.00  0.00     0.056 A 
ENDROOT
BRANCH   4   8
HETATM    8  O1  UNL     1      21.294  -0.045  53.637  1.00  0.00    -0.345 OA
BRANCH   8   9
HETATM    9  C9  UNL     1      20.188  -0.848  53.762  1.00  0.00     0.214 C 
BRANCH   9  10
HETATM   10  C10 UNL     1      19.090  -0.647  52.818  1.00  0.00    -0.031 A 
HETATM   11  C11 UNL     1      17.866  -1.237  53.156  1.00  0.00     0.009 A 
HETATM   12  C12 UNL     1      16.699  -1.191  52.416  1.00  0.00     0.004 A 
HETATM   13  C13 UNL     1      16.749  -0.491  51.225  1.00  0.00     0.042 A 
HETATM   14  C14 UNL     1      17.918   0.112  50.837  1.00  0.00     0.117 A 
HETATM   15  F1  UNL     1      18.017   0.807  49.685  1.00  0.00    -0.206 F 
HETATM   16  C15 UNL     1      19.043   0.028  51.616  1.00  0.00     0.051 A 
ENDBRANCH   9  10
ENDBRANCH   8   9
ENDBRANCH   4   8
BRANCH   1  17
HETATM   17  N3  UNL     1      26.850  -0.418  53.827  1.00  0.00    -0.294 N 
HETATM   18  C2  UNL     1      27.572  -1.368  53.068  1.00  0.00     0.113 A 
HETATM   19  C1  UNL     1      26.824  -2.147  52.316  1.00  0.00     0.087 C 
HETATM   20  N1  UNL     1      28.997  -1.423  53.158  1.00  0.00    -0.228 NA
HETATM   21  C3  UNL     1      29.635  -0.605  53.936  1.00  0.00     0.236 A 
HETATM   22  N2  UNL     1      28.928   0.357  54.707  1.00  0.00    -0.236 NA
HETATM   23  C4  UNL     1      27.665   0.439  54.655  1.00  0.00     0.217 A 
ENDBRANCH   1  17
TORSDOF 4
ENDMDL
MODEL 3
REMARK VINA RESULT:      -8.1      2.589      3.281
REMARK  4 active torsions:
REMARK  status: ('A' for Active; 'I' for Inactive)
REMARK    1  A    between atoms: N3_7  and  C5_8 
REMARK    2  A    between atoms: C8_11  and  O1_12 
REMARK    3  A    between atoms: O1_12  and  C9_13 
REMARK    4  A    between atoms: C9_13  and  C10_14 
ROOT
HETATM    1  C5  UNL     1      25.231   0.071  53.477  1.00  0.00     0.043 A 
HETATM    2  C6  UNL     1      24.940   1.078  52.586  1.00  0.00     0.033 A 
HETATM    3  C7  UNL     1      23.646   1.322  52.262  1.00  0.00     0.041 A 
HETATM    4  C8  UNL     1      22.573   0.629  52.762  1.00  0.00     0.091 A 
HETATM    5  C16 UNL     1      22.870  -0.400  53.671  1.00  0.00     0.069 A 
HETATM    6 CL1  UNL     1      21.763  -1.483  54.501  1.00  0.00    -0.081 Cl
HETATM    7  C17 UNL     1      24.196  -0.680  54.029  1.00  0.00     0.056 A 
ENDROOT
BRANCH   4   8
HETATM    8  O1  UNL     1      21.216   0.649  52.623  1.00  0.00    -0.345 OA
BRANCH   8   9
HETATM    9  C9  UNL     1      20.383   0.296  51.591  1.00  0.00     0.214 C 
BRANCH   9  10
HETATM   10  C10 UNL     1      20.527   1.013  50.325  1.00  0.00    -0.031 A 
HETATM   11  C11 UNL     1      19.482   1.880  49.982  1.00  0.00     0.009 A 
HETATM   12  C12 UNL     1      19.395   2.649  48.836  1.00  0.00     0.004 A 
HETATM   13  C13 UNL     1      20.445   2.550  47.942  1.00  0.00     0.042 A 
HETATM   14  C14 UNL     1      21.500   1.717  48.220  1.00  0.00     0.117 A 
HETATM   15  F1  UNL     1      22.547   1.586  47.380  1.00  0.00    -0.206 F 
HETATM   16  C15 UNL     1      21.526   0.979  49.375  1.00  0.00     0.051 A 
ENDBRANCH   9  10
ENDBRANCH   8   9
ENDBRANCH   4   8
BRANCH   1  17
HETATM   17  N3  UNL     1      26.614  -0.120  53.768  1.00  0.00    -0.294 N 
HETATM   18  C2  UNL     1      27.384  -1.139  53.160  1.00  0.00     0.113 A 
HETATM   19  C1  UNL     1      26.719  -1.891  52.309  1.00  0.00     0.087 C 
HETATM   20  N1  UNL     1      28.767  -1.284  53.489  1.00  0.00    -0.228 NA
HETATM   21  C3  UNL     1      29.323  -0.485  54.346  1.00  0.00     0.236 A 
HETATM   22  N2  UNL     1      28.567   0.545  54.969  1.00  0.00    -0.236 NA
HETATM   23  C4  UNL     1      27.338   0.707  54.704  1.00  0.00     0.217 A 
ENDBRANCH   1  17
TORSDOF 4
ENDMDL
MODEL 4
REMARK VINA RESULT:      -8.1      2.896      3.474
REMARK  4 active torsions:
REMARK  status: ('A' for Active; 'I' for Inactive)
REMARK    1  A    between atoms: N3_7  and  C5_8 
REMARK    2  A    between atoms: C8_11  and  O1_12 
REMARK    3  A    between atoms: O1_12  and  C9_13 
REMARK    4  A    between atoms: C9_13  and  C10_14 
ROOT
HETATM    1  C5  UNL     1      26.705   1.487  52.680  1.00  0.00     0.043 A 
HETATM    2  C6  UNL     1      25.877   1.884  53.704  1.00  0.00     0.033 A 
HETATM    3  C7  UNL     1      24.875   2.761  53.442  1.00  0.00     0.041 A 
HETATM    4  C8  UNL     1      24.612   3.299  52.208  1.00  0.00     0.091 A 
HETATM    5  C16 UNL     1      25.459   2.893  51.163  1.00  0.00     0.069 A 
HETATM    6 CL1  UNL     1      25.421   3.372  49.474  1.00  0.00    -0.081 Cl
HETATM    7  C17 UNL     1      26.504   1.989  51.397  1.00  0.00     0.056 A 
ENDROOT
BRANCH   4   8
HETATM    8  O1  UNL     1      23.712   4.169  51.667  1.00  0.00    -0.345 OA
BRANCH   8   9
HETATM    9  C9  UNL     1      22.350   4.112  51.502  1.00  0.00     0.214 C 
BRANCH   9  10
HETATM   10  C10 UNL     1      21.714   2.795  51.537  1.00  0.00    -0.031 A 
HETATM   11  C11 UNL     1      21.776   2.046  50.355  1.00  0.00     0.009 A 
HETATM   12  C12 UNL     1      21.240   0.788  50.151  1.00  0.00     0.004 A 
HETATM   13  C13 UNL     1      20.578   0.216  51.221  1.00  0.00     0.042 A 
HETATM   14  C14 UNL     1      20.482   0.899  52.407  1.00  0.00     0.117 A 
HETATM   15  F1  UNL     1      19.847   0.384  53.480  1.00  0.00    -0.206 F 
HETATM   16  C15 UNL     1      21.035   2.146  52.546  1.00  0.00     0.051 A 
ENDBRANCH   9  10
ENDBRANCH   8   9
ENDBRANCH   4   8
BRANCH   1  17
HETATM   17  N3  UNL     1      27.731   0.561  53.036  1.00  0.00    -0.294 N 
HETATM   18  C2  UNL     1      27.543  -0.839  52.981  1.00  0.00     0.113 A 
HETATM   19  C1  UNL     1      26.347  -1.213  52.578  1.00  0.00     0.087 C 
HETATM   20  N1  UNL     1      28.606  -1.720  53.348  1.00  0.00    -0.228 NA
HETATM   21  C3  UNL     1      29.748  -1.241  53.734  1.00  0.00     0.236 A 
HETATM   22  N2  UNL     1      29.958   0.163  53.797  1.00  0.00    -0.236 NA
HETATM   23  C4  UNL     1      29.040   0.977  53.479  1.00  0.00     0.217 A 
ENDBRANCH   1  17
TORSDOF 4
ENDMDL
MODEL 5
REMARK VINA RESULT:      -7.8      5.420      6.717
REMARK  4 active torsions:
REMARK  status: ('A' for Active; 'I' for Inactive)
REMARK    1  A    between atoms: N3_7  and  C5_8 
REMARK    2  A    between atoms: C8_11  and  O1_12 
REMARK    3  A    between atoms: O1_12  and  C9_13 
REMARK    4  A    between atoms: C9_13  and  C10_14 
ROOT
HETATM    1  C5  UNL     1      26.694   1.447  52.653  1.00  0.00     0.043 A 
HETATM    2  C6  UNL     1      25.798   1.773  53.644  1.00  0.00     0.033 A 
HETATM    3  C7  UNL     1      24.770   2.610  53.358  1.00  0.00     0.041 A 
HETATM    4  C8  UNL     1      24.542   3.174  52.128  1.00  0.00     0.091 A 
HETATM    5  C16 UNL     1      25.458   2.840  51.116  1.00  0.00     0.069 A 
HETATM    6 CL1  UNL     1      25.480   3.368  49.441  1.00  0.00    -0.081 Cl
HETATM    7  C17 UNL     1      26.532   1.978  51.376  1.00  0.00     0.056 A 
ENDROOT
BRANCH   4   8
HETATM    8  O1  UNL     1      23.629   4.017  51.567  1.00  0.00    -0.345 OA
BRANCH   8   9
HETATM    9  C9  UNL     1      23.133   5.237  51.953  1.00  0.00     0.214 C 
BRANCH   9  10
HETATM   10  C10 UNL     1      23.475   6.400  51.135  1.00  0.00    -0.031 A 
HETATM   11  C11 UNL     1      24.839   6.618  50.907  1.00  0.00     0.009 A 
HETATM   12  C12 UNL     1      25.396   7.652  50.178  1.00  0.00     0.004 A 
HETATM   13  C13 UNL     1      24.515   8.561  49.621  1.00  0.00     0.042 A 
HETATM   14  C14 UNL     1      23.165   8.404  49.807  1.00  0.00     0.117 A 
HETATM   15  F1  UNL     1      22.266   9.262  49.284  1.00  0.00    -0.206 F 
HETATM   16  C15 UNL     1      22.676   7.355  50.543  1.00  0.00     0.051 A 
ENDBRANCH   9  10
ENDBRANCH   8   9
ENDBRANCH   4   8
BRANCH   1  17
HETATM   17  N3  UNL     1      27.744   0.559  53.033  1.00  0.00    -0.294 N 
HETATM   18  C2  UNL     1      27.604  -0.847  52.987  1.00  0.00     0.113 A 
HETATM   19  C1  UNL     1      26.429  -1.265  52.568  1.00  0.00     0.087 C 
HETATM   20  N1  UNL     1      28.690  -1.688  53.379  1.00  0.00    -0.228 NA
HETATM   21  C3  UNL     1      29.809  -1.168  53.779  1.00  0.00     0.236 A 
HETATM   22  N2  UNL     1      29.970   0.243  53.833  1.00  0.00    -0.236 NA
HETATM   23  C4  UNL     1      29.031   1.023  53.493  1.00  0.00     0.217 A 
ENDBRANCH   1  17
TORSDOF 4
ENDMDL
MODEL 6
REMARK VINA RESULT:      -7.8      3.352      4.306
REMARK  4 active torsions:
REMARK  status: ('A' for Active; 'I' for Inactive)
REMARK    1  A    between atoms: N3_7  and  C5_8 
REMARK    2  A    between atoms: C8_11  and  O1_12 
REMARK    3  A    between atoms: O1_12  and  C9_13 
REMARK    4  A    between atoms: C9_13  and  C10_14 
ROOT
HETATM    1  C5  UNL     1      25.571  -0.185  52.998  1.00  0.00     0.043 A 
HETATM    2  C6  UNL     1      25.618   0.908  52.164  1.00  0.00     0.033 A 
HETATM    3  C7  UNL     1      24.507   1.670  52.008  1.00  0.00     0.041 A 
HETATM    4  C8  UNL     1      23.307   1.436  52.629  1.00  0.00     0.091 A 
HETATM    5  C16 UNL     1      23.259   0.319  53.480  1.00  0.00     0.069 A 
HETATM    6 CL1  UNL     1      21.906  -0.278  54.428  1.00  0.00    -0.081 Cl
HETATM    7  C17 UNL     1      24.388  -0.491  53.665  1.00  0.00     0.056 A 
ENDROOT
BRANCH   4   8
HETATM    8  O1  UNL     1      22.069   2.007  52.663  1.00  0.00    -0.345 OA
BRANCH   8   9
HETATM    9  C9  UNL     1      21.115   2.211  51.697  1.00  0.00     0.214 C 
BRANCH   9  10
HETATM   10  C10 UNL     1      21.570   2.431  50.326  1.00  0.00    -0.031 A 
HETATM   11  C11 UNL     1      21.468   1.338  49.456  1.00  0.00     0.009 A 
HETATM   12  C12 UNL     1      21.844   1.308  48.126  1.00  0.00     0.004 A 
HETATM   13  C13 UNL     1      22.372   2.475  47.606  1.00  0.00     0.042 A 
HETATM   14  C14 UNL     1      22.498   3.583  48.406  1.00  0.00     0.117 A 
HETATM   15  F1  UNL     1      23.006   4.744  47.945  1.00  0.00    -0.206 F 
HETATM   16  C15 UNL     1      22.107   3.547  49.719  1.00  0.00     0.051 A 
ENDBRANCH   9  10
ENDBRANCH   8   9
ENDBRANCH   4   8
BRANCH   1  17
HETATM   17  N3  UNL     1      26.780  -0.933  53.110  1.00  0.00    -0.294 N 
HETATM   18  C2  UNL     1      27.918  -0.439  53.789  1.00  0.00     0.113 A 
HETATM   19  C1  UNL     1      27.767   0.762  54.303  1.00  0.00     0.087 C 
HETATM   20  N1  UNL     1      29.103  -1.233  53.872  1.00  0.00    -0.228 NA
HETATM   21  C3  UNL     1      29.143  -2.408  53.325  1.00  0.00     0.236 A 
HETATM   22  N2  UNL     1      28.011  -2.923  52.637  1.00  0.00    -0.236 NA
HETATM   23  C4  UNL     1      26.941  -2.251  52.543  1.00  0.00     0.217 A 
ENDBRANCH   1  17
TORSDOF 4
ENDMDL
MODEL 7
REMARK VINA RESULT:      -7.7      1.939      2.728
REMARK  4 active torsions:
REMARK  status: ('A' for Active; 'I' for Inactive)
REMARK    1  A    between atoms: N3_7  and  C5_8 
REMARK    2  A    between atoms: C8_11  and  O1_12 
REMARK    3  A    between atoms: O1_12  and  C9_13 
REMARK    4  A    between atoms: C9_13  and  C10_14 
ROOT
HETATM    1  C5  UNL     1      25.785  -0.120  52.732  1.00  0.00     0.043 A 
HETATM    2  C6  UNL     1      24.709  -0.549  53.474  1.00  0.00     0.033 A 
HETATM    3  C7  UNL     1      23.506   0.054  53.305  1.00  0.00     0.041 A 
HETATM    4  C8  UNL     1      23.266   1.084  52.431  1.00  0.00     0.091 A 
HETATM    5  C16 UNL     1      24.365   1.522  51.674  1.00  0.00     0.069 A 
HETATM    6 CL1  UNL     1      24.427   2.801  50.472  1.00  0.00    -0.081 Cl
HETATM    7  C17 UNL     1      25.622   0.922  51.822  1.00  0.00     0.056 A 
ENDROOT
BRANCH   4   8
HETATM    8  O1  UNL     1      22.203   1.855  52.061  1.00  0.00    -0.345 OA
BRANCH   8   9
HETATM    9  C9  UNL     1      20.970   2.068  52.625  1.00  0.00     0.214 C 
BRANCH   9  10
HETATM   10  C10 UNL     1      19.919   1.088  52.354  1.00  0.00    -0.031 A 
HETATM   11  C11 UNL     1      19.715   0.111  53.336  1.00  0.00     0.009 A 
HETATM   12  C12 UNL     1      18.792  -0.917  53.293  1.00  0.00     0.004 A 
HETATM   13  C13 UNL     1      17.991  -0.983  52.168  1.00  0.00     0.042 A 
HETATM   14  C14 UNL     1      18.140  -0.054  51.169  1.00  0.00     0.117 A 
HETATM   15  F1  UNL     1      17.384  -0.076  50.053  1.00  0.00    -0.206 F 
HETATM   16  C15 UNL     1      19.077   0.941  51.272  1.00  0.00     0.051 A 
ENDBRANCH   9  10
ENDBRANCH   8   9
ENDBRANCH   4   8
BRANCH   1  17
HETATM   17  N3  UNL     1      27.014  -0.806  52.965  1.00  0.00    -0.294 N 
HETATM   18  C2  UNL     1      28.137  -0.175  53.549  1.00  0.00     0.113 A 
HETATM   19  C1  UNL     1      27.953   1.092  53.854  1.00  0.00     0.087 C 
HETATM   20  N1  UNL     1      29.342  -0.912  53.761  1.00  0.00    -0.228 NA
HETATM   21  C3  UNL     1      29.414  -2.160  53.419  1.00  0.00     0.236 A 
HETATM   22  N2  UNL     1      28.298  -2.814  52.831  1.00  0.00    -0.236 NA
HETATM   23  C4  UNL     1      27.210  -2.196  52.627  1.00  0.00     0.217 A 
ENDBRANCH   1  17
TORSDOF 4
ENDMDL
MODEL 8
REMARK VINA RESULT:      -7.6      2.929      3.892
REMARK  4 active torsions:
REMARK  status: ('A' for Active; 'I' for Inactive)
REMARK    1  A    between atoms: N3_7  and  C5_8 
REMARK    2  A    between atoms: C8_11  and  O1_12 
REMARK    3  A    between atoms: O1_12  and  C9_13 
REMARK    4  A    between atoms: C9_13  and  C10_14 
ROOT
HETATM    1  C5  UNL     1      24.965   0.867  53.287  1.00  0.00     0.043 A 
HETATM    2  C6  UNL     1      24.397  -0.384  53.360  1.00  0.00     0.033 A 
HETATM    3  C7  UNL     1      23.072  -0.525  53.107  1.00  0.00     0.041 A 
HETATM    4  C8  UNL     1      22.227   0.504  52.776  1.00  0.00     0.091 A 
HETATM    5  C16 UNL     1      22.807   1.781  52.703  1.00  0.00     0.069 A 
HETATM    6 CL1  UNL     1      22.040   3.312  52.313  1.00  0.00    -0.081 Cl
HETATM    7  C17 UNL     1      24.173   1.964  52.957  1.00  0.00     0.056 A 
ENDROOT
BRANCH   4   8
HETATM    8  O1  UNL     1      20.905   0.657  52.480  1.00  0.00    -0.345 OA
BRANCH   8   9
HETATM    9  C9  UNL     1      20.149   0.293  51.393  1.00  0.00     0.214 C 
BRANCH   9  10
HETATM   10  C10 UNL     1      20.268   1.101  50.180  1.00  0.00    -0.031 A 
HETATM   11  C11 UNL     1      21.420   0.897  49.410  1.00  0.00     0.009 A 
HETATM   12  C12 UNL     1      21.750   1.550  48.237  1.00  0.00     0.004 A 
HETATM   13  C13 UNL     1      20.852   2.498  47.782  1.00  0.00     0.042 A 
HETATM   14  C14 UNL     1      19.704   2.744  48.490  1.00  0.00     0.117 A 
HETATM   15  F1  UNL     1      18.797   3.658  48.087  1.00  0.00    -0.206 F 
HETATM   16  C15 UNL     1      19.434   2.063  49.649  1.00  0.00     0.051 A 
ENDBRANCH   9  10
ENDBRANCH   8   9
ENDBRANCH   4   8
BRANCH   1  17
HETATM   17  N3  UNL     1      26.363   0.931  53.564  1.00  0.00    -0.294 N 
HETATM   18  C2  UNL     1      27.298   1.440  52.633  1.00  0.00     0.113 A 
HETATM   19  C1  UNL     1      26.772   1.844  51.497  1.00  0.00     0.087 C 
HETATM   20  N1  UNL     1      28.688   1.481  52.963  1.00  0.00    -0.228 NA
HETATM   21  C3  UNL     1      29.098   1.053  54.116  1.00  0.00     0.236 A 
HETATM   22  N2  UNL     1      28.175   0.537  55.066  1.00  0.00    -0.236 NA
HETATM   23  C4  UNL     1      26.935   0.484  54.811  1.00  0.00     0.217 A 
ENDBRANCH   1  17
TORSDOF 4
ENDMDL
MODEL 9
REMARK VINA RESULT:      -7.5      4.738      8.565
REMARK  4 active torsions:
REMARK  status: ('A' for Active; 'I' for Inactive)
REMARK    1  A    between atoms: N3_7  and  C5_8 
REMARK    2  A    between atoms: C8_11  and  O1_12 
REMARK    3  A    between atoms: O1_12  and  C9_13 
REMARK    4  A    between atoms: C9_13  and  C10_14 
ROOT
HETATM    1  C5  UNL     1      21.965   1.664  51.038  1.00  0.00     0.043 A 
HETATM    2  C6  UNL     1      23.219   2.229  51.017  1.00  0.00     0.033 A 
HETATM    3  C7  UNL     1      24.193   1.708  51.805  1.00  0.00     0.041 A 
HETATM    4  C8  UNL     1      24.027   0.635  52.643  1.00  0.00     0.091 A 
HETATM    5  C16 UNL     1      22.746   0.058  52.664  1.00  0.00     0.069 A 
HETATM    6 CL1  UNL     1      22.177  -1.311  53.605  1.00  0.00    -0.081 Cl
HETATM    7  C17 UNL     1      21.716   0.570  51.863  1.00  0.00     0.056 A 
ENDROOT
BRANCH   4   8
HETATM    8  O1  UNL     1      24.793  -0.080  53.517  1.00  0.00    -0.345 OA
BRANCH   8   9
HETATM    9  C9  UNL     1      25.852  -0.934  53.339  1.00  0.00     0.214 C 
BRANCH   9  10
HETATM   10  C10 UNL     1      27.200  -0.382  53.463  1.00  0.00    -0.031 A 
HETATM   11  C11 UNL     1      28.258  -1.279  53.263  1.00  0.00     0.009 A 
HETATM   12  C12 UNL     1      29.607  -0.989  53.340  1.00  0.00     0.004 A 
HETATM   13  C13 UNL     1      29.943   0.318  53.644  1.00  0.00     0.042 A 
HETATM   14  C14 UNL     1      28.954   1.245  53.850  1.00  0.00     0.117 A 
HETATM   15  F1  UNL     1      29.230   2.531  54.148  1.00  0.00    -0.206 F 
HETATM   16  C15 UNL     1      27.632   0.893  53.761  1.00  0.00     0.051 A 
ENDBRANCH   9  10
ENDBRANCH   8   9
ENDBRANCH   4   8
BRANCH   1  17
HETATM   17  N3  UNL     1      20.998   2.267  50.180  1.00  0.00    -0.294 N 
HETATM   18  C2  UNL     1      20.084   3.245  50.636  1.00  0.00     0.113 A 
HETATM   19  C1  UNL     1      20.199   3.547  51.911  1.00  0.00     0.087 C 
HETATM   20  N1  UNL     1      19.137   3.817  49.732  1.00  0.00    -0.228 NA
HETATM   21  C3  UNL     1      19.109   3.442  48.490  1.00  0.00     0.236 A 
HETATM   22  N2  UNL     1      20.019   2.461  48.012  1.00  0.00    -0.236 NA
HETATM   23  C4  UNL     1      20.875   1.931  48.782  1.00  0.00     0.217 A 
ENDBRANCH   1  17
TORSDOF 4
ENDMDL
