MODEL 1
REMARK VINA RESULT:      -9.4      0.000      0.000
REMARK  8 active torsions:
REMARK  status: ('A' for Active; 'I' for Inactive)
REMARK    1  A    between atoms: C3_3  and  C4_4 
REMARK    2  A    between atoms: C8_10  and  C9_11 
REMARK    3  A    between atoms: C9_11  and  C10_12 
REMARK    4  A    between atoms: C14_16  and  O2_17 
REMARK    5  A    between atoms: C21_26  and  C22_27 
REMARK    6  A    between atoms: C22_27  and  C23_28 
REMARK    7  A    between atoms: C23_28  and  C24_29 
REMARK    8  A    between atoms: C24_29  and  O5_31 
ROOT
HETATM    1  C4  UNL     1      25.038   4.174  49.489  1.00  0.00     0.017 C 
HETATM    2  C5  UNL     1      23.965   3.823  50.160  1.00  0.00     0.041 C 
HETATM    3  C6  UNL     1      24.106   2.788  51.176  1.00  0.00     0.264 C 
HETATM    4  O1  UNL     1      25.239   2.851  51.709  1.00  0.00    -0.267 OA
HETATM    5  N1  UNL     1      23.245   1.744  51.680  1.00  0.00    -0.267 N 
HETATM    6  C7  UNL     1      24.051   1.052  52.625  1.00  0.00     0.106 A 
HETATM    7  C8  UNL     1      23.405   0.047  53.194  1.00  0.00    -0.056 A 
HETATM    8  C17 UNL     1      22.042  -0.448  53.013  1.00  0.00     0.067 A 
HETATM    9  C18 UNL     1      21.359   0.391  51.998  1.00  0.00     0.036 A 
HETATM   10  C19 UNL     1      21.876   1.413  51.357  1.00  0.00     0.178 A 
HETATM   11  O3  UNL     1      20.945   1.957  50.482  1.00  0.00    -0.194 OA
HETATM   12  N2  UNL     1      21.040   3.080  49.656  1.00  0.00    -0.124 NA
HETATM   13  C20 UNL     1      21.474   4.248  49.742  1.00  0.00     0.123 C 
HETATM   14  C21 UNL     1      22.760   4.575  49.739  1.00  0.00    -0.009 C 
ENDROOT
BRANCH   7  15
HETATM   15  C9  UNL     1      24.173  -0.731  54.198  1.00  0.00     0.074 C 
BRANCH  15  16
HETATM   16  C10 UNL     1      25.643  -0.598  53.924  1.00  0.00    -0.051 A 
HETATM   17  C11 UNL     1      26.164  -1.328  52.847  1.00  0.00     0.007 A 
HETATM   18  C12 UNL     1      27.516  -1.206  52.593  1.00  0.00     0.003 A 
HETATM   19  C13 UNL     1      28.375  -0.414  53.333  1.00  0.00     0.037 A 
HETATM   20  C14 UNL     1      27.812   0.288  54.387  1.00  0.00     0.068 A 
HETATM   21  C16 UNL     1      26.469   0.208  54.690  1.00  0.00     0.044 A 
BRANCH  20  22
HETATM   22  O2  UNL     1      28.695   1.074  55.113  1.00  0.00    -0.356 OA
HETATM   23  C15 UNL     1      29.476   2.059  54.488  1.00  0.00     0.210 C 
ENDBRANCH  20  22
ENDBRANCH  15  16
ENDBRANCH   7  15
BRANCH   1  24
HETATM   24  C3  UNL     1      26.433   3.795  49.469  1.00  0.00    -0.003 C 
HETATM   25  C2  UNL     1      27.464   4.534  49.027  1.00  0.00    -0.031 C 
HETATM   26  C1  UNL     1      27.096   5.873  48.513  1.00  0.00     0.036 C 
ENDBRANCH   1  24
BRANCH  14  27
HETATM   27  C22 UNL     1      23.034   5.923  49.224  1.00  0.00     0.052 C 
BRANCH  27  28
HETATM   28  C23 UNL     1      22.722   7.035  50.202  1.00  0.00     0.115 C 
BRANCH  28  29
HETATM   29  C24 UNL     1      24.001   7.517  50.787  1.00  0.00     0.139 C 
HETATM   30  O4  UNL     1      24.808   8.409  50.364  1.00  0.00    -0.650 OA
BRANCH  29  31
HETATM   31  O5  UNL     1      24.384   6.910  51.973  1.00  0.00    -0.776 OA
HETATM   32  H24 UNL     1      24.252   5.918  52.124  1.00  0.00     0.167 HD
ENDBRANCH  29  31
ENDBRANCH  28  29
ENDBRANCH  27  28
ENDBRANCH  14  27
TORSDOF 8
ENDMDL
MODEL 2
REMARK VINA RESULT:      -9.0      2.389      6.562
REMARK  8 active torsions:
REMARK  status: ('A' for Active; 'I' for Inactive)
REMARK    1  A    between atoms: C3_3  and  C4_4 
REMARK    2  A    between atoms: C8_10  and  C9_11 
REMARK    3  A    between atoms: C9_11  and  C10_12 
REMARK    4  A    between atoms: C14_16  and  O2_17 
REMARK    5  A    between atoms: C21_26  and  C22_27 
REMARK    6  A    between atoms: C22_27  and  C23_28 
REMARK    7  A    between atoms: C23_28  and  C24_29 
REMARK    8  A    between atoms: C24_29  and  O5_31 
ROOT
HETATM    1  C4  UNL     1      25.547   2.264  52.073  1.00  0.00     0.017 C 
HETATM    2  C5  UNL     1      25.128   1.091  52.492  1.00  0.00     0.041 C 
HETATM    3  C6  UNL     1      23.710   0.785  52.356  1.00  0.00     0.264 C 
HETATM    4  O1  UNL     1      23.240   1.339  51.333  1.00  0.00    -0.267 OA
HETATM    5  N1  UNL     1      22.767   0.006  53.124  1.00  0.00    -0.267 N 
HETATM    6  C7  UNL     1      21.527   0.198  52.453  1.00  0.00     0.106 A 
HETATM    7  C8  UNL     1      20.537  -0.459  53.033  1.00  0.00    -0.056 A 
HETATM    8  C17 UNL     1      20.514  -1.322  54.213  1.00  0.00     0.067 A 
HETATM    9  C18 UNL     1      21.885  -1.403  54.773  1.00  0.00     0.036 A 
HETATM   10  C19 UNL     1      22.954  -0.807  54.303  1.00  0.00     0.178 A 
HETATM   11  O3  UNL     1      24.061  -1.111  55.084  1.00  0.00    -0.194 OA
HETATM   12  N2  UNL     1      25.402  -0.751  54.920  1.00  0.00    -0.124 NA
HETATM   13  C20 UNL     1      26.224  -0.681  53.982  1.00  0.00     0.123 C 
HETATM   14  C21 UNL     1      26.224   0.263  53.049  1.00  0.00    -0.009 C 
ENDROOT
BRANCH   7  15
HETATM   15  C9  UNL     1      19.203  -0.316  52.397  1.00  0.00     0.074 C 
BRANCH  15  16
HETATM   16  C10 UNL     1      19.188   0.906  51.525  1.00  0.00    -0.051 A 
HETATM   17  C11 UNL     1      18.683   0.762  50.227  1.00  0.00     0.007 A 
HETATM   18  C12 UNL     1      18.668   1.886  49.423  1.00  0.00     0.003 A 
HETATM   19  C13 UNL     1      19.118   3.130  49.824  1.00  0.00     0.037 A 
HETATM   20  C14 UNL     1      19.608   3.223  51.117  1.00  0.00     0.068 A 
HETATM   21  C16 UNL     1      19.648   2.136  51.967  1.00  0.00     0.044 A 
BRANCH  20  22
HETATM   22  O2  UNL     1      20.053   4.481  51.493  1.00  0.00    -0.356 OA
HETATM   23  C15 UNL     1      21.380   4.881  51.271  1.00  0.00     0.210 C 
ENDBRANCH  20  22
ENDBRANCH  15  16
ENDBRANCH   7  15
BRANCH   1  24
HETATM   24  C3  UNL     1      24.952   3.434  51.468  1.00  0.00    -0.003 C 
HETATM   25  C2  UNL     1      25.320   4.024  50.319  1.00  0.00    -0.031 C 
HETATM   26  C1  UNL     1      26.460   3.380  49.626  1.00  0.00     0.036 C 
ENDBRANCH   1  24
BRANCH  14  27
HETATM   27  C22 UNL     1      27.546   0.534  52.471  1.00  0.00     0.052 C 
BRANCH  27  28
HETATM   28  C23 UNL     1      28.686   0.446  53.463  1.00  0.00     0.115 C 
BRANCH  28  29
HETATM   29  C24 UNL     1      29.048   1.825  53.884  1.00  0.00     0.139 C 
HETATM   30  O4  UNL     1      29.411   2.261  55.026  1.00  0.00    -0.650 OA
BRANCH  29  31
HETATM   31  O5  UNL     1      28.983   2.791  52.892  1.00  0.00    -0.776 OA
HETATM   32  H24 UNL     1      29.366   3.717  53.033  1.00  0.00     0.167 HD
ENDBRANCH  29  31
ENDBRANCH  28  29
ENDBRANCH  27  28
ENDBRANCH  14  27
TORSDOF 8
ENDMDL
MODEL 3
REMARK VINA RESULT:      -8.9      3.795      8.395
REMARK  8 active torsions:
REMARK  status: ('A' for Active; 'I' for Inactive)
REMARK    1  A    between atoms: C3_3  and  C4_4 
REMARK    2  A    between atoms: C8_10  and  C9_11 
REMARK    3  A    between atoms: C9_11  and  C10_12 
REMARK    4  A    between atoms: C14_16  and  O2_17 
REMARK    5  A    between atoms: C21_26  and  C22_27 
REMARK    6  A    between atoms: C22_27  and  C23_28 
REMARK    7  A    between atoms: C23_28  and  C24_29 
REMARK    8  A    between atoms: C24_29  and  O5_31 
ROOT
HETATM    1  C4  UNL     1      24.518   1.579  52.808  1.00  0.00     0.017 C 
HETATM    2  C5  UNL     1      23.761   0.525  53.012  1.00  0.00     0.041 C 
HETATM    3  C6  UNL     1      22.449   0.494  52.378  1.00  0.00     0.264 C 
HETATM    4  O1  UNL     1      22.484   1.092  51.275  1.00  0.00    -0.267 OA
HETATM    5  N1  UNL     1      21.167  -0.060  52.740  1.00  0.00    -0.267 N 
HETATM    6  C7  UNL     1      20.301   0.344  51.685  1.00  0.00     0.106 A 
HETATM    7  C8  UNL     1      19.064  -0.089  51.859  1.00  0.00    -0.056 A 
HETATM    8  C17 UNL     1      18.463  -0.889  52.925  1.00  0.00     0.067 A 
HETATM    9  C18 UNL     1      19.509  -1.213  53.926  1.00  0.00     0.036 A 
HETATM   10  C19 UNL     1      20.769  -0.852  53.881  1.00  0.00     0.178 A 
HETATM   11  O3  UNL     1      21.452  -1.337  54.989  1.00  0.00    -0.194 OA
HETATM   12  N2  UNL     1      22.808  -1.248  55.316  1.00  0.00    -0.124 NA
HETATM   13  C20 UNL     1      23.904  -1.371  54.728  1.00  0.00     0.123 C 
HETATM   14  C21 UNL     1      24.411  -0.478  53.887  1.00  0.00    -0.009 C 
ENDROOT
BRANCH   7  15
HETATM   15  C9  UNL     1      18.091   0.287  50.802  1.00  0.00     0.074 C 
BRANCH  15  16
HETATM   16  C10 UNL     1      17.249   1.435  51.276  1.00  0.00    -0.051 A 
HETATM   17  C11 UNL     1      17.807   2.718  51.190  1.00  0.00     0.007 A 
HETATM   18  C12 UNL     1      17.033   3.777  51.625  1.00  0.00     0.003 A 
HETATM   19  C13 UNL     1      15.754   3.643  52.134  1.00  0.00     0.037 A 
HETATM   20  C14 UNL     1      15.247   2.356  52.198  1.00  0.00     0.068 A 
HETATM   21  C16 UNL     1      15.971   1.258  51.779  1.00  0.00     0.044 A 
BRANCH  20  22
HETATM   22  O2  UNL     1      13.963   2.250  52.713  1.00  0.00    -0.356 OA
HETATM   23  C15 UNL     1      13.321   3.351  53.300  1.00  0.00     0.210 C 
ENDBRANCH  20  22
ENDBRANCH  15  16
ENDBRANCH   7  15
BRANCH   1  24
HETATM   24  C3  UNL     1      24.410   2.820  52.073  1.00  0.00    -0.003 C 
HETATM   25  C2  UNL     1      25.278   3.301  51.168  1.00  0.00    -0.031 C 
HETATM   26  C1  UNL     1      26.459   2.441  50.921  1.00  0.00     0.036 C 
ENDBRANCH   1  24
BRANCH  14  27
HETATM   27  C22 UNL     1      25.878  -0.489  53.817  1.00  0.00     0.052 C 
BRANCH  27  28
HETATM   28  C23 UNL     1      26.441  -1.384  52.734  1.00  0.00     0.115 C 
BRANCH  28  29
HETATM   29  C24 UNL     1      27.780  -1.860  53.169  1.00  0.00     0.139 C 
HETATM   30  O4  UNL     1      28.686  -1.256  53.832  1.00  0.00    -0.650 OA
BRANCH  29  31
HETATM   31  O5  UNL     1      28.104  -3.157  52.800  1.00  0.00    -0.776 OA
HETATM   32  H24 UNL     1      28.875  -3.350  52.174  1.00  0.00     0.167 HD
ENDBRANCH  29  31
ENDBRANCH  28  29
ENDBRANCH  27  28
ENDBRANCH  14  27
TORSDOF 8
ENDMDL
MODEL 4
REMARK VINA RESULT:      -8.9      3.080      7.329
REMARK  8 active torsions:
REMARK  status: ('A' for Active; 'I' for Inactive)
REMARK    1  A    between atoms: C3_3  and  C4_4 
REMARK    2  A    between atoms: C8_10  and  C9_11 
REMARK    3  A    between atoms: C9_11  and  C10_12 
REMARK    4  A    between atoms: C14_16  and  O2_17 
REMARK    5  A    between atoms: C21_26  and  C22_27 
REMARK    6  A    between atoms: C22_27  and  C23_28 
REMARK    7  A    between atoms: C23_28  and  C24_29 
REMARK    8  A    between atoms: C24_29  and  O5_31 
ROOT
HETATM    1  C4  UNL     1      24.681   2.493  51.369  1.00  0.00     0.017 C 
HETATM    2  C5  UNL     1      24.082   1.396  51.772  1.00  0.00     0.041 C 
HETATM    3  C6  UNL     1      22.708   1.172  51.342  1.00  0.00     0.264 C 
HETATM    4  O1  UNL     1      22.525   1.655  50.199  1.00  0.00    -0.267 OA
HETATM    5  N1  UNL     1      21.557   0.534  51.934  1.00  0.00    -0.267 N 
HETATM    6  C7  UNL     1      20.516   0.742  50.987  1.00  0.00     0.106 A 
HETATM    7  C8  UNL     1      19.370   0.209  51.376  1.00  0.00    -0.056 A 
HETATM    8  C17 UNL     1      19.013  -0.534  52.584  1.00  0.00     0.067 A 
HETATM    9  C18 UNL     1      20.215  -0.651  53.445  1.00  0.00     0.036 A 
HETATM   10  C19 UNL     1      21.409  -0.174  53.185  1.00  0.00     0.178 A 
HETATM   11  O3  UNL     1      22.286  -0.474  54.219  1.00  0.00    -0.194 OA
HETATM   12  N2  UNL     1      23.656  -0.220  54.335  1.00  0.00    -0.124 NA
HETATM   13  C20 UNL     1      24.668  -0.293  53.606  1.00  0.00     0.123 C 
HETATM   14  C21 UNL     1      24.953   0.555  52.626  1.00  0.00    -0.009 C 
ENDROOT
BRANCH   7  15
HETATM   15  C9  UNL     1      18.226   0.378  50.444  1.00  0.00     0.074 C 
BRANCH  15  16
HETATM   16  C10 UNL     1      17.766   1.806  50.464  1.00  0.00    -0.051 A 
HETATM   17  C11 UNL     1      17.852   2.525  49.265  1.00  0.00     0.007 A 
HETATM   18  C12 UNL     1      17.428   3.840  49.281  1.00  0.00     0.003 A 
HETATM   19  C13 UNL     1      16.928   4.479  50.402  1.00  0.00     0.037 A 
HETATM   20  C14 UNL     1      16.863   3.726  51.563  1.00  0.00     0.068 A 
HETATM   21  C16 UNL     1      17.271   2.409  51.610  1.00  0.00     0.044 A 
BRANCH  20  22
HETATM   22  O2  UNL     1      16.359   4.390  52.671  1.00  0.00    -0.356 OA
HETATM   23  C15 UNL     1      15.073   4.116  53.163  1.00  0.00     0.210 C 
ENDBRANCH  20  22
ENDBRANCH  15  16
ENDBRANCH   7  15
BRANCH   1  24
HETATM   24  C3  UNL     1      24.337   3.637  50.554  1.00  0.00    -0.003 C 
HETATM   25  C2  UNL     1      25.097   4.213  49.608  1.00  0.00    -0.031 C 
HETATM   26  C1  UNL     1      26.422   3.583  49.406  1.00  0.00     0.036 C 
ENDBRANCH   1  24
BRANCH  14  27
HETATM   27  C22 UNL     1      26.388   0.682  52.344  1.00  0.00     0.052 C 
BRANCH  27  28
HETATM   28  C23 UNL     1      27.256   0.786  53.580  1.00  0.00     0.115 C 
BRANCH  28  29
HETATM   29  C24 UNL     1      28.074   2.024  53.476  1.00  0.00     0.139 C 
HETATM   30  O4  UNL     1      28.873   2.548  54.319  1.00  0.00    -0.650 OA
BRANCH  29  31
HETATM   31  O5  UNL     1      27.955   2.722  52.284  1.00  0.00    -0.776 OA
HETATM   32  H24 UNL     1      28.557   2.524  51.495  1.00  0.00     0.167 HD
ENDBRANCH  29  31
ENDBRANCH  28  29
ENDBRANCH  27  28
ENDBRANCH  14  27
TORSDOF 8
ENDMDL
MODEL 5
REMARK VINA RESULT:      -8.7      2.763      7.566
REMARK  8 active torsions:
REMARK  status: ('A' for Active; 'I' for Inactive)
REMARK    1  A    between atoms: C3_3  and  C4_4 
REMARK    2  A    between atoms: C8_10  and  C9_11 
REMARK    3  A    between atoms: C9_11  and  C10_12 
REMARK    4  A    between atoms: C14_16  and  O2_17 
REMARK    5  A    between atoms: C21_26  and  C22_27 
REMARK    6  A    between atoms: C22_27  and  C23_28 
REMARK    7  A    between atoms: C23_28  and  C24_29 
REMARK    8  A    between atoms: C24_29  and  O5_31 
ROOT
HETATM    1  C4  UNL     1      26.216   1.445  53.543  1.00  0.00     0.017 C 
HETATM    2  C5  UNL     1      25.379   1.772  52.585  1.00  0.00     0.041 C 
HETATM    3  C6  UNL     1      25.863   2.653  51.529  1.00  0.00     0.264 C 
HETATM    4  O1  UNL     1      27.081   2.449  51.314  1.00  0.00    -0.267 OA
HETATM    5  N1  UNL     1      25.254   3.674  50.709  1.00  0.00    -0.267 N 
HETATM    6  C7  UNL     1      26.329   4.184  49.930  1.00  0.00     0.106 A 
HETATM    7  C8  UNL     1      25.941   5.143  49.107  1.00  0.00    -0.056 A 
HETATM    8  C17 UNL     1      24.628   5.743  48.877  1.00  0.00     0.067 A 
HETATM    9  C18 UNL     1      23.641   5.090  49.772  1.00  0.00     0.036 A 
HETATM   10  C19 UNL     1      23.886   4.131  50.632  1.00  0.00     0.178 A 
HETATM   11  O3  UNL     1      22.721   3.767  51.296  1.00  0.00    -0.194 OA
HETATM   12  N2  UNL     1      22.504   2.758  52.239  1.00  0.00    -0.124 NA
HETATM   13  C20 UNL     1      22.834   1.564  52.397  1.00  0.00     0.123 C 
HETATM   14  C21 UNL     1      24.043   1.159  52.765  1.00  0.00    -0.009 C 
ENDROOT
BRANCH   7  15
HETATM   15  C9  UNL     1      27.002   5.733  48.252  1.00  0.00     0.074 C 
BRANCH  15  16
HETATM   16  C10 UNL     1      27.423   7.060  48.813  1.00  0.00    -0.051 A 
HETATM   17  C11 UNL     1      26.522   7.712  49.665  1.00  0.00     0.007 A 
HETATM   18  C12 UNL     1      26.908   8.933  50.183  1.00  0.00     0.003 A 
HETATM   19  C13 UNL     1      28.121   9.540  49.911  1.00  0.00     0.037 A 
HETATM   20  C14 UNL     1      28.978   8.857  49.064  1.00  0.00     0.068 A 
HETATM   21  C16 UNL     1      28.649   7.634  48.516  1.00  0.00     0.044 A 
BRANCH  20  22
HETATM   22  O2  UNL     1      30.186   9.488  48.808  1.00  0.00    -0.356 OA
HETATM   23  C15 UNL     1      30.239  10.849  48.470  1.00  0.00     0.210 C 
ENDBRANCH  20  22
ENDBRANCH  15  16
ENDBRANCH   7  15
BRANCH   1  24
HETATM   24  C3  UNL     1      27.593   1.734  53.876  1.00  0.00    -0.003 C 
HETATM   25  C2  UNL     1      28.621   0.869  53.883  1.00  0.00    -0.031 C 
HETATM   26  C1  UNL     1      28.270  -0.519  53.505  1.00  0.00     0.036 C 
ENDBRANCH   1  24
BRANCH  14  27
HETATM   27  C22 UNL     1      24.053  -0.124  53.479  1.00  0.00     0.052 C 
BRANCH  27  28
HETATM   28  C23 UNL     1      22.763  -0.907  53.365  1.00  0.00     0.115 C 
BRANCH  28  29
HETATM   29  C24 UNL     1      22.331  -1.302  54.731  1.00  0.00     0.139 C 
HETATM   30  O4  UNL     1      23.030  -1.611  55.751  1.00  0.00    -0.650 OA
BRANCH  29  31
HETATM   31  O5  UNL     1      20.960  -1.343  54.938  1.00  0.00    -0.776 OA
HETATM   32  H24 UNL     1      20.533  -2.073  55.493  1.00  0.00     0.167 HD
ENDBRANCH  29  31
ENDBRANCH  28  29
ENDBRANCH  27  28
ENDBRANCH  14  27
TORSDOF 8
ENDMDL
MODEL 6
REMARK VINA RESULT:      -8.5      3.063      7.841
REMARK  8 active torsions:
REMARK  status: ('A' for Active; 'I' for Inactive)
REMARK    1  A    between atoms: C3_3  and  C4_4 
REMARK    2  A    between atoms: C8_10  and  C9_11 
REMARK    3  A    between atoms: C9_11  and  C10_12 
REMARK    4  A    between atoms: C14_16  and  O2_17 
REMARK    5  A    between atoms: C21_26  and  C22_27 
REMARK    6  A    between atoms: C22_27  and  C23_28 
REMARK    7  A    between atoms: C23_28  and  C24_29 
REMARK    8  A    between atoms: C24_29  and  O5_31 
ROOT
HETATM    1  C4  UNL     1      24.453   1.560  52.885  1.00  0.00     0.017 C 
HETATM    2  C5  UNL     1      23.695   0.502  53.063  1.00  0.00     0.041 C 
HETATM    3  C6  UNL     1      22.406   0.464  52.382  1.00  0.00     0.264 C 
HETATM    4  O1  UNL     1      22.476   1.061  51.281  1.00  0.00    -0.267 OA
HETATM    5  N1  UNL     1      21.114  -0.097  52.699  1.00  0.00    -0.267 N 
HETATM    6  C7  UNL     1      20.285   0.302  51.614  1.00  0.00     0.106 A 
HETATM    7  C8  UNL     1      19.044  -0.137  51.744  1.00  0.00    -0.056 A 
HETATM    8  C17 UNL     1      18.410  -0.939  52.789  1.00  0.00     0.067 A 
HETATM    9  C18 UNL     1      19.421  -1.257  53.827  1.00  0.00     0.036 A 
HETATM   10  C19 UNL     1      20.680  -0.890  53.826  1.00  0.00     0.178 A 
HETATM   11  O3  UNL     1      21.326  -1.370  54.958  1.00  0.00    -0.194 OA
HETATM   12  N2  UNL     1      22.669  -1.274  55.333  1.00  0.00    -0.124 NA
HETATM   13  C20 UNL     1      23.785  -1.392  54.784  1.00  0.00     0.123 C 
HETATM   14  C21 UNL     1      24.318  -0.497  53.962  1.00  0.00    -0.009 C 
ENDROOT
BRANCH   7  15
HETATM   15  C9  UNL     1      18.108   0.233  50.653  1.00  0.00     0.074 C 
BRANCH  15  16
HETATM   16  C10 UNL     1      18.009   1.728  50.557  1.00  0.00    -0.051 A 
HETATM   17  C11 UNL     1      17.251   2.385  51.534  1.00  0.00     0.007 A 
HETATM   18  C12 UNL     1      17.159   3.761  51.447  1.00  0.00     0.003 A 
HETATM   19  C13 UNL     1      17.768   4.517  50.462  1.00  0.00     0.037 A 
HETATM   20  C14 UNL     1      18.508   3.821  49.520  1.00  0.00     0.068 A 
HETATM   21  C16 UNL     1      18.637   2.448  49.553  1.00  0.00     0.044 A 
BRANCH  20  22
HETATM   22  O2  UNL     1      19.107   4.602  48.543  1.00  0.00    -0.356 OA
HETATM   23  C15 UNL     1      18.696   5.925  48.314  1.00  0.00     0.210 C 
ENDBRANCH  20  22
ENDBRANCH  15  16
ENDBRANCH   7  15
BRANCH   1  24
HETATM   24  C3  UNL     1      24.365   2.800  52.146  1.00  0.00    -0.003 C 
HETATM   25  C2  UNL     1      25.233   3.256  51.229  1.00  0.00    -0.031 C 
HETATM   26  C1  UNL     1      26.391   2.369  50.972  1.00  0.00     0.036 C 
ENDBRANCH   1  24
BRANCH  14  27
HETATM   27  C22 UNL     1      25.786  -0.500  53.944  1.00  0.00     0.052 C 
BRANCH  27  28
HETATM   28  C23 UNL     1      26.390  -1.128  52.706  1.00  0.00     0.115 C 
BRANCH  28  29
HETATM   29  C24 UNL     1      27.653  -1.810  53.095  1.00  0.00     0.139 C 
HETATM   30  O4  UNL     1      28.666  -1.356  53.721  1.00  0.00    -0.650 OA
BRANCH  29  31
HETATM   31  O5  UNL     1      27.753  -3.142  52.724  1.00  0.00    -0.776 OA
HETATM   32  H24 UNL     1      28.639  -3.548  52.452  1.00  0.00     0.167 HD
ENDBRANCH  29  31
ENDBRANCH  28  29
ENDBRANCH  27  28
ENDBRANCH  14  27
TORSDOF 8
ENDMDL
MODEL 7
REMARK VINA RESULT:      -8.5      1.892      7.275
REMARK  8 active torsions:
REMARK  status: ('A' for Active; 'I' for Inactive)
REMARK    1  A    between atoms: C3_3  and  C4_4 
REMARK    2  A    between atoms: C8_10  and  C9_11 
REMARK    3  A    between atoms: C9_11  and  C10_12 
REMARK    4  A    between atoms: C14_16  and  O2_17 
REMARK    5  A    between atoms: C21_26  and  C22_27 
REMARK    6  A    between atoms: C22_27  and  C23_28 
REMARK    7  A    between atoms: C23_28  and  C24_29 
REMARK    8  A    between atoms: C24_29  and  O5_31 
ROOT
HETATM    1  C4  UNL     1      26.983   1.362  53.151  1.00  0.00     0.017 C 
HETATM    2  C5  UNL     1      25.850   1.083  52.549  1.00  0.00     0.041 C 
HETATM    3  C6  UNL     1      25.388   1.994  51.509  1.00  0.00     0.264 C 
HETATM    4  O1  UNL     1      26.365   2.494  50.902  1.00  0.00    -0.267 OA
HETATM    5  N1  UNL     1      24.090   2.424  51.049  1.00  0.00    -0.267 N 
HETATM    6  C7  UNL     1      24.377   3.386  50.040  1.00  0.00     0.106 A 
HETATM    7  C8  UNL     1      23.280   3.890  49.501  1.00  0.00    -0.056 A 
HETATM    8  C17 UNL     1      21.867   3.626  49.766  1.00  0.00     0.067 A 
HETATM    9  C18 UNL     1      21.764   2.606  50.838  1.00  0.00     0.036 A 
HETATM   10  C19 UNL     1      22.763   2.024  51.458  1.00  0.00     0.178 A 
HETATM   11  O3  UNL     1      22.289   1.123  52.402  1.00  0.00    -0.194 OA
HETATM   12  N2  UNL     1      22.988   0.248  53.237  1.00  0.00    -0.124 NA
HETATM   13  C20 UNL     1      23.956  -0.537  53.140  1.00  0.00     0.123 C 
HETATM   14  C21 UNL     1      25.226  -0.159  53.061  1.00  0.00    -0.009 C 
ENDROOT
BRANCH   7  15
HETATM   15  C9  UNL     1      23.488   4.903  48.436  1.00  0.00     0.074 C 
BRANCH  15  16
HETATM   16  C10 UNL     1      24.239   6.076  48.994  1.00  0.00    -0.051 A 
HETATM   17  C11 UNL     1      23.542   6.934  49.855  1.00  0.00     0.007 A 
HETATM   18  C12 UNL     1      24.232   8.014  50.370  1.00  0.00     0.003 A 
HETATM   19  C13 UNL     1      25.557   8.293  50.087  1.00  0.00     0.037 A 
HETATM   20  C14 UNL     1      26.203   7.415  49.232  1.00  0.00     0.068 A 
HETATM   21  C16 UNL     1      25.568   6.319  48.686  1.00  0.00     0.044 A 
BRANCH  20  22
HETATM   22  O2  UNL     1      27.530   7.718  48.965  1.00  0.00    -0.356 OA
HETATM   23  C15 UNL     1      27.886   8.540  47.884  1.00  0.00     0.210 C 
ENDBRANCH  20  22
ENDBRANCH  15  16
ENDBRANCH   7  15
BRANCH   1  24
HETATM   24  C3  UNL     1      27.985   2.402  53.071  1.00  0.00    -0.003 C 
HETATM   25  C2  UNL     1      29.122   2.484  53.781  1.00  0.00    -0.031 C 
HETATM   26  C1  UNL     1      29.341   1.374  54.737  1.00  0.00     0.036 C 
ENDBRANCH   1  24
BRANCH  14  27
HETATM   27  C22 UNL     1      26.178  -1.151  53.577  1.00  0.00     0.052 C 
BRANCH  27  28
HETATM   28  C23 UNL     1      26.879  -1.955  52.503  1.00  0.00     0.115 C 
BRANCH  28  29
HETATM   29  C24 UNL     1      28.259  -2.256  52.968  1.00  0.00     0.139 C 
HETATM   30  O4  UNL     1      29.267  -1.485  53.086  1.00  0.00    -0.650 OA
BRANCH  29  31
HETATM   31  O5  UNL     1      28.495  -3.573  53.331  1.00  0.00    -0.776 OA
HETATM   32  H24 UNL     1      28.762  -3.820  54.275  1.00  0.00     0.167 HD
ENDBRANCH  29  31
ENDBRANCH  28  29
ENDBRANCH  27  28
ENDBRANCH  14  27
TORSDOF 8
ENDMDL
MODEL 8
REMARK VINA RESULT:      -8.4      2.302      4.039
REMARK  8 active torsions:
REMARK  status: ('A' for Active; 'I' for Inactive)
REMARK    1  A    between atoms: C3_3  and  C4_4 
REMARK    2  A    between atoms: C8_10  and  C9_11 
REMARK    3  A    between atoms: C9_11  and  C10_12 
REMARK    4  A    between atoms: C14_16  and  O2_17 
REMARK    5  A    between atoms: C21_26  and  C22_27 
REMARK    6  A    between atoms: C22_27  and  C23_28 
REMARK    7  A    between atoms: C23_28  and  C24_29 
REMARK    8  A    between atoms: C24_29  and  O5_31 
ROOT
HETATM    1  C4  UNL     1      26.013   5.650  49.513  1.00  0.00     0.017 C 
HETATM    2  C5  UNL     1      24.817   5.670  50.056  1.00  0.00     0.041 C 
HETATM    3  C6  UNL     1      24.129   4.398  50.238  1.00  0.00     0.264 C 
HETATM    4  O1  UNL     1      24.956   3.485  50.471  1.00  0.00    -0.267 OA
HETATM    5  N1  UNL     1      22.746   3.986  50.208  1.00  0.00    -0.267 N 
HETATM    6  C7  UNL     1      22.797   2.578  50.398  1.00  0.00     0.106 A 
HETATM    7  C8  UNL     1      21.594   2.028  50.399  1.00  0.00    -0.056 A 
HETATM    8  C17 UNL     1      20.265   2.617  50.242  1.00  0.00     0.067 A 
HETATM    9  C18 UNL     1      20.410   4.082  50.056  1.00  0.00     0.036 A 
HETATM   10  C19 UNL     1      21.535   4.756  50.034  1.00  0.00     0.178 A 
HETATM   11  O3  UNL     1      21.286   6.108  49.840  1.00  0.00    -0.194 OA
HETATM   12  N2  UNL     1      22.172   7.189  49.812  1.00  0.00    -0.124 NA
HETATM   13  C20 UNL     1      23.161   7.581  50.467  1.00  0.00     0.123 C 
HETATM   14  C21 UNL     1      24.372   7.042  50.397  1.00  0.00    -0.009 C 
ENDROOT
BRANCH   7  15
HETATM   15  C9  UNL     1      21.553   0.557  50.593  1.00  0.00     0.074 C 
BRANCH  15  16
HETATM   16  C10 UNL     1      21.616   0.238  52.058  1.00  0.00    -0.051 A 
HETATM   17  C11 UNL     1      20.453   0.445  52.811  1.00  0.00     0.007 A 
HETATM   18  C12 UNL     1      20.509   0.152  54.160  1.00  0.00     0.003 A 
HETATM   19  C13 UNL     1      21.636  -0.329  54.801  1.00  0.00     0.037 A 
HETATM   20  C14 UNL     1      22.761  -0.518  54.014  1.00  0.00     0.068 A 
HETATM   21  C16 UNL     1      22.767  -0.244  52.662  1.00  0.00     0.044 A 
BRANCH  20  22
HETATM   22  O2  UNL     1      23.876  -1.001  54.682  1.00  0.00    -0.356 OA
HETATM   23  C15 UNL     1      25.169  -0.566  54.349  1.00  0.00     0.210 C 
ENDBRANCH  20  22
ENDBRANCH  15  16
ENDBRANCH   7  15
BRANCH   1  24
HETATM   24  C3  UNL     1      26.914   4.642  49.000  1.00  0.00    -0.003 C 
HETATM   25  C2  UNL     1      28.103   4.847  48.410  1.00  0.00    -0.031 C 
HETATM   26  C1  UNL     1      28.500   6.269  48.287  1.00  0.00     0.036 C 
ENDBRANCH   1  24
BRANCH  14  27
HETATM   27  C22 UNL     1      25.461   7.975  50.710  1.00  0.00     0.052 C 
BRANCH  27  28
HETATM   28  C23 UNL     1      25.662   9.063  49.677  1.00  0.00     0.115 C 
BRANCH  28  29
HETATM   29  C24 UNL     1      26.909   9.802  50.011  1.00  0.00     0.139 C 
HETATM   30  O4  UNL     1      27.486  10.752  49.388  1.00  0.00    -0.650 OA
BRANCH  29  31
HETATM   31  O5  UNL     1      27.548   9.403  51.175  1.00  0.00    -0.776 OA
HETATM   32  H24 UNL     1      28.557   9.405  51.249  1.00  0.00     0.167 HD
ENDBRANCH  29  31
ENDBRANCH  28  29
ENDBRANCH  27  28
ENDBRANCH  14  27
TORSDOF 8
ENDMDL
MODEL 9
REMARK VINA RESULT:      -8.2      2.744      8.499
REMARK  8 active torsions:
REMARK  status: ('A' for Active; 'I' for Inactive)
REMARK    1  A    between atoms: C3_3  and  C4_4 
REMARK    2  A    between atoms: C8_10  and  C9_11 
REMARK    3  A    between atoms: C9_11  and  C10_12 
REMARK    4  A    between atoms: C14_16  and  O2_17 
REMARK    5  A    between atoms: C21_26  and  C22_27 
REMARK    6  A    between atoms: C22_27  and  C23_28 
REMARK    7  A    between atoms: C23_28  and  C24_29 
REMARK    8  A    between atoms: C24_29  and  O5_31 
ROOT
HETATM    1  C4  UNL     1      24.242   0.254  53.185  1.00  0.00     0.017 C 
HETATM    2  C5  UNL     1      24.844   1.371  52.847  1.00  0.00     0.041 C 
HETATM    3  C6  UNL     1      24.102   2.327  52.034  1.00  0.00     0.264 C 
HETATM    4  O1  UNL     1      22.880   2.282  52.315  1.00  0.00    -0.267 OA
HETATM    5  N1  UNL     1      24.465   3.279  51.012  1.00  0.00    -0.267 N 
HETATM    6  C7  UNL     1      23.224   3.833  50.594  1.00  0.00     0.106 A 
HETATM    7  C8  UNL     1      23.376   4.743  49.645  1.00  0.00    -0.056 A 
HETATM    8  C17 UNL     1      24.574   5.252  48.981  1.00  0.00     0.067 A 
HETATM    9  C18 UNL     1      25.761   4.563  49.543  1.00  0.00     0.036 A 
HETATM   10  C19 UNL     1      25.758   3.647  50.482  1.00  0.00     0.178 A 
HETATM   11  O3  UNL     1      27.054   3.228  50.755  1.00  0.00    -0.194 OA
HETATM   12  N2  UNL     1      27.521   2.325  51.713  1.00  0.00    -0.124 NA
HETATM   13  C20 UNL     1      27.307   2.072  52.918  1.00  0.00     0.123 C 
HETATM   14  C21 UNL     1      26.225   1.454  53.376  1.00  0.00    -0.009 C 
ENDROOT
BRANCH   7  15
HETATM   15  C9  UNL     1      22.128   5.375  49.148  1.00  0.00     0.074 C 
BRANCH  15  16
HETATM   16  C10 UNL     1      22.012   5.169  47.666  1.00  0.00    -0.051 A 
HETATM   17  C11 UNL     1      21.863   3.852  47.212  1.00  0.00     0.007 A 
HETATM   18  C12 UNL     1      21.756   3.660  45.848  1.00  0.00     0.003 A 
HETATM   19  C13 UNL     1      21.785   4.682  44.917  1.00  0.00     0.037 A 
HETATM   20  C14 UNL     1      21.934   5.966  45.415  1.00  0.00     0.068 A 
HETATM   21  C16 UNL     1      22.046   6.222  46.766  1.00  0.00     0.044 A 
BRANCH  20  22
HETATM   22  O2  UNL     1      21.962   6.972  44.461  1.00  0.00    -0.356 OA
HETATM   23  C15 UNL     1      21.413   6.780  43.184  1.00  0.00     0.210 C 
ENDBRANCH  20  22
ENDBRANCH  15  16
ENDBRANCH   7  15
BRANCH   1  24
HETATM   24  C3  UNL     1      22.946  -0.347  52.962  1.00  0.00    -0.003 C 
HETATM   25  C2  UNL     1      22.223  -1.059  53.843  1.00  0.00    -0.031 C 
HETATM   26  C1  UNL     1      22.852  -1.225  55.174  1.00  0.00     0.036 C 
ENDBRANCH   1  24
BRANCH  14  27
HETATM   27  C22 UNL     1      26.441   0.721  54.630  1.00  0.00     0.052 C 
BRANCH  27  28
HETATM   28  C23 UNL     1      27.847   0.184  54.799  1.00  0.00     0.115 C 
BRANCH  28  29
HETATM   29  C24 UNL     1      28.059  -0.896  53.800  1.00  0.00     0.139 C 
HETATM   30  O4  UNL     1      27.255  -1.794  53.384  1.00  0.00    -0.650 OA
BRANCH  29  31
HETATM   31  O5  UNL     1      29.321  -0.943  53.227  1.00  0.00    -0.776 OA
HETATM   32  H24 UNL     1      29.447  -0.888  52.225  1.00  0.00     0.167 HD
ENDBRANCH  29  31
ENDBRANCH  28  29
ENDBRANCH  27  28
ENDBRANCH  14  27
TORSDOF 8
ENDMDL
