MODEL 1
REMARK VINA RESULT:      -8.7      0.000      0.000
REMARK  0 active torsions:
REMARK  status: ('A' for Active; 'I' for Inactive)
ROOT
HETATM    1  N1  UNL     1      22.250   2.866  46.678  1.00  0.00    -0.096 N 
HETATM    2  C1  UNL     1      22.377   2.688  47.862  1.00  0.00     0.019 C 
HETATM    3  C2  UNL     1      22.535   2.452  49.326  1.00  0.00     0.028 C 
HETATM    4  C3  UNL     1      23.668   3.036  49.505  1.00  0.00     0.015 C 
HETATM    5  C4  UNL     1      24.208   3.079  50.862  1.00  0.00     0.168 C 
HETATM    6  N2  UNL     1      25.374   2.428  51.186  1.00  0.00    -0.311 N 
HETATM    7  C5  UNL     1      26.582   1.754  51.521  1.00  0.00     0.222 A 
HETATM    8  C6  UNL     1      27.443   2.107  52.500  1.00  0.00     0.035 C 
HETATM    9  C7  UNL     1      28.311   2.547  53.559  1.00  0.00     0.109 C 
HETATM   10  N3  UNL     1      29.233   1.686  53.946  1.00  0.00    -0.302 NA
HETATM   11  C8  UNL     1      29.311   0.366  53.321  1.00  0.00     0.149 C 
HETATM   12  C9  UNL     1      28.435  -0.618  54.049  1.00  0.00     0.038 C 
HETATM   13  C10 UNL     1      27.008  -0.372  54.232  1.00  0.00     0.112 C 
HETATM   14  N4  UNL     1      26.113  -0.480  53.113  1.00  0.00    -0.238 NA
HETATM   15  N5  UNL     1      24.874   0.227  53.389  1.00  0.00    -0.311 N 
HETATM   16  C11 UNL     1      24.580   1.639  53.278  1.00  0.00     0.189 C 
HETATM   17  N6  UNL     1      25.116   1.519  52.194  1.00  0.00    -0.163 NA
HETATM   18  C12 UNL     1      23.767  -0.547  53.919  1.00  0.00     0.149 C 
HETATM   19  C13 UNL     1      22.562  -0.522  53.074  1.00  0.00     0.020 C 
HETATM   20  C14 UNL     1      22.353   0.226  51.957  1.00  0.00     0.022 C 
HETATM   21  C15 UNL     1      21.384   0.545  50.872  1.00  0.00    -0.019 C 
HETATM   22  C16 UNL     1      21.634   1.459  49.908  1.00  0.00     0.018 C 
HETATM   23  H13 UNL     1      25.825  -1.459  52.943  1.00  0.00     0.146 HD
ENDROOT
TORSDOF 0
ENDMDL
MODEL 2
REMARK VINA RESULT:      -7.9      2.193      6.057
REMARK  0 active torsions:
REMARK  status: ('A' for Active; 'I' for Inactive)
ROOT
HETATM    1  N1  UNL     1      29.029   0.040  54.583  1.00  0.00    -0.096 N 
HETATM    2  C1  UNL     1      27.986   0.063  53.982  1.00  0.00     0.019 C 
HETATM    3  C2  UNL     1      26.688   0.095  53.249  1.00  0.00     0.028 C 
HETATM    4  C3  UNL     1      26.975   0.984  52.364  1.00  0.00     0.015 C 
HETATM    5  C4  UNL     1      25.955   1.314  51.371  1.00  0.00     0.168 C 
HETATM    6  N2  UNL     1      25.391   2.566  51.318  1.00  0.00    -0.311 N 
HETATM    7  C5  UNL     1      24.808   3.863  51.263  1.00  0.00     0.222 A 
HETATM    8  C6  UNL     1      24.298   4.458  50.162  1.00  0.00     0.035 C 
HETATM    9  C7  UNL     1      23.778   5.025  48.948  1.00  0.00     0.109 C 
HETATM   10  N3  UNL     1      23.020   6.097  49.088  1.00  0.00    -0.302 NA
HETATM   11  C8  UNL     1      22.736   6.623  50.423  1.00  0.00     0.149 C 
HETATM   12  C9  UNL     1      21.504   5.977  50.996  1.00  0.00     0.038 C 
HETATM   13  C10 UNL     1      21.403   4.527  51.134  1.00  0.00     0.112 C 
HETATM   14  N4  UNL     1      22.168   3.848  52.143  1.00  0.00    -0.238 NA
HETATM   15  N5  UNL     1      22.281   2.435  51.824  1.00  0.00    -0.311 N 
HETATM   16  C11 UNL     1      23.192   1.771  50.918  1.00  0.00     0.189 C 
HETATM   17  N6  UNL     1      24.025   2.451  51.484  1.00  0.00    -0.163 NA
HETATM   18  C12 UNL     1      21.315   1.534  52.426  1.00  0.00     0.149 C 
HETATM   19  C13 UNL     1      21.919   0.489  53.268  1.00  0.00     0.020 C 
HETATM   20  C14 UNL     1      23.243   0.220  53.427  1.00  0.00     0.022 C 
HETATM   21  C15 UNL     1      24.231  -0.655  54.117  1.00  0.00    -0.019 C 
HETATM   22  C16 UNL     1      25.565  -0.554  53.924  1.00  0.00     0.018 C 
HETATM   23  H13 UNL     1      21.698   3.872  53.065  1.00  0.00     0.146 HD
ENDROOT
TORSDOF 0
ENDMDL
MODEL 3
REMARK VINA RESULT:      -7.8      2.553      4.760
REMARK  0 active torsions:
REMARK  status: ('A' for Active; 'I' for Inactive)
ROOT
HETATM    1  N1  UNL     1      17.880  -0.887  52.156  1.00  0.00    -0.096 N 
HETATM    2  C1  UNL     1      18.922  -0.439  52.558  1.00  0.00     0.019 C 
HETATM    3  C2  UNL     1      20.220   0.107  53.049  1.00  0.00     0.028 C 
HETATM    4  C3  UNL     1      20.141   1.295  52.559  1.00  0.00     0.015 C 
HETATM    5  C4  UNL     1      21.232   2.225  52.840  1.00  0.00     0.168 C 
HETATM    6  N2  UNL     1      22.036   2.704  51.833  1.00  0.00    -0.311 N 
HETATM    7  C5  UNL     1      22.868   3.201  50.791  1.00  0.00     0.222 A 
HETATM    8  C6  UNL     1      23.515   4.387  50.789  1.00  0.00     0.035 C 
HETATM    9  C7  UNL     1      24.172   5.664  50.861  1.00  0.00     0.109 C 
HETATM   10  N3  UNL     1      25.124   5.875  49.971  1.00  0.00    -0.302 NA
HETATM   11  C8  UNL     1      25.471   4.832  49.007  1.00  0.00     0.149 C 
HETATM   12  C9  UNL     1      26.533   3.925  49.568  1.00  0.00     0.038 C 
HETATM   13  C10 UNL     1      26.339   3.220  50.832  1.00  0.00     0.112 C 
HETATM   14  N4  UNL     1      25.426   2.112  50.901  1.00  0.00    -0.238 NA
HETATM   15  N5  UNL     1      25.043   1.863  52.281  1.00  0.00    -0.311 N 
HETATM   16  C11 UNL     1      24.042   2.526  53.088  1.00  0.00     0.189 C 
HETATM   17  N6  UNL     1      23.347   2.363  52.105  1.00  0.00    -0.163 NA
HETATM   18  C12 UNL     1      25.792   0.858  53.012  1.00  0.00     0.149 C 
HETATM   19  C13 UNL     1      24.969  -0.258  53.507  1.00  0.00     0.020 C 
HETATM   20  C14 UNL     1      23.614  -0.369  53.457  1.00  0.00     0.022 C 
HETATM   21  C15 UNL     1      22.453  -1.239  53.794  1.00  0.00    -0.019 C 
HETATM   22  C16 UNL     1      21.172  -0.882  53.552  1.00  0.00     0.018 C 
HETATM   23  H13 UNL     1      25.866   1.230  50.588  1.00  0.00     0.146 HD
ENDROOT
TORSDOF 0
ENDMDL
MODEL 4
REMARK VINA RESULT:      -7.5      2.416      6.990
REMARK  0 active torsions:
REMARK  status: ('A' for Active; 'I' for Inactive)
ROOT
HETATM    1  N1  UNL     1      27.508  -2.433  52.741  1.00  0.00    -0.096 N 
HETATM    2  C1  UNL     1      26.884  -1.404  52.703  1.00  0.00     0.019 C 
HETATM    3  C2  UNL     1      26.114  -0.129  52.641  1.00  0.00     0.028 C 
HETATM    4  C3  UNL     1      24.969  -0.563  53.036  1.00  0.00     0.015 C 
HETATM    5  C4  UNL     1      23.879   0.403  53.165  1.00  0.00     0.168 C 
HETATM    6  N2  UNL     1      22.762   0.325  52.368  1.00  0.00    -0.311 N 
HETATM    7  C5  UNL     1      21.604   0.245  51.544  1.00  0.00     0.222 A 
HETATM    8  C6  UNL     1      20.367   0.679  51.869  1.00  0.00     0.035 C 
HETATM    9  C7  UNL     1      19.080   1.164  52.287  1.00  0.00     0.109 C 
HETATM   10  N3  UNL     1      18.171   1.287  51.337  1.00  0.00    -0.302 NA
HETATM   11  C8  UNL     1      18.511   0.961  49.952  1.00  0.00     0.149 C 
HETATM   12  C9  UNL     1      19.062   2.168  49.243  1.00  0.00     0.038 C 
HETATM   13  C10 UNL     1      20.227   2.883  49.757  1.00  0.00     0.112 C 
HETATM   14  N4  UNL     1      21.532   2.291  49.659  1.00  0.00    -0.238 NA
HETATM   15  N5  UNL     1      22.442   2.919  50.602  1.00  0.00    -0.311 N 
HETATM   16  C11 UNL     1      22.613   2.667  52.017  1.00  0.00     0.189 C 
HETATM   17  N6  UNL     1      22.632   1.505  51.662  1.00  0.00    -0.163 NA
HETATM   18  C12 UNL     1      23.267   4.008  50.112  1.00  0.00     0.149 C 
HETATM   19  C13 UNL     1      24.713   3.763  50.234  1.00  0.00     0.020 C 
HETATM   20  C14 UNL     1      25.323   2.715  50.852  1.00  0.00     0.022 C 
HETATM   21  C15 UNL     1      26.637   2.101  51.188  1.00  0.00    -0.019 C 
HETATM   22  C16 UNL     1      26.754   0.962  51.907  1.00  0.00     0.018 C 
HETATM   23  H13 UNL     1      21.961   2.455  48.732  1.00  0.00     0.146 HD
ENDROOT
TORSDOF 0
ENDMDL
MODEL 5
REMARK VINA RESULT:      -7.5      2.778      3.989
REMARK  0 active torsions:
REMARK  status: ('A' for Active; 'I' for Inactive)
ROOT
HETATM    1  N1  UNL     1      16.639  -0.316  49.504  1.00  0.00    -0.096 N 
HETATM    2  C1  UNL     1      17.396  -0.140  50.422  1.00  0.00     0.019 C 
HETATM    3  C2  UNL     1      18.339   0.066  51.559  1.00  0.00     0.028 C 
HETATM    4  C3  UNL     1      19.064   1.002  51.055  1.00  0.00     0.015 C 
HETATM    5  C4  UNL     1      20.136   1.556  51.880  1.00  0.00     0.168 C 
HETATM    6  N2  UNL     1      21.456   1.409  51.525  1.00  0.00    -0.311 N 
HETATM    7  C5  UNL     1      22.822   1.258  51.158  1.00  0.00     0.222 A 
HETATM    8  C6  UNL     1      23.829   2.100  51.479  1.00  0.00     0.035 C 
HETATM    9  C7  UNL     1      24.845   3.044  51.858  1.00  0.00     0.109 C 
HETATM   10  N3  UNL     1      26.093   2.644  51.700  1.00  0.00    -0.302 NA
HETATM   11  C8  UNL     1      26.374   1.303  51.189  1.00  0.00     0.149 C 
HETATM   12  C9  UNL     1      26.457   0.312  52.318  1.00  0.00     0.038 C 
HETATM   13  C10 UNL     1      25.351   0.134  53.254  1.00  0.00     0.112 C 
HETATM   14  N4  UNL     1      24.151  -0.530  52.827  1.00  0.00    -0.238 NA
HETATM   15  N5  UNL     1      23.050  -0.204  53.718  1.00  0.00    -0.311 N 
HETATM   16  C11 UNL     1      22.201   0.968  53.734  1.00  0.00     0.189 C 
HETATM   17  N6  UNL     1      22.123   0.752  52.541  1.00  0.00    -0.163 NA
HETATM   18  C12 UNL     1      22.773  -1.125  54.804  1.00  0.00     0.149 C 
HETATM   19  C13 UNL     1      21.417  -1.696  54.771  1.00  0.00     0.020 C 
HETATM   20  C14 UNL     1      20.401  -1.361  53.931  1.00  0.00     0.022 C 
HETATM   21  C15 UNL     1      18.988  -1.648  53.557  1.00  0.00    -0.019 C 
HETATM   22  C16 UNL     1      18.334  -0.979  52.581  1.00  0.00     0.018 C 
HETATM   23  H13 UNL     1      24.238  -1.559  52.884  1.00  0.00     0.146 HD
ENDROOT
TORSDOF 0
ENDMDL
MODEL 6
REMARK VINA RESULT:      -7.3      3.108      6.320
REMARK  0 active torsions:
REMARK  status: ('A' for Active; 'I' for Inactive)
ROOT
HETATM    1  N1  UNL     1      25.709  -0.748  54.778  1.00  0.00    -0.096 N 
HETATM    2  C1  UNL     1      24.921  -0.265  54.008  1.00  0.00     0.019 C 
HETATM    3  C2  UNL     1      23.937   0.340  53.064  1.00  0.00     0.028 C 
HETATM    4  C3  UNL     1      24.747   1.031  52.341  1.00  0.00     0.015 C 
HETATM    5  C4  UNL     1      24.189   1.788  51.222  1.00  0.00     0.168 C 
HETATM    6  N2  UNL     1      24.230   3.161  51.201  1.00  0.00    -0.311 N 
HETATM    7  C5  UNL     1      24.274   4.584  51.177  1.00  0.00     0.222 A 
HETATM    8  C6  UNL     1      24.301   5.360  50.072  1.00  0.00     0.035 C 
HETATM    9  C7  UNL     1      24.328   6.117  48.850  1.00  0.00     0.109 C 
HETATM   10  N3  UNL     1      24.083   7.409  48.965  1.00  0.00    -0.302 NA
HETATM   11  C8  UNL     1      23.782   7.984  50.275  1.00  0.00     0.149 C 
HETATM   12  C9  UNL     1      22.304   7.927  50.551  1.00  0.00     0.038 C 
HETATM   13  C10 UNL     1      21.573   6.663  50.518  1.00  0.00     0.112 C 
HETATM   14  N4  UNL     1      21.757   5.702  51.571  1.00  0.00    -0.238 NA
HETATM   15  N5  UNL     1      21.325   4.386  51.132  1.00  0.00    -0.311 N 
HETATM   16  C11 UNL     1      22.034   3.407  50.337  1.00  0.00     0.189 C 
HETATM   17  N6  UNL     1      22.941   3.648  51.110  1.00  0.00    -0.163 NA
HETATM   18  C12 UNL     1      19.969   3.984  51.457  1.00  0.00     0.149 C 
HETATM   19  C13 UNL     1      19.888   2.766  52.279  1.00  0.00     0.020 C 
HETATM   20  C14 UNL     1      20.911   1.946  52.641  1.00  0.00     0.022 C 
HETATM   21  C15 UNL     1      21.273   0.717  53.401  1.00  0.00    -0.019 C 
HETATM   22  C16 UNL     1      22.534   0.232  53.458  1.00  0.00     0.018 C 
HETATM   23  H13 UNL     1      21.163   5.913  52.392  1.00  0.00     0.146 HD
ENDROOT
TORSDOF 0
ENDMDL
MODEL 7
REMARK VINA RESULT:      -7.3      3.365      7.620
REMARK  0 active torsions:
REMARK  status: ('A' for Active; 'I' for Inactive)
ROOT
HETATM    1  N1  UNL     1      26.530  -1.399  53.000  1.00  0.00    -0.096 N 
HETATM    2  C1  UNL     1      25.641  -0.602  53.150  1.00  0.00     0.019 C 
HETATM    3  C2  UNL     1      24.542   0.391  53.324  1.00  0.00     0.028 C 
HETATM    4  C3  UNL     1      23.541  -0.417  53.363  1.00  0.00     0.015 C 
HETATM    5  C4  UNL     1      22.211   0.152  53.568  1.00  0.00     0.168 C 
HETATM    6  N2  UNL     1      21.243   0.069  52.596  1.00  0.00    -0.311 N 
HETATM    7  C5  UNL     1      20.240  -0.019  51.590  1.00  0.00     0.222 A 
HETATM    8  C6  UNL     1      18.905  -0.034  51.799  1.00  0.00     0.035 C 
HETATM    9  C7  UNL     1      17.500  -0.047  52.101  1.00  0.00     0.109 C 
HETATM   10  N3  UNL     1      16.687   0.154  51.080  1.00  0.00    -0.302 NA
HETATM   11  C8  UNL     1      17.233   0.395  49.745  1.00  0.00     0.149 C 
HETATM   12  C9  UNL     1      17.473   1.865  49.529  1.00  0.00     0.038 C 
HETATM   13  C10 UNL     1      18.326   2.635  50.429  1.00  0.00     0.112 C 
HETATM   14  N4  UNL     1      19.751   2.449  50.400  1.00  0.00    -0.238 NA
HETATM   15  N5  UNL     1      20.347   2.935  51.632  1.00  0.00    -0.311 N 
HETATM   16  C11 UNL     1      20.453   2.282  52.919  1.00  0.00     0.189 C 
HETATM   17  N6  UNL     1      20.841   1.345  52.251  1.00  0.00    -0.163 NA
HETATM   18  C12 UNL     1      20.862   4.292  51.636  1.00  0.00     0.149 C 
HETATM   19  C13 UNL     1      22.299   4.385  51.940  1.00  0.00     0.020 C 
HETATM   20  C14 UNL     1      23.127   3.377  52.326  1.00  0.00     0.022 C 
HETATM   21  C15 UNL     1      24.526   3.030  52.700  1.00  0.00    -0.019 C 
HETATM   22  C16 UNL     1      24.903   1.784  53.066  1.00  0.00     0.018 C 
HETATM   23  H13 UNL     1      20.198   3.009  49.653  1.00  0.00     0.146 HD
ENDROOT
TORSDOF 0
ENDMDL
MODEL 8
REMARK VINA RESULT:      -7.2      3.289      7.298
REMARK  0 active torsions:
REMARK  status: ('A' for Active; 'I' for Inactive)
ROOT
HETATM    1  N1  UNL     1      23.185  -0.834  53.356  1.00  0.00    -0.096 N 
HETATM    2  C1  UNL     1      23.682   0.214  53.036  1.00  0.00     0.019 C 
HETATM    3  C2  UNL     1      24.301   1.508  52.625  1.00  0.00     0.028 C 
HETATM    4  C3  UNL     1      23.278   2.276  52.764  1.00  0.00     0.015 C 
HETATM    5  C4  UNL     1      23.451   3.701  52.491  1.00  0.00     0.168 C 
HETATM    6  N2  UNL     1      22.794   4.313  51.451  1.00  0.00    -0.311 N 
HETATM    7  C5  UNL     1      22.112   4.946  50.374  1.00  0.00     0.222 A 
HETATM    8  C6  UNL     1      21.756   6.248  50.316  1.00  0.00     0.035 C 
HETATM    9  C7  UNL     1      21.408   7.643  50.330  1.00  0.00     0.109 C 
HETATM   10  N3  UNL     1      21.041   8.159  49.171  1.00  0.00    -0.302 NA
HETATM   11  C8  UNL     1      21.029   7.325  47.969  1.00  0.00     0.149 C 
HETATM   12  C9  UNL     1      22.368   7.364  47.285  1.00  0.00     0.038 C 
HETATM   13  C10 UNL     1      23.591   6.990  47.989  1.00  0.00     0.112 C 
HETATM   14  N4  UNL     1      23.845   5.611  48.301  1.00  0.00    -0.238 NA
HETATM   15  N5  UNL     1      24.833   5.508  49.362  1.00  0.00    -0.311 N 
HETATM   16  C11 UNL     1      24.655   5.628  50.793  1.00  0.00     0.189 C 
HETATM   17  N6  UNL     1      23.725   4.871  50.597  1.00  0.00    -0.163 NA
HETATM   18  C12 UNL     1      26.219   5.327  48.972  1.00  0.00     0.149 C 
HETATM   19  C13 UNL     1      26.828   4.091  49.488  1.00  0.00     0.020 C 
HETATM   20  C14 UNL     1      26.280   3.204  50.363  1.00  0.00     0.022 C 
HETATM   21  C15 UNL     1      26.501   1.927  51.096  1.00  0.00    -0.019 C 
HETATM   22  C16 UNL     1      25.595   1.405  51.953  1.00  0.00     0.018 C 
HETATM   23  H13 UNL     1      24.266   5.106  47.502  1.00  0.00     0.146 HD
ENDROOT
TORSDOF 0
ENDMDL
MODEL 9
REMARK VINA RESULT:      -7.0      3.142      5.093
REMARK  0 active torsions:
REMARK  status: ('A' for Active; 'I' for Inactive)
ROOT
HETATM    1  N1  UNL     1      20.433   8.770  50.356  1.00  0.00    -0.096 N 
HETATM    2  C1  UNL     1      21.181   7.913  49.964  1.00  0.00     0.019 C 
HETATM    3  C2  UNL     1      22.119   6.858  49.485  1.00  0.00     0.028 C 
HETATM    4  C3  UNL     1      21.666   5.860  50.159  1.00  0.00     0.015 C 
HETATM    5  C4  UNL     1      22.296   4.557  49.960  1.00  0.00     0.168 C 
HETATM    6  N2  UNL     1      22.979   3.933  50.976  1.00  0.00    -0.311 N 
HETATM    7  C5  UNL     1      23.685   3.286  52.029  1.00  0.00     0.222 A 
HETATM    8  C6  UNL     1      23.845   1.953  52.176  1.00  0.00     0.035 C 
HETATM    9  C7  UNL     1      23.971   0.524  52.265  1.00  0.00     0.109 C 
HETATM   10  N3  UNL     1      24.875   0.074  53.115  1.00  0.00    -0.302 NA
HETATM   11  C8  UNL     1      25.693   1.015  53.880  1.00  0.00     0.149 C 
HETATM   12  C9  UNL     1      26.941   1.372  53.119  1.00  0.00     0.038 C 
HETATM   13  C10 UNL     1      26.874   1.939  51.775  1.00  0.00     0.112 C 
HETATM   14  N4  UNL     1      26.433   3.293  51.589  1.00  0.00    -0.238 NA
HETATM   15  N5  UNL     1      26.009   3.501  50.215  1.00  0.00    -0.311 N 
HETATM   16  C11 UNL     1      24.747   3.177  49.587  1.00  0.00     0.189 C 
HETATM   17  N6  UNL     1      24.282   3.712  50.573  1.00  0.00    -0.163 NA
HETATM   18  C12 UNL     1      26.985   4.047  49.289  1.00  0.00     0.149 C 
HETATM   19  C13 UNL     1      26.579   5.323  48.679  1.00  0.00     0.020 C 
HETATM   20  C14 UNL     1      25.377   5.948  48.795  1.00  0.00     0.022 C 
HETATM   21  C15 UNL     1      24.587   7.148  48.400  1.00  0.00    -0.019 C 
HETATM   22  C16 UNL     1      23.303   7.339  48.774  1.00  0.00     0.018 C 
HETATM   23  H13 UNL     1      27.200   3.972  51.733  1.00  0.00     0.146 HD
ENDROOT
TORSDOF 0
ENDMDL
