MODEL 1
REMARK VINA RESULT:      -7.2      0.000      0.000
REMARK  4 active torsions:
REMARK  status: ('A' for Active; 'I' for Inactive)
REMARK       I    between atoms: C1_2  and  N1_3 
REMARK    1  A    between atoms: C1_2  and  C9_12 
REMARK    2  A    between atoms: N1_3  and  C2_4 
REMARK    3  A    between atoms: C11_15  and  C12_16 
REMARK    4  A    between atoms: C12_16  and  C13_17 
ROOT
HETATM    1  O1  UNL     1      24.191   3.535  49.920  1.00  0.00    -0.265 OA
HETATM    2  C1  UNL     1      25.363   3.828  50.130  1.00  0.00     0.279 C 
HETATM    3  N1  UNL     1      26.104   3.262  51.152  1.00  0.00    -0.327 N 
HETATM    4  H1  UNL     1      27.114   3.384  51.485  1.00  0.00     0.164 HD
ENDROOT
BRANCH   2   5
HETATM    5  C9  UNL     1      26.215   4.847  49.317  1.00  0.00     0.165 A 
HETATM    6  N3  UNL     1      27.473   4.376  48.989  1.00  0.00    -0.247 NA
HETATM    7  C10 UNL     1      28.207   5.259  48.367  1.00  0.00     0.133 A 
HETATM    8  C11 UNL     1      27.869   6.523  48.031  1.00  0.00     0.007 A 
HETATM    9  S2  UNL     1      26.169   6.538  48.703  1.00  0.00    -0.068 SA
BRANCH   8  10
HETATM   10  C12 UNL     1      28.746   7.470  47.368  1.00  0.00     0.086 C 
BRANCH  10  11
HETATM   11  C13 UNL     1      30.178   7.350  47.706  1.00  0.00    -0.046 A 
HETATM   12  C14 UNL     1      31.262   6.691  47.156  1.00  0.00     0.015 A 
HETATM   13  C15 UNL     1      32.526   6.791  47.752  1.00  0.00     0.050 A 
HETATM   14  S1  UNL     1      32.279   7.847  49.153  1.00  0.00    -0.113 SA
HETATM   15  C16 UNL     1      30.491   8.123  48.906  1.00  0.00     0.057 A 
ENDBRANCH  10  11
ENDBRANCH   8  10
ENDBRANCH   2   5
BRANCH   3  16
HETATM   16  C2  UNL     1      25.451   2.349  51.930  1.00  0.00     0.293 A 
HETATM   17  N2  UNL     1      26.125   0.976  51.982  1.00  0.00    -0.023 N 
HETATM   18  C3  UNL     1      26.693  -0.326  52.031  1.00  0.00     0.218 A 
HETATM   19  H3  UNL     1      27.337   1.766  52.001  1.00  0.00     0.284 HD
HETATM   20  C8  UNL     1      26.128   0.956  51.951  1.00  0.00     0.265 A 
HETATM   21  C4  UNL     1      27.008  -0.447  53.485  1.00  0.00     0.017 A 
HETATM   22  C5  UNL     1      27.031   0.070  54.843  1.00  0.00    -0.005 A 
HETATM   23  C6  UNL     1      26.420   1.315  54.394  1.00  0.00    -0.010 A 
HETATM   24  C7  UNL     1      25.884   2.131  53.359  1.00  0.00     0.072 A 
ENDBRANCH   3  16
TORSDOF 4
ENDMDL
MODEL 2
REMARK VINA RESULT:      -7.1      2.567      7.974
REMARK  4 active torsions:
REMARK  status: ('A' for Active; 'I' for Inactive)
REMARK       I    between atoms: C1_2  and  N1_3 
REMARK    1  A    between atoms: C1_2  and  C9_12 
REMARK    2  A    between atoms: N1_3  and  C2_4 
REMARK    3  A    between atoms: C11_15  and  C12_16 
REMARK    4  A    between atoms: C12_16  and  C13_17 
ROOT
HETATM    1  O1  UNL     1      25.427   6.460  48.262  1.00  0.00    -0.265 OA
HETATM    2  C1  UNL     1      26.226   5.785  48.901  1.00  0.00     0.279 C 
HETATM    3  N1  UNL     1      27.592   5.999  48.853  1.00  0.00    -0.327 N 
HETATM    4  H1  UNL     1      28.429   5.528  49.327  1.00  0.00     0.164 HD
ENDROOT
BRANCH   2   5
HETATM    5  C9  UNL     1      25.875   4.608  49.857  1.00  0.00     0.165 A 
HETATM    6  N3  UNL     1      26.859   3.638  49.922  1.00  0.00    -0.247 NA
HETATM    7  C10 UNL     1      26.530   2.621  50.673  1.00  0.00     0.133 A 
HETATM    8  C11 UNL     1      25.379   2.437  51.356  1.00  0.00     0.007 A 
HETATM    9  S2  UNL     1      24.535   3.990  50.888  1.00  0.00    -0.068 SA
BRANCH   8  10
HETATM   10  C12 UNL     1      25.059   1.265  52.147  1.00  0.00     0.086 C 
BRANCH  10  11
HETATM   11  C13 UNL     1      26.216   0.575  52.752  1.00  0.00    -0.046 A 
HETATM   12  C14 UNL     1      27.002  -0.509  52.403  1.00  0.00     0.015 A 
HETATM   13  C15 UNL     1      28.055  -0.914  53.234  1.00  0.00     0.050 A 
HETATM   14  S1  UNL     1      28.021   0.228  54.588  1.00  0.00    -0.113 SA
HETATM   15  C16 UNL     1      26.598   1.213  54.009  1.00  0.00     0.057 A 
ENDBRANCH  10  11
ENDBRANCH   8  10
ENDBRANCH   2   5
BRANCH   3  16
HETATM   16  C2  UNL     1      28.011   7.014  48.041  1.00  0.00     0.293 A 
HETATM   17  N2  UNL     1      28.638   8.193  48.788  1.00  0.00    -0.023 N 
HETATM   18  C3  UNL     1      29.194   9.328  49.440  1.00  0.00     0.218 A 
HETATM   19  H3  UNL     1      29.200   7.146  49.614  1.00  0.00     0.284 HD
HETATM   20  C8  UNL     1      28.618   8.213  48.812  1.00  0.00     0.265 A 
HETATM   21  C4  UNL     1      30.577   9.331  48.882  1.00  0.00     0.017 A 
HETATM   22  C5  UNL     1      31.624   8.783  48.035  1.00  0.00    -0.005 A 
HETATM   23  C6  UNL     1      30.726   7.725  47.587  1.00  0.00    -0.010 A 
HETATM   24  C7  UNL     1      29.456   7.084  47.609  1.00  0.00     0.072 A 
ENDBRANCH   3  16
TORSDOF 4
ENDMDL
MODEL 3
REMARK VINA RESULT:      -7.0      6.886     10.005
REMARK  4 active torsions:
REMARK  status: ('A' for Active; 'I' for Inactive)
REMARK       I    between atoms: C1_2  and  N1_3 
REMARK    1  A    between atoms: C1_2  and  C9_12 
REMARK    2  A    between atoms: N1_3  and  C2_4 
REMARK    3  A    between atoms: C11_15  and  C12_16 
REMARK    4  A    between atoms: C12_16  and  C13_17 
ROOT
HETATM    1  O1  UNL     1      22.428  -1.312  55.327  1.00  0.00    -0.265 OA
HETATM    2  C1  UNL     1      22.483  -0.740  54.244  1.00  0.00     0.279 C 
HETATM    3  N1  UNL     1      23.680  -0.395  53.641  1.00  0.00    -0.327 N 
HETATM    4  H1  UNL     1      23.928   0.093  52.721  1.00  0.00     0.164 HD
ENDROOT
BRANCH   2   5
HETATM    5  C9  UNL     1      21.269  -0.316  53.367  1.00  0.00     0.165 A 
HETATM    6  N3  UNL     1      20.078  -0.905  53.752  1.00  0.00    -0.247 NA
HETATM    7  C10 UNL     1      19.077  -0.598  52.971  1.00  0.00     0.133 A 
HETATM    8  C11 UNL     1      19.095   0.198  51.880  1.00  0.00     0.007 A 
HETATM    9  S2  UNL     1      20.867   0.646  51.900  1.00  0.00    -0.068 SA
BRANCH   8  10
HETATM   10  C12 UNL     1      17.951   0.472  51.031  1.00  0.00     0.086 C 
BRANCH  10  11
HETATM   11  C13 UNL     1      17.137   1.639  51.426  1.00  0.00    -0.046 A 
HETATM   12  C14 UNL     1      17.333   3.008  51.450  1.00  0.00     0.015 A 
HETATM   13  C15 UNL     1      16.317   3.860  51.901  1.00  0.00     0.050 A 
HETATM   14  S1  UNL     1      14.980   2.777  52.325  1.00  0.00    -0.113 SA
HETATM   15  C16 UNL     1      15.818   1.214  51.891  1.00  0.00     0.057 A 
ENDBRANCH  10  11
ENDBRANCH   8  10
ENDBRANCH   2   5
BRANCH   3  16
HETATM   16  C2  UNL     1      24.814  -0.725  54.328  1.00  0.00     0.293 A 
HETATM   17  N2  UNL     1      25.994  -1.116  53.436  1.00  0.00    -0.023 N 
HETATM   18  C3  UNL     1      27.106  -1.523  52.650  1.00  0.00     0.218 A 
HETATM   19  H3  UNL     1      25.489  -0.049  52.598  1.00  0.00     0.284 HD
HETATM   20  C8  UNL     1      25.991  -1.146  53.414  1.00  0.00     0.265 A 
HETATM   21  C4  UNL     1      28.108  -0.476  53.007  1.00  0.00     0.017 A 
HETATM   22  C5  UNL     1      28.520   0.716  53.727  1.00  0.00    -0.005 A 
HETATM   23  C6  UNL     1      27.208   0.808  54.355  1.00  0.00    -0.010 A 
HETATM   24  C7  UNL     1      25.888   0.312  54.548  1.00  0.00     0.072 A 
ENDBRANCH   3  16
TORSDOF 4
ENDMDL
MODEL 4
REMARK VINA RESULT:      -7.0      2.303      3.386
REMARK  4 active torsions:
REMARK  status: ('A' for Active; 'I' for Inactive)
REMARK       I    between atoms: C1_2  and  N1_3 
REMARK    1  A    between atoms: C1_2  and  C9_12 
REMARK    2  A    between atoms: N1_3  and  C2_4 
REMARK    3  A    between atoms: C11_15  and  C12_16 
REMARK    4  A    between atoms: C12_16  and  C13_17 
ROOT
HETATM    1  O1  UNL     1      24.275   1.477  53.071  1.00  0.00    -0.265 OA
HETATM    2  C1  UNL     1      25.202   1.933  52.412  1.00  0.00     0.279 C 
HETATM    3  N1  UNL     1      26.507   1.495  52.553  1.00  0.00    -0.327 N 
HETATM    4  H1  UNL     1      27.429   1.762  52.080  1.00  0.00     0.164 HD
ENDROOT
BRANCH   2   5
HETATM    5  C9  UNL     1      25.097   3.043  51.325  1.00  0.00     0.165 A 
HETATM    6  N3  UNL     1      26.125   3.009  50.401  1.00  0.00    -0.247 NA
HETATM    7  C10 UNL     1      26.068   3.983  49.533  1.00  0.00     0.133 A 
HETATM    8  C11 UNL     1      25.148   4.969  49.457  1.00  0.00     0.007 A 
HETATM    9  S2  UNL     1      24.110   4.481  50.881  1.00  0.00    -0.068 SA
BRANCH   8  10
HETATM   10  C12 UNL     1      25.161   6.046  48.486  1.00  0.00     0.086 C 
BRANCH  10  11
HETATM   11  C13 UNL     1      26.270   7.011  48.626  1.00  0.00    -0.046 A 
HETATM   12  C14 UNL     1      27.413   7.300  47.904  1.00  0.00     0.015 A 
HETATM   13  C15 UNL     1      28.282   8.312  48.332  1.00  0.00     0.050 A 
HETATM   14  S1  UNL     1      27.535   8.949  49.807  1.00  0.00    -0.113 SA
HETATM   15  C16 UNL     1      26.083   7.843  49.813  1.00  0.00     0.057 A 
ENDBRANCH  10  11
ENDBRANCH   8  10
ENDBRANCH   2   5
BRANCH   3  16
HETATM   16  C2  UNL     1      26.712   0.516  53.483  1.00  0.00     0.293 A 
HETATM   17  N2  UNL     1      26.856  -0.888  52.892  1.00  0.00    -0.023 N 
HETATM   18  C3  UNL     1      26.957  -2.215  52.393  1.00  0.00     0.218 A 
HETATM   19  H3  UNL     1      27.585  -0.188  51.856  1.00  0.00     0.284 HD
HETATM   20  C8  UNL     1      26.827  -0.903  52.874  1.00  0.00     0.265 A 
HETATM   21  C4  UNL     1      28.341  -2.577  52.819  1.00  0.00     0.017 A 
HETATM   22  C5  UNL     1      29.607  -2.277  53.467  1.00  0.00    -0.005 A 
HETATM   23  C6  UNL     1      29.131  -0.942  53.809  1.00  0.00    -0.010 A 
HETATM   24  C7  UNL     1      28.116   0.055  53.792  1.00  0.00     0.072 A 
ENDBRANCH   3  16
TORSDOF 4
ENDMDL
MODEL 5
REMARK VINA RESULT:      -6.9      1.637      2.081
REMARK  4 active torsions:
REMARK  status: ('A' for Active; 'I' for Inactive)
REMARK       I    between atoms: C1_2  and  N1_3 
REMARK    1  A    between atoms: C1_2  and  C9_12 
REMARK    2  A    between atoms: N1_3  and  C2_4 
REMARK    3  A    between atoms: C11_15  and  C12_16 
REMARK    4  A    between atoms: C12_16  and  C13_17 
ROOT
HETATM    1  O1  UNL     1      24.678   3.901  49.319  1.00  0.00    -0.265 OA
HETATM    2  C1  UNL     1      25.819   4.146  49.694  1.00  0.00     0.279 C 
HETATM    3  N1  UNL     1      26.384   3.550  50.808  1.00  0.00    -0.327 N 
HETATM    4  H1  UNL     1      27.341   3.630  51.280  1.00  0.00     0.164 HD
ENDROOT
BRANCH   2   5
HETATM    5  C9  UNL     1      26.818   5.127  49.014  1.00  0.00     0.165 A 
HETATM    6  N3  UNL     1      28.042   4.553  48.720  1.00  0.00    -0.247 NA
HETATM    7  C10 UNL     1      28.898   5.399  48.213  1.00  0.00     0.133 A 
HETATM    8  C11 UNL     1      28.711   6.713  47.962  1.00  0.00     0.007 A 
HETATM    9  S2  UNL     1      26.981   6.855  48.537  1.00  0.00    -0.068 SA
BRANCH   8  10
HETATM   10  C12 UNL     1      29.717   7.610  47.428  1.00  0.00     0.086 C 
BRANCH  10  11
HETATM   11  C13 UNL     1      29.521   9.039  47.739  1.00  0.00    -0.046 A 
HETATM   12  C14 UNL     1      29.465   9.790  48.899  1.00  0.00     0.015 A 
HETATM   13  C15 UNL     1      29.255  11.174  48.836  1.00  0.00     0.050 A 
HETATM   14  S1  UNL     1      29.125  11.528  47.105  1.00  0.00    -0.113 SA
HETATM   15  C16 UNL     1      29.352   9.816  46.513  1.00  0.00     0.057 A 
ENDBRANCH  10  11
ENDBRANCH   8  10
ENDBRANCH   2   5
BRANCH   3  16
HETATM   16  C2  UNL     1      25.591   2.665  51.480  1.00  0.00     0.293 A 
HETATM   17  N2  UNL     1      26.225   1.288  51.687  1.00  0.00    -0.023 N 
HETATM   18  C3  UNL     1      26.757  -0.018  51.870  1.00  0.00     0.218 A 
HETATM   19  H3  UNL     1      27.427   2.066  51.900  1.00  0.00     0.284 HD
HETATM   20  C8  UNL     1      26.234   1.267  51.657  1.00  0.00     0.265 A 
HETATM   21  C4  UNL     1      26.809  -0.101  53.358  1.00  0.00     0.017 A 
HETATM   22  C5  UNL     1      26.599   0.453  54.685  1.00  0.00    -0.005 A 
HETATM   23  C6  UNL     1      26.095   1.691  54.104  1.00  0.00    -0.010 A 
HETATM   24  C7  UNL     1      25.762   2.483  52.969  1.00  0.00     0.072 A 
ENDBRANCH   3  16
TORSDOF 4
ENDMDL
MODEL 6
REMARK VINA RESULT:      -6.9      4.355      5.222
REMARK  4 active torsions:
REMARK  status: ('A' for Active; 'I' for Inactive)
REMARK       I    between atoms: C1_2  and  N1_3 
REMARK    1  A    between atoms: C1_2  and  C9_12 
REMARK    2  A    between atoms: N1_3  and  C2_4 
REMARK    3  A    between atoms: C11_15  and  C12_16 
REMARK    4  A    between atoms: C12_16  and  C13_17 
ROOT
HETATM    1  O1  UNL     1      23.631   0.346  53.151  1.00  0.00    -0.265 OA
HETATM    2  C1  UNL     1      24.369   0.936  52.370  1.00  0.00     0.279 C 
HETATM    3  N1  UNL     1      25.749   0.871  52.452  1.00  0.00    -0.327 N 
HETATM    4  H1  UNL     1      26.542   1.303  51.877  1.00  0.00     0.164 HD
ENDROOT
BRANCH   2   5
HETATM    5  C9  UNL     1      23.918   1.829  51.177  1.00  0.00     0.165 A 
HETATM    6  N3  UNL     1      24.898   2.702  50.742  1.00  0.00    -0.247 NA
HETATM    7  C10 UNL     1      24.492   3.495  49.786  1.00  0.00     0.133 A 
HETATM    8  C11 UNL     1      23.269   3.539  49.214  1.00  0.00     0.007 A 
HETATM    9  S2  UNL     1      22.471   2.206  50.177  1.00  0.00    -0.068 SA
BRANCH   8  10
HETATM   10  C12 UNL     1      22.869   4.471  48.177  1.00  0.00     0.086 C 
BRANCH  10  11
HETATM   11  C13 UNL     1      23.186   5.888  48.442  1.00  0.00    -0.046 A 
HETATM   12  C14 UNL     1      24.141   6.779  47.989  1.00  0.00     0.015 A 
HETATM   13  C15 UNL     1      24.161   8.097  48.465  1.00  0.00     0.050 A 
HETATM   14  S1  UNL     1      22.806   8.182  49.604  1.00  0.00    -0.113 SA
HETATM   15  C16 UNL     1      22.252   6.453  49.414  1.00  0.00     0.057 A 
ENDBRANCH  10  11
ENDBRANCH   8  10
ENDBRANCH   2   5
BRANCH   3  16
HETATM   16  C2  UNL     1      26.253   0.109  53.467  1.00  0.00     0.293 A 
HETATM   17  N2  UNL     1      26.957  -1.167  53.000  1.00  0.00    -0.023 N 
HETATM   18  C3  UNL     1      27.587  -2.382  52.618  1.00  0.00     0.218 A 
HETATM   19  H3  UNL     1      27.427  -0.309  51.933  1.00  0.00     0.284 HD
HETATM   20  C8  UNL     1      26.937  -1.193  52.982  1.00  0.00     0.265 A 
HETATM   21  C4  UNL     1      28.974  -2.156  53.117  1.00  0.00     0.017 A 
HETATM   22  C5  UNL     1      29.988  -1.351  53.778  1.00  0.00    -0.005 A 
HETATM   23  C6  UNL     1      29.020  -0.283  53.992  1.00  0.00    -0.010 A 
HETATM   24  C7  UNL     1      27.704   0.244  53.859  1.00  0.00     0.072 A 
ENDBRANCH   3  16
TORSDOF 4
ENDMDL
MODEL 7
REMARK VINA RESULT:      -6.8      3.091      8.069
REMARK  4 active torsions:
REMARK  status: ('A' for Active; 'I' for Inactive)
REMARK       I    between atoms: C1_2  and  N1_3 
REMARK    1  A    between atoms: C1_2  and  C9_12 
REMARK    2  A    between atoms: N1_3  and  C2_4 
REMARK    3  A    between atoms: C11_15  and  C12_16 
REMARK    4  A    between atoms: C12_16  and  C13_17 
ROOT
HETATM    1  O1  UNL     1      23.438   6.154  50.806  1.00  0.00    -0.265 OA
HETATM    2  C1  UNL     1      24.460   5.478  50.778  1.00  0.00     0.279 C 
HETATM    3  N1  UNL     1      25.659   5.954  50.276  1.00  0.00    -0.327 N 
HETATM    4  H1  UNL     1      26.635   5.528  50.170  1.00  0.00     0.164 HD
ENDROOT
BRANCH   2   5
HETATM    5  C9  UNL     1      24.607   4.014  51.287  1.00  0.00     0.165 A 
HETATM    6  N3  UNL     1      23.713   3.687  52.290  1.00  0.00    -0.247 NA
HETATM    7  C10 UNL     1      23.886   2.480  52.760  1.00  0.00     0.133 A 
HETATM    8  C11 UNL     1      24.808   1.570  52.378  1.00  0.00     0.007 A 
HETATM    9  S2  UNL     1      25.642   2.556  51.084  1.00  0.00    -0.068 SA
BRANCH   8  10
HETATM   10  C12 UNL     1      24.972   0.255  52.966  1.00  0.00     0.086 C 
BRANCH  10  11
HETATM   11  C13 UNL     1      26.362  -0.130  53.281  1.00  0.00    -0.046 A 
HETATM   12  C14 UNL     1      27.266  -1.041  52.767  1.00  0.00     0.015 A 
HETATM   13  C15 UNL     1      28.548  -1.155  53.322  1.00  0.00     0.050 A 
HETATM   14  S1  UNL     1      28.578   0.042  54.628  1.00  0.00    -0.113 SA
HETATM   15  C16 UNL     1      26.875   0.659  54.399  1.00  0.00     0.057 A 
ENDBRANCH  10  11
ENDBRANCH   8  10
ENDBRANCH   2   5
BRANCH   3  16
HETATM   16  C2  UNL     1      25.642   7.235  49.802  1.00  0.00     0.293 A 
HETATM   17  N2  UNL     1      26.977   7.703  49.219  1.00  0.00    -0.023 N 
HETATM   18  C3  UNL     1      28.206   8.197  48.702  1.00  0.00     0.218 A 
HETATM   19  H3  UNL     1      27.034   6.348  48.715  1.00  0.00     0.284 HD
HETATM   20  C8  UNL     1      27.007   7.706  49.241  1.00  0.00     0.265 A 
HETATM   21  C4  UNL     1      27.829   8.475  47.285  1.00  0.00     0.017 A 
HETATM   22  C5  UNL     1      26.875   8.502  46.189  1.00  0.00    -0.005 A 
HETATM   23  C6  UNL     1      25.839   7.963  47.061  1.00  0.00    -0.010 A 
HETATM   24  C7  UNL     1      25.409   7.490  48.333  1.00  0.00     0.072 A 
ENDBRANCH   3  16
TORSDOF 4
ENDMDL
MODEL 8
REMARK VINA RESULT:      -6.7      3.963      8.049
REMARK  4 active torsions:
REMARK  status: ('A' for Active; 'I' for Inactive)
REMARK       I    between atoms: C1_2  and  N1_3 
REMARK    1  A    between atoms: C1_2  and  C9_12 
REMARK    2  A    between atoms: N1_3  and  C2_4 
REMARK    3  A    between atoms: C11_15  and  C12_16 
REMARK    4  A    between atoms: C12_16  and  C13_17 
ROOT
HETATM    1  O1  UNL     1      29.590   7.467  46.820  1.00  0.00    -0.265 OA
HETATM    2  C1  UNL     1      29.458   6.476  47.529  1.00  0.00     0.279 C 
HETATM    3  N1  UNL     1      30.485   5.577  47.756  1.00  0.00    -0.327 N 
HETATM    4  H1  UNL     1      30.563   4.677  48.330  1.00  0.00     0.164 HD
ENDROOT
BRANCH   2   5
HETATM    5  C9  UNL     1      28.166   6.056  48.289  1.00  0.00     0.165 A 
HETATM    6  N3  UNL     1      28.102   4.701  48.561  1.00  0.00    -0.247 NA
HETATM    7  C10 UNL     1      26.985   4.345  49.137  1.00  0.00     0.133 A 
HETATM    8  C11 UNL     1      25.942   5.134  49.475  1.00  0.00     0.007 A 
HETATM    9  S2  UNL     1      26.608   6.731  48.886  1.00  0.00    -0.068 SA
BRANCH   8  10
HETATM   10  C12 UNL     1      24.711   4.669  50.085  1.00  0.00     0.086 C 
BRANCH  10  11
HETATM   11  C13 UNL     1      23.742   4.049  49.159  1.00  0.00    -0.046 A 
HETATM   12  C14 UNL     1      23.266   2.767  48.954  1.00  0.00     0.015 A 
HETATM   13  C15 UNL     1      22.317   2.517  47.953  1.00  0.00     0.050 A 
HETATM   14  S1  UNL     1      22.014   4.100  47.219  1.00  0.00    -0.113 SA
HETATM   15  C16 UNL     1      23.166   5.053  48.267  1.00  0.00     0.057 A 
ENDBRANCH  10  11
ENDBRANCH   8  10
ENDBRANCH   2   5
BRANCH   3  16
HETATM   16  C2  UNL     1      31.670   5.853  47.135  1.00  0.00     0.293 A 
HETATM   17  N2  UNL     1      32.906   5.563  47.990  1.00  0.00    -0.023 N 
HETATM   18  C3  UNL     1      34.081   5.345  48.758  1.00  0.00     0.218 A 
HETATM   19  H3  UNL     1      32.129   4.417  48.413  1.00  0.00     0.284 HD
HETATM   20  C8  UNL     1      32.911   5.582  48.021  1.00  0.00     0.265 A 
HETATM   21  C4  UNL     1      34.769   4.303  47.941  1.00  0.00     0.017 A 
HETATM   22  C5  UNL     1      34.853   3.419  46.791  1.00  0.00    -0.005 A 
HETATM   23  C6  UNL     1      33.569   3.906  46.306  1.00  0.00    -0.010 A 
HETATM   24  C7  UNL     1      32.430   4.749  46.441  1.00  0.00     0.072 A 
ENDBRANCH   3  16
TORSDOF 4
ENDMDL
MODEL 9
REMARK VINA RESULT:      -6.5      1.895      2.615
REMARK  4 active torsions:
REMARK  status: ('A' for Active; 'I' for Inactive)
REMARK       I    between atoms: C1_2  and  N1_3 
REMARK    1  A    between atoms: C1_2  and  C9_12 
REMARK    2  A    between atoms: N1_3  and  C2_4 
REMARK    3  A    between atoms: C11_15  and  C12_16 
REMARK    4  A    between atoms: C12_16  and  C13_17 
ROOT
HETATM    1  O1  UNL     1      23.959   4.297  50.911  1.00  0.00    -0.265 OA
HETATM    2  C1  UNL     1      25.151   4.191  50.650  1.00  0.00     0.279 C 
HETATM    3  N1  UNL     1      25.944   3.182  51.171  1.00  0.00    -0.327 N 
HETATM    4  H1  UNL     1      26.978   2.928  51.062  1.00  0.00     0.164 HD
ENDROOT
BRANCH   2   5
HETATM    5  C9  UNL     1      25.974   5.125  49.715  1.00  0.00     0.165 A 
HETATM    6  N3  UNL     1      27.065   4.503  49.135  1.00  0.00    -0.247 NA
HETATM    7  C10 UNL     1      27.789   5.310  48.407  1.00  0.00     0.133 A 
HETATM    8  C11 UNL     1      27.583   6.625  48.179  1.00  0.00     0.007 A 
HETATM    9  S2  UNL     1      26.062   6.838  49.170  1.00  0.00    -0.068 SA
BRANCH   8  10
HETATM   10  C12 UNL     1      28.448   7.477  47.384  1.00  0.00     0.086 C 
BRANCH  10  11
HETATM   11  C13 UNL     1      27.760   8.527  46.607  1.00  0.00    -0.046 A 
HETATM   12  C14 UNL     1      26.574   8.604  45.900  1.00  0.00     0.015 A 
HETATM   13  C15 UNL     1      26.212   9.793  45.255  1.00  0.00     0.050 A 
HETATM   14  S1  UNL     1      27.535  10.916  45.610  1.00  0.00    -0.113 SA
HETATM   15  C16 UNL     1      28.539   9.763  46.608  1.00  0.00     0.057 A 
ENDBRANCH  10  11
ENDBRANCH   8  10
ENDBRANCH   2   5
BRANCH   3  16
HETATM   16  C2  UNL     1      25.319   2.301  52.006  1.00  0.00     0.293 A 
HETATM   17  N2  UNL     1      25.966   0.915  52.050  1.00  0.00    -0.023 N 
HETATM   18  C3  UNL     1      26.509  -0.398  52.096  1.00  0.00     0.218 A 
HETATM   19  H3  UNL     1      27.194   1.678  51.980  1.00  0.00     0.284 HD
HETATM   20  C8  UNL     1      25.967   0.894  52.020  1.00  0.00     0.265 A 
HETATM   21  C4  UNL     1      26.907  -0.494  53.531  1.00  0.00     0.017 A 
HETATM   22  C5  UNL     1      27.021   0.052  54.873  1.00  0.00    -0.005 A 
HETATM   23  C6  UNL     1      26.410   1.300  54.433  1.00  0.00    -0.010 A 
HETATM   24  C7  UNL     1      25.831   2.105  53.412  1.00  0.00     0.072 A 
ENDBRANCH   3  16
TORSDOF 4
ENDMDL
