MODEL 1
REMARK VINA RESULT:      -8.6      0.000      0.000
REMARK  6 active torsions:
REMARK  status: ('A' for Active; 'I' for Inactive)
REMARK    1  A    between atoms: O1_2  and  C2_3 
REMARK    2  A    between atoms: C6_9  and  N3_10 
REMARK    3  A    between atoms: N3_10  and  C7_11 
REMARK    4  A    between atoms: C10_14  and  N4_15 
REMARK       I    between atoms: N4_15  and  C11_16 
REMARK       I    between atoms: C11_16  and  N5_18 
REMARK    5  A    between atoms: N5_18  and  C12_19 
REMARK    6  A    between atoms: C21_28  and  O3_29 
ROOT
HETATM    1  C7  UNL     1      27.548   6.477  48.216  1.00  0.00     0.033 A 
HETATM    2  C8  UNL     1      26.376   6.801  48.911  1.00  0.00     0.032 A 
HETATM    3  C9  UNL     1      25.710   5.848  49.635  1.00  0.00     0.032 A 
HETATM    4  C10 UNL     1      26.106   4.557  49.742  1.00  0.00     0.036 A 
HETATM    5  C17 UNL     1      27.260   4.250  49.056  1.00  0.00     0.032 A 
HETATM    6  C18 UNL     1      27.945   5.169  48.329  1.00  0.00     0.032 A 
ENDROOT
BRANCH   1   7
HETATM    7  N3  UNL     1      28.204   7.498  47.476  1.00  0.00    -0.340 N 
HETATM    8  H6  UNL     1      27.921   7.927  46.565  1.00  0.00     0.167 HD
BRANCH   7   9
HETATM    9  C6  UNL     1      29.391   7.977  48.096  1.00  0.00     0.142 A 
HETATM   10  N2  UNL     1      29.018   9.033  48.886  1.00  0.00    -0.224 NA
HETATM   11  C5  UNL     1      29.972   9.695  49.606  1.00  0.00     0.236 A 
HETATM   12  N1  UNL     1      31.259   9.301  49.528  1.00  0.00    -0.241 NA
HETATM   13  C4  UNL     1      31.636   8.258  48.750  1.00  0.00     0.075 A 
HETATM   14  C3  UNL     1      32.951   7.796  48.633  1.00  0.00     0.072 A 
HETATM   15  C19 UNL     1      30.699   7.569  48.010  1.00  0.00     0.042 A 
HETATM   16  C2  UNL     1      33.219   6.707  47.806  1.00  0.00     0.103 A 
HETATM   17  C21 UNL     1      32.222   6.089  47.112  1.00  0.00     0.102 A 
HETATM   18  C20 UNL     1      30.890   6.504  47.186  1.00  0.00     0.057 A 
BRANCH  16  19
HETATM   19  O1  UNL     1      34.568   6.338  47.772  1.00  0.00    -0.353 OA
HETATM   20  C1  UNL     1      35.117   5.589  48.832  1.00  0.00     0.210 C 
ENDBRANCH  16  19
BRANCH  17  21
HETATM   21  O3  UNL     1      32.583   5.015  46.316  1.00  0.00    -0.353 OA
HETATM   22  C22 UNL     1      32.300   3.714  46.802  1.00  0.00     0.210 C 
ENDBRANCH  17  21
ENDBRANCH   7   9
ENDBRANCH   1   7
BRANCH   4  23
HETATM   23  N4  UNL     1      25.458   3.528  50.434  1.00  0.00    -0.309 N 
HETATM   24  C11 UNL     1      25.998   2.548  51.304  1.00  0.00     0.325 C 
HETATM   25  O2  UNL     1      27.228   2.540  51.533  1.00  0.00    -0.247 OA
HETATM   26  N5  UNL     1      25.262   1.544  51.966  1.00  0.00    -0.308 N 
HETATM   27  H10 UNL     1      24.233   1.488  51.817  1.00  0.00     0.170 HD
HETATM   28  H9  UNL     1      24.418   3.395  50.344  1.00  0.00     0.170 HD
BRANCH  26  29
HETATM   29  C12 UNL     1      25.964   0.648  52.813  1.00  0.00     0.047 C 
HETATM   30  C13 UNL     1      26.519  -0.496  52.556  1.00  0.00     0.003 C 
HETATM   31  C14 UNL     1      27.536  -0.807  53.336  1.00  0.00     0.014 C 
HETATM   32  C15 UNL     1      27.184  -0.043  54.539  1.00  0.00     0.003 C 
HETATM   33  C16 UNL     1      26.227   0.849  54.250  1.00  0.00     0.030 C 
ENDBRANCH  26  29
ENDBRANCH   4  23
TORSDOF 6
ENDMDL
MODEL 2
REMARK VINA RESULT:      -8.5      1.738      2.170
REMARK  6 active torsions:
REMARK  status: ('A' for Active; 'I' for Inactive)
REMARK    1  A    between atoms: O1_2  and  C2_3 
REMARK    2  A    between atoms: C6_9  and  N3_10 
REMARK    3  A    between atoms: N3_10  and  C7_11 
REMARK    4  A    between atoms: C10_14  and  N4_15 
REMARK       I    between atoms: N4_15  and  C11_16 
REMARK       I    between atoms: C11_16  and  N5_18 
REMARK    5  A    between atoms: N5_18  and  C12_19 
REMARK    6  A    between atoms: C21_28  and  O3_29 
ROOT
HETATM    1  C7  UNL     1      26.959   6.346  48.575  1.00  0.00     0.033 A 
HETATM    2  C8  UNL     1      27.071   4.969  48.803  1.00  0.00     0.032 A 
HETATM    3  C9  UNL     1      26.250   4.344  49.705  1.00  0.00     0.032 A 
HETATM    4  C10 UNL     1      25.294   4.972  50.429  1.00  0.00     0.036 A 
HETATM    5  C17 UNL     1      25.191   6.326  50.196  1.00  0.00     0.032 A 
HETATM    6  C18 UNL     1      25.988   6.978  49.310  1.00  0.00     0.032 A 
ENDROOT
BRANCH   1   7
HETATM    7  N3  UNL     1      27.834   6.952  47.633  1.00  0.00    -0.340 N 
HETATM    8  H6  UNL     1      27.731   7.014  46.594  1.00  0.00     0.167 HD
BRANCH   7   9
HETATM    9  C6  UNL     1      28.981   7.549  48.224  1.00  0.00     0.142 A 
HETATM   10  N2  UNL     1      28.615   8.819  48.589  1.00  0.00    -0.224 NA
HETATM   11  C5  UNL     1      29.537   9.631  49.186  1.00  0.00     0.236 A 
HETATM   12  N1  UNL     1      30.787   9.174  49.405  1.00  0.00    -0.241 NA
HETATM   13  C4  UNL     1      31.157   7.920  49.047  1.00  0.00     0.075 A 
HETATM   14  C3  UNL     1      32.432   7.385  49.255  1.00  0.00     0.072 A 
HETATM   15  C19 UNL     1      30.251   7.075  48.443  1.00  0.00     0.042 A 
HETATM   16  C2  UNL     1      32.695   6.078  48.852  1.00  0.00     0.103 A 
HETATM   17  C21 UNL     1      31.731   5.317  48.260  1.00  0.00     0.102 A 
HETATM   18  C20 UNL     1      30.440   5.794  48.025  1.00  0.00     0.057 A 
BRANCH  16  19
HETATM   19  O1  UNL     1      34.003   5.655  49.113  1.00  0.00    -0.353 OA
HETATM   20  C1  UNL     1      35.056   6.075  48.276  1.00  0.00     0.210 C 
ENDBRANCH  16  19
BRANCH  17  21
HETATM   21  O3  UNL     1      32.085   4.029  47.894  1.00  0.00    -0.353 OA
HETATM   22  C22 UNL     1      32.335   3.782  46.520  1.00  0.00     0.210 C 
ENDBRANCH  17  21
ENDBRANCH   7   9
ENDBRANCH   1   7
BRANCH   4  23
HETATM   23  N4  UNL     1      24.447   4.404  51.387  1.00  0.00    -0.309 N 
HETATM   24  C11 UNL     1      24.205   3.038  51.679  1.00  0.00     0.325 C 
HETATM   25  O2  UNL     1      24.801   2.155  51.024  1.00  0.00    -0.247 OA
HETATM   26  N5  UNL     1      23.330   2.555  52.674  1.00  0.00    -0.308 N 
HETATM   27  H10 UNL     1      22.796   3.236  53.254  1.00  0.00     0.170 HD
HETATM   28  H9  UNL     1      23.867   5.015  52.018  1.00  0.00     0.170 HD
BRANCH  26  29
HETATM   29  C12 UNL     1      23.216   1.151  52.839  1.00  0.00     0.047 C 
HETATM   30  C13 UNL     1      23.998   0.306  53.437  1.00  0.00     0.003 C 
HETATM   31  C14 UNL     1      23.396  -0.767  53.914  1.00  0.00     0.014 C 
HETATM   32  C15 UNL     1      22.244  -0.843  53.006  1.00  0.00     0.003 C 
HETATM   33  C16 UNL     1      22.113   0.311  52.338  1.00  0.00     0.030 C 
ENDBRANCH  26  29
ENDBRANCH   4  23
TORSDOF 6
ENDMDL
MODEL 3
REMARK VINA RESULT:      -8.2      2.591      8.951
REMARK  6 active torsions:
REMARK  status: ('A' for Active; 'I' for Inactive)
REMARK    1  A    between atoms: O1_2  and  C2_3 
REMARK    2  A    between atoms: C6_9  and  N3_10 
REMARK    3  A    between atoms: N3_10  and  C7_11 
REMARK    4  A    between atoms: C10_14  and  N4_15 
REMARK       I    between atoms: N4_15  and  C11_16 
REMARK       I    between atoms: C11_16  and  N5_18 
REMARK    5  A    between atoms: N5_18  and  C12_19 
REMARK    6  A    between atoms: C21_28  and  O3_29 
ROOT
HETATM    1  C7  UNL     1      25.792   5.915  49.595  1.00  0.00     0.033 A 
HETATM    2  C8  UNL     1      26.328   7.166  49.269  1.00  0.00     0.032 A 
HETATM    3  C9  UNL     1      27.523   7.261  48.605  1.00  0.00     0.032 A 
HETATM    4  C10 UNL     1      28.267   6.198  48.218  1.00  0.00     0.036 A 
HETATM    5  C17 UNL     1      27.730   4.971  48.542  1.00  0.00     0.032 A 
HETATM    6  C18 UNL     1      26.548   4.841  49.199  1.00  0.00     0.032 A 
ENDROOT
BRANCH   1   7
HETATM    7  N3  UNL     1      24.551   5.865  50.286  1.00  0.00    -0.340 N 
HETATM    8  H6  UNL     1      24.153   6.557  50.961  1.00  0.00     0.167 HD
BRANCH   7   9
HETATM    9  C6  UNL     1      23.778   4.710  49.984  1.00  0.00     0.142 A 
HETATM   10  N2  UNL     1      23.161   4.957  48.785  1.00  0.00    -0.224 NA
HETATM   11  C5  UNL     1      22.341   4.005  48.249  1.00  0.00     0.236 A 
HETATM   12  N1  UNL     1      22.153   2.842  48.905  1.00  0.00    -0.241 NA
HETATM   13  C4  UNL     1      22.758   2.590  50.091  1.00  0.00     0.075 A 
HETATM   14  C3  UNL     1      22.610   1.402  50.815  1.00  0.00     0.072 A 
HETATM   15  C19 UNL     1      23.591   3.529  50.659  1.00  0.00     0.042 A 
HETATM   16  C2  UNL     1      23.290   1.252  52.021  1.00  0.00     0.103 A 
HETATM   17  C21 UNL     1      24.094   2.241  52.504  1.00  0.00     0.102 A 
HETATM   18  C20 UNL     1      24.282   3.449  51.828  1.00  0.00     0.057 A 
BRANCH  16  19
HETATM   19  O1  UNL     1      23.063   0.024  52.652  1.00  0.00    -0.353 OA
HETATM   20  C1  UNL     1      21.898  -0.165  53.422  1.00  0.00     0.210 C 
ENDBRANCH  16  19
BRANCH  17  21
HETATM   21  O3  UNL     1      24.730   2.001  53.710  1.00  0.00    -0.353 OA
HETATM   22  C22 UNL     1      26.148   1.999  53.716  1.00  0.00     0.210 C 
ENDBRANCH  17  21
ENDBRANCH   7   9
ENDBRANCH   1   7
BRANCH   4  23
HETATM   23  N4  UNL     1      29.506   6.223  47.570  1.00  0.00    -0.309 N 
HETATM   24  C11 UNL     1      30.768   5.759  48.018  1.00  0.00     0.325 C 
HETATM   25  O2  UNL     1      30.864   5.240  49.153  1.00  0.00    -0.247 OA
HETATM   26  N5  UNL     1      31.972   5.822  47.288  1.00  0.00    -0.308 N 
HETATM   27  H10 UNL     1      31.967   6.248  46.337  1.00  0.00     0.170 HD
HETATM   28  H9  UNL     1      29.596   6.635  46.605  1.00  0.00     0.170 HD
BRANCH  26  29
HETATM   29  C12 UNL     1      33.147   5.299  47.888  1.00  0.00     0.047 C 
HETATM   30  C13 UNL     1      33.648   4.103  47.857  1.00  0.00     0.003 C 
HETATM   31  C14 UNL     1      34.958   4.046  48.000  1.00  0.00     0.014 C 
HETATM   32  C15 UNL     1      35.189   5.276  48.768  1.00  0.00     0.003 C 
HETATM   33  C16 UNL     1      34.100   6.057  48.718  1.00  0.00     0.030 C 
ENDBRANCH  26  29
ENDBRANCH   4  23
TORSDOF 6
ENDMDL
MODEL 4
REMARK VINA RESULT:      -7.9      3.612     10.029
REMARK  6 active torsions:
REMARK  status: ('A' for Active; 'I' for Inactive)
REMARK    1  A    between atoms: O1_2  and  C2_3 
REMARK    2  A    between atoms: C6_9  and  N3_10 
REMARK    3  A    between atoms: N3_10  and  C7_11 
REMARK    4  A    between atoms: C10_14  and  N4_15 
REMARK       I    between atoms: N4_15  and  C11_16 
REMARK       I    between atoms: C11_16  and  N5_18 
REMARK    5  A    between atoms: N5_18  and  C12_19 
REMARK    6  A    between atoms: C21_28  and  O3_29 
ROOT
HETATM    1  C7  UNL     1      23.236   4.849  49.884  1.00  0.00     0.033 A 
HETATM    2  C8  UNL     1      24.515   4.775  49.321  1.00  0.00     0.032 A 
HETATM    3  C9  UNL     1      25.470   5.706  49.638  1.00  0.00     0.032 A 
HETATM    4  C10 UNL     1      25.274   6.739  50.490  1.00  0.00     0.036 A 
HETATM    5  C17 UNL     1      24.012   6.801  51.040  1.00  0.00     0.032 A 
HETATM    6  C18 UNL     1      23.042   5.897  50.747  1.00  0.00     0.032 A 
ENDROOT
BRANCH   1   7
HETATM    7  N3  UNL     1      22.276   3.864  49.523  1.00  0.00    -0.340 N 
HETATM    8  H6  UNL     1      21.975   3.566  48.567  1.00  0.00     0.167 HD
BRANCH   7   9
HETATM    9  C6  UNL     1      21.680   3.216  50.640  1.00  0.00     0.142 A 
HETATM   10  N2  UNL     1      20.399   3.697  50.731  1.00  0.00    -0.224 NA
HETATM   11  C5  UNL     1      19.587   3.242  51.730  1.00  0.00     0.236 A 
HETATM   12  N1  UNL     1      20.055   2.332  52.608  1.00  0.00    -0.241 NA
HETATM   13  C4  UNL     1      21.319   1.851  52.526  1.00  0.00     0.075 A 
HETATM   14  C3  UNL     1      21.860   0.901  53.398  1.00  0.00     0.072 A 
HETATM   15  C19 UNL     1      22.165   2.289  51.529  1.00  0.00     0.042 A 
HETATM   16  C2  UNL     1      23.173   0.475  53.210  1.00  0.00     0.103 A 
HETATM   17  C21 UNL     1      23.934   0.968  52.193  1.00  0.00     0.102 A 
HETATM   18  C20 UNL     1      23.451   1.918  51.289  1.00  0.00     0.057 A 
BRANCH  16  19
HETATM   19  O1  UNL     1      23.601  -0.475  54.144  1.00  0.00    -0.353 OA
HETATM   20  C1  UNL     1      22.657  -1.136  54.956  1.00  0.00     0.210 C 
ENDBRANCH  16  19
BRANCH  17  21
HETATM   21  O3  UNL     1      25.227   0.484  52.084  1.00  0.00    -0.353 OA
HETATM   22  C22 UNL     1      26.234   1.390  51.667  1.00  0.00     0.210 C 
ENDBRANCH  17  21
ENDBRANCH   7   9
ENDBRANCH   1   7
BRANCH   4  23
HETATM   23  N4  UNL     1      26.190   7.740  50.832  1.00  0.00    -0.309 N 
HETATM   24  C11 UNL     1      27.141   8.407  50.021  1.00  0.00     0.325 C 
HETATM   25  O2  UNL     1      27.232   8.108  48.809  1.00  0.00    -0.247 OA
HETATM   26  N5  UNL     1      28.027   9.414  50.455  1.00  0.00    -0.308 N 
HETATM   27  H10 UNL     1      28.010   9.709  51.453  1.00  0.00     0.170 HD
HETATM   28  H9  UNL     1      26.244   8.100  51.820  1.00  0.00     0.170 HD
BRANCH  26  29
HETATM   29  C12 UNL     1      28.910   9.985  49.501  1.00  0.00     0.047 C 
HETATM   30  C13 UNL     1      30.135   9.684  49.200  1.00  0.00     0.003 C 
HETATM   31  C14 UNL     1      30.488   9.966  47.961  1.00  0.00     0.014 C 
HETATM   32  C15 UNL     1      29.563  11.070  47.673  1.00  0.00     0.003 C 
HETATM   33  C16 UNL     1      28.593  11.105  48.597  1.00  0.00     0.030 C 
ENDBRANCH  26  29
ENDBRANCH   4  23
TORSDOF 6
ENDMDL
MODEL 5
REMARK VINA RESULT:      -7.9      6.317      9.757
REMARK  6 active torsions:
REMARK  status: ('A' for Active; 'I' for Inactive)
REMARK    1  A    between atoms: O1_2  and  C2_3 
REMARK    2  A    between atoms: C6_9  and  N3_10 
REMARK    3  A    between atoms: N3_10  and  C7_11 
REMARK    4  A    between atoms: C10_14  and  N4_15 
REMARK       I    between atoms: N4_15  and  C11_16 
REMARK       I    between atoms: C11_16  and  N5_18 
REMARK    5  A    between atoms: N5_18  and  C12_19 
REMARK    6  A    between atoms: C21_28  and  O3_29 
ROOT
HETATM    1  C7  UNL     1      22.310   2.559  51.981  1.00  0.00     0.033 A 
HETATM    2  C8  UNL     1      22.227   1.183  51.740  1.00  0.00     0.032 A 
HETATM    3  C9  UNL     1      21.216   0.670  50.970  1.00  0.00     0.032 A 
HETATM    4  C10 UNL     1      20.243   1.416  50.395  1.00  0.00     0.036 A 
HETATM    5  C17 UNL     1      20.335   2.769  50.637  1.00  0.00     0.032 A 
HETATM    6  C18 UNL     1      21.323   3.310  51.395  1.00  0.00     0.032 A 
ENDROOT
BRANCH   1   7
HETATM    7  N3  UNL     1      23.374   3.046  52.788  1.00  0.00    -0.340 N 
HETATM    8  H6  UNL     1      23.321   3.615  53.664  1.00  0.00     0.167 HD
BRANCH   7   9
HETATM    9  C6  UNL     1      24.663   2.679  52.311  1.00  0.00     0.142 A 
HETATM   10  N2  UNL     1      24.913   3.469  51.218  1.00  0.00    -0.224 NA
HETATM   11  C5  UNL     1      26.095   3.325  50.550  1.00  0.00     0.236 A 
HETATM   12  N1  UNL     1      26.994   2.413  50.973  1.00  0.00    -0.241 NA
HETATM   13  C4  UNL     1      26.755   1.629  52.052  1.00  0.00     0.075 A 
HETATM   14  C3  UNL     1      27.649   0.673  52.545  1.00  0.00     0.072 A 
HETATM   15  C19 UNL     1      25.572   1.748  52.749  1.00  0.00     0.042 A 
HETATM   16  C2  UNL     1      27.297  -0.072  53.669  1.00  0.00     0.103 A 
HETATM   17  C21 UNL     1      26.100   0.119  54.292  1.00  0.00     0.102 A 
HETATM   18  C20 UNL     1      25.165   1.057  53.848  1.00  0.00     0.057 A 
BRANCH  16  19
HETATM   19  O1  UNL     1      28.271  -0.994  54.067  1.00  0.00    -0.353 OA
HETATM   20  C1  UNL     1      29.545  -0.973  53.466  1.00  0.00     0.210 C 
ENDBRANCH  16  19
BRANCH  17  21
HETATM   21  O3  UNL     1      25.838  -0.667  55.402  1.00  0.00    -0.353 OA
HETATM   22  C22 UNL     1      24.531  -1.197  55.538  1.00  0.00     0.210 C 
ENDBRANCH  17  21
ENDBRANCH   7   9
ENDBRANCH   1   7
BRANCH   4  23
HETATM   23  N4  UNL     1      19.167   0.957  49.628  1.00  0.00    -0.309 N 
HETATM   24  C11 UNL     1      17.895   0.491  50.046  1.00  0.00     0.325 C 
HETATM   25  O2  UNL     1      17.625   0.456  51.267  1.00  0.00    -0.247 OA
HETATM   26  N5  UNL     1      16.863   0.048  49.194  1.00  0.00    -0.308 N 
HETATM   27  H10 UNL     1      17.021   0.045  48.165  1.00  0.00     0.170 HD
HETATM   28  H9  UNL     1      19.237   0.917  48.578  1.00  0.00     0.170 HD
BRANCH  26  29
HETATM   29  C12 UNL     1      15.644  -0.376  49.784  1.00  0.00     0.047 C 
HETATM   30  C13 UNL     1      15.198  -1.568  50.033  1.00  0.00     0.003 C 
HETATM   31  C14 UNL     1      14.359  -1.646  51.049  1.00  0.00     0.014 C 
HETATM   32  C15 UNL     1      13.807  -0.285  51.034  1.00  0.00     0.003 C 
HETATM   33  C16 UNL     1      14.569   0.509  50.270  1.00  0.00     0.030 C 
ENDBRANCH  26  29
ENDBRANCH   4  23
TORSDOF 6
ENDMDL
MODEL 6
REMARK VINA RESULT:      -7.9      7.350     10.833
REMARK  6 active torsions:
REMARK  status: ('A' for Active; 'I' for Inactive)
REMARK    1  A    between atoms: O1_2  and  C2_3 
REMARK    2  A    between atoms: C6_9  and  N3_10 
REMARK    3  A    between atoms: N3_10  and  C7_11 
REMARK    4  A    between atoms: C10_14  and  N4_15 
REMARK       I    between atoms: N4_15  and  C11_16 
REMARK       I    between atoms: C11_16  and  N5_18 
REMARK    5  A    between atoms: N5_18  and  C12_19 
REMARK    6  A    between atoms: C21_28  and  O3_29 
ROOT
HETATM    1  C7  UNL     1      20.959   0.691  50.918  1.00  0.00     0.033 A 
HETATM    2  C8  UNL     1      20.444   0.271  52.150  1.00  0.00     0.032 A 
HETATM    3  C9  UNL     1      19.094   0.288  52.383  1.00  0.00     0.032 A 
HETATM    4  C10 UNL     1      18.170   0.696  51.481  1.00  0.00     0.036 A 
HETATM    5  C17 UNL     1      18.687   1.105  50.272  1.00  0.00     0.032 A 
HETATM    6  C18 UNL     1      20.019   1.102  50.007  1.00  0.00     0.032 A 
ENDROOT
BRANCH   1   7
HETATM    7  N3  UNL     1      22.367   0.659  50.722  1.00  0.00    -0.340 N 
HETATM    8  H6  UNL     1      22.918   0.074  50.053  1.00  0.00     0.167 HD
BRANCH   7   9
HETATM    9  C6  UNL     1      23.079   1.561  51.560  1.00  0.00     0.142 A 
HETATM   10  N2  UNL     1      22.523   2.798  51.360  1.00  0.00    -0.224 NA
HETATM   11  C5  UNL     1      23.022   3.870  52.045  1.00  0.00     0.236 A 
HETATM   12  N1  UNL     1      24.048   3.695  52.902  1.00  0.00    -0.241 NA
HETATM   13  C4  UNL     1      24.603   2.475  53.106  1.00  0.00     0.075 A 
HETATM   14  C3  UNL     1      25.660   2.227  53.986  1.00  0.00     0.072 A 
HETATM   15  C19 UNL     1      24.123   1.373  52.431  1.00  0.00     0.042 A 
HETATM   16  C2  UNL     1      26.144   0.927  54.119  1.00  0.00     0.103 A 
HETATM   17  C21 UNL     1      25.604  -0.101  53.406  1.00  0.00     0.102 A 
HETATM   18  C20 UNL     1      24.547   0.083  52.511  1.00  0.00     0.057 A 
BRANCH  16  19
HETATM   19  O1  UNL     1      27.201   0.805  55.028  1.00  0.00    -0.353 OA
HETATM   20  C1  UNL     1      28.532   0.845  54.566  1.00  0.00     0.210 C 
ENDBRANCH  16  19
BRANCH  17  21
HETATM   21  O3  UNL     1      26.150  -1.358  53.605  1.00  0.00    -0.353 OA
HETATM   22  C22 UNL     1      26.923  -1.911  52.554  1.00  0.00     0.210 C 
ENDBRANCH  17  21
ENDBRANCH   7   9
ENDBRANCH   1   7
BRANCH   4  23
HETATM   23  N4  UNL     1      16.785   0.770  51.663  1.00  0.00    -0.309 N 
HETATM   24  C11 UNL     1      15.962   1.905  51.872  1.00  0.00     0.325 C 
HETATM   25  O2  UNL     1      16.484   3.042  51.912  1.00  0.00    -0.247 OA
HETATM   26  N5  UNL     1      14.563   1.884  52.042  1.00  0.00    -0.308 N 
HETATM   27  H10 UNL     1      14.064   0.971  52.026  1.00  0.00     0.170 HD
HETATM   28  H9  UNL     1      16.198  -0.104  51.662  1.00  0.00     0.170 HD
BRANCH  26  29
HETATM   29  C12 UNL     1      13.894   3.121  52.230  1.00  0.00     0.047 C 
HETATM   30  C13 UNL     1      13.487   3.999  51.367  1.00  0.00     0.003 C 
HETATM   31  C14 UNL     1      12.448   4.716  51.751  1.00  0.00     0.014 C 
HETATM   32  C15 UNL     1      12.617   4.657  53.209  1.00  0.00     0.003 C 
HETATM   33  C16 UNL     1      13.494   3.695  53.528  1.00  0.00     0.030 C 
ENDBRANCH  26  29
ENDBRANCH   4  23
TORSDOF 6
ENDMDL
MODEL 7
REMARK VINA RESULT:      -7.7      2.812      3.857
REMARK  6 active torsions:
REMARK  status: ('A' for Active; 'I' for Inactive)
REMARK    1  A    between atoms: O1_2  and  C2_3 
REMARK    2  A    between atoms: C6_9  and  N3_10 
REMARK    3  A    between atoms: N3_10  and  C7_11 
REMARK    4  A    between atoms: C10_14  and  N4_15 
REMARK       I    between atoms: N4_15  and  C11_16 
REMARK       I    between atoms: C11_16  and  N5_18 
REMARK    5  A    between atoms: N5_18  and  C12_19 
REMARK    6  A    between atoms: C21_28  and  O3_29 
ROOT
HETATM    1  C7  UNL     1      25.892   5.956  49.812  1.00  0.00     0.033 A 
HETATM    2  C8  UNL     1      26.341   4.693  49.406  1.00  0.00     0.032 A 
HETATM    3  C9  UNL     1      25.515   3.602  49.485  1.00  0.00     0.032 A 
HETATM    4  C10 UNL     1      24.241   3.642  49.942  1.00  0.00     0.036 A 
HETATM    5  C17 UNL     1      23.809   4.889  50.337  1.00  0.00     0.032 A 
HETATM    6  C18 UNL     1      24.601   5.991  50.273  1.00  0.00     0.032 A 
ENDROOT
BRANCH   1   7
HETATM    7  N3  UNL     1      26.784   7.058  49.715  1.00  0.00    -0.340 N 
HETATM    8  H6  UNL     1      27.286   7.560  50.484  1.00  0.00     0.167 HD
BRANCH   7   9
HETATM    9  C6  UNL     1      27.002   7.498  48.380  1.00  0.00     0.142 A 
HETATM   10  N2  UNL     1      25.784   7.902  47.900  1.00  0.00    -0.224 NA
HETATM   11  C5  UNL     1      25.696   8.375  46.622  1.00  0.00     0.236 A 
HETATM   12  N1  UNL     1      26.805   8.438  45.856  1.00  0.00    -0.241 NA
HETATM   13  C4  UNL     1      28.013   8.040  46.323  1.00  0.00     0.075 A 
HETATM   14  C3  UNL     1      29.199   8.088  45.584  1.00  0.00     0.072 A 
HETATM   15  C19 UNL     1      28.136   7.557  47.608  1.00  0.00     0.042 A 
HETATM   16  C2  UNL     1      30.386   7.659  46.173  1.00  0.00     0.103 A 
HETATM   17  C21 UNL     1      30.408   7.196  47.454  1.00  0.00     0.102 A 
HETATM   18  C20 UNL     1      29.257   7.123  48.244  1.00  0.00     0.057 A 
BRANCH  16  19
HETATM   19  O1  UNL     1      31.503   7.755  45.336  1.00  0.00    -0.353 OA
HETATM   20  C1  UNL     1      31.413   8.471  44.125  1.00  0.00     0.210 C 
ENDBRANCH  16  19
BRANCH  17  21
HETATM   21  O3  UNL     1      31.634   6.792  47.955  1.00  0.00    -0.353 OA
HETATM   22  C22 UNL     1      31.761   5.443  48.372  1.00  0.00     0.210 C 
ENDBRANCH  17  21
ENDBRANCH   7   9
ENDBRANCH   1   7
BRANCH   4  23
HETATM   23  N4  UNL     1      23.357   2.566  50.080  1.00  0.00    -0.309 N 
HETATM   24  C11 UNL     1      23.028   1.812  51.233  1.00  0.00     0.325 C 
HETATM   25  O2  UNL     1      23.570   2.092  52.326  1.00  0.00    -0.247 OA
HETATM   26  N5  UNL     1      22.115   0.738  51.279  1.00  0.00    -0.308 N 
HETATM   27  H10 UNL     1      21.631   0.447  50.404  1.00  0.00     0.170 HD
HETATM   28  H9  UNL     1      22.824   2.202  49.248  1.00  0.00     0.170 HD
BRANCH  26  29
HETATM   29  C12 UNL     1      21.896   0.099  52.526  1.00  0.00     0.047 C 
HETATM   30  C13 UNL     1      22.478  -0.930  53.060  1.00  0.00     0.003 C 
HETATM   31  C14 UNL     1      22.480  -0.944  54.379  1.00  0.00     0.014 C 
HETATM   32  C15 UNL     1      21.280  -0.143  54.649  1.00  0.00     0.003 C 
HETATM   33  C16 UNL     1      20.901   0.501  53.537  1.00  0.00     0.030 C 
ENDBRANCH  26  29
ENDBRANCH   4  23
TORSDOF 6
ENDMDL
MODEL 8
REMARK VINA RESULT:      -7.7      7.477     11.415
REMARK  6 active torsions:
REMARK  status: ('A' for Active; 'I' for Inactive)
REMARK    1  A    between atoms: O1_2  and  C2_3 
REMARK    2  A    between atoms: C6_9  and  N3_10 
REMARK    3  A    between atoms: N3_10  and  C7_11 
REMARK    4  A    between atoms: C10_14  and  N4_15 
REMARK       I    between atoms: N4_15  and  C11_16 
REMARK       I    between atoms: C11_16  and  N5_18 
REMARK    5  A    between atoms: N5_18  and  C12_19 
REMARK    6  A    between atoms: C21_28  and  O3_29 
ROOT
HETATM    1  C7  UNL     1      20.804   1.063  51.415  1.00  0.00     0.033 A 
HETATM    2  C8  UNL     1      19.625   0.805  50.706  1.00  0.00     0.032 A 
HETATM    3  C9  UNL     1      18.565   1.671  50.779  1.00  0.00     0.032 A 
HETATM    4  C10 UNL     1      18.559   2.809  51.512  1.00  0.00     0.036 A 
HETATM    5  C17 UNL     1      19.725   3.054  52.204  1.00  0.00     0.032 A 
HETATM    6  C18 UNL     1      20.794   2.218  52.155  1.00  0.00     0.032 A 
ENDROOT
BRANCH   1   7
HETATM    7  N3  UNL     1      21.876   0.135  51.312  1.00  0.00    -0.340 N 
HETATM    8  H6  UNL     1      22.297  -0.282  50.450  1.00  0.00     0.167 HD
BRANCH   7   9
HETATM    9  C6  UNL     1      22.426  -0.241  52.569  1.00  0.00     0.142 A 
HETATM   10  N2  UNL     1      21.464  -0.978  53.209  1.00  0.00    -0.224 NA
HETATM   11  C5  UNL     1      21.725  -1.472  54.456  1.00  0.00     0.236 A 
HETATM   12  N1  UNL     1      22.918  -1.227  55.034  1.00  0.00    -0.241 NA
HETATM   13  C4  UNL     1      23.874  -0.499  54.408  1.00  0.00     0.075 A 
HETATM   14  C3  UNL     1      25.132  -0.218  54.950  1.00  0.00     0.072 A 
HETATM   15  C19 UNL     1      23.643   0.014  53.150  1.00  0.00     0.042 A 
HETATM   16  C2  UNL     1      26.039   0.537  54.209  1.00  0.00     0.103 A 
HETATM   17  C21 UNL     1      25.719   1.002  52.969  1.00  0.00     0.102 A 
HETATM   18  C20 UNL     1      24.479   0.756  52.374  1.00  0.00     0.057 A 
BRANCH  16  19
HETATM   19  O1  UNL     1      27.262   0.751  54.854  1.00  0.00    -0.353 OA
HETATM   20  C1  UNL     1      28.351  -0.105  54.596  1.00  0.00     0.210 C 
ENDBRANCH  16  19
BRANCH  17  21
HETATM   21  O3  UNL     1      26.684   1.742  52.307  1.00  0.00    -0.353 OA
HETATM   22  C22 UNL     1      26.303   2.397  51.109  1.00  0.00     0.210 C 
ENDBRANCH  17  21
ENDBRANCH   7   9
ENDBRANCH   1   7
BRANCH   4  23
HETATM   23  N4  UNL     1      17.505   3.717  51.657  1.00  0.00    -0.309 N 
HETATM   24  C11 UNL     1      16.160   3.484  52.039  1.00  0.00     0.325 C 
HETATM   25  O2  UNL     1      15.789   2.318  52.300  1.00  0.00    -0.247 OA
HETATM   26  N5  UNL     1      15.161   4.470  52.164  1.00  0.00    -0.308 N 
HETATM   27  H10 UNL     1      15.398   5.463  51.956  1.00  0.00     0.170 HD
HETATM   28  H9  UNL     1      17.653   4.743  51.468  1.00  0.00     0.170 HD
BRANCH  26  29
HETATM   29  C12 UNL     1      13.864   4.061  52.570  1.00  0.00     0.047 C 
HETATM   30  C13 UNL     1      12.919   3.471  51.904  1.00  0.00     0.003 C 
HETATM   31  C14 UNL     1      12.105   2.733  52.633  1.00  0.00     0.014 C 
HETATM   32  C15 UNL     1      12.229   3.411  53.930  1.00  0.00     0.003 C 
HETATM   33  C16 UNL     1      13.291   4.228  53.918  1.00  0.00     0.030 C 
ENDBRANCH  26  29
ENDBRANCH   4  23
TORSDOF 6
ENDMDL
MODEL 9
REMARK VINA RESULT:      -7.7      1.425      1.977
REMARK  6 active torsions:
REMARK  status: ('A' for Active; 'I' for Inactive)
REMARK    1  A    between atoms: O1_2  and  C2_3 
REMARK    2  A    between atoms: C6_9  and  N3_10 
REMARK    3  A    between atoms: N3_10  and  C7_11 
REMARK    4  A    between atoms: C10_14  and  N4_15 
REMARK       I    between atoms: N4_15  and  C11_16 
REMARK       I    between atoms: C11_16  and  N5_18 
REMARK    5  A    between atoms: N5_18  and  C12_19 
REMARK    6  A    between atoms: C21_28  and  O3_29 
ROOT
HETATM    1  C7  UNL     1      28.393   6.838  47.864  1.00  0.00     0.033 A 
HETATM    2  C8  UNL     1      28.768   5.509  48.097  1.00  0.00     0.032 A 
HETATM    3  C9  UNL     1      27.888   4.626  48.664  1.00  0.00     0.032 A 
HETATM    4  C10 UNL     1      26.624   4.941  49.036  1.00  0.00     0.036 A 
HETATM    5  C17 UNL     1      26.265   6.250  48.801  1.00  0.00     0.032 A 
HETATM    6  C18 UNL     1      27.112   7.152  48.241  1.00  0.00     0.032 A 
ENDROOT
BRANCH   1   7
HETATM    7  N3  UNL     1      29.340   7.720  47.277  1.00  0.00    -0.340 N 
HETATM    8  H6  UNL     1      29.194   8.418  46.511  1.00  0.00     0.167 HD
BRANCH   7   9
HETATM    9  C6  UNL     1      30.642   7.612  47.839  1.00  0.00     0.142 A 
HETATM   10  N2  UNL     1      30.650   8.405  48.957  1.00  0.00    -0.224 NA
HETATM   11  C5  UNL     1      31.792   8.494  49.702  1.00  0.00     0.236 A 
HETATM   12  N1  UNL     1      32.888   7.805  49.326  1.00  0.00    -0.241 NA
HETATM   13  C4  UNL     1      32.889   7.020  48.222  1.00  0.00     0.075 A 
HETATM   14  C3  UNL     1      33.989   6.275  47.785  1.00  0.00     0.072 A 
HETATM   15  C19 UNL     1      31.754   6.908  47.448  1.00  0.00     0.042 A 
HETATM   16  C2  UNL     1      33.871   5.496  46.636  1.00  0.00     0.103 A 
HETATM   17  C21 UNL     1      32.703   5.449  45.936  1.00  0.00     0.102 A 
HETATM   18  C20 UNL     1      31.569   6.170  46.320  1.00  0.00     0.057 A 
BRANCH  16  19
HETATM   19  O1  UNL     1      35.035   4.797  46.301  1.00  0.00    -0.353 OA
HETATM   20  C1  UNL     1      35.155   3.432  46.631  1.00  0.00     0.210 C 
ENDBRANCH  16  19
BRANCH  17  21
HETATM   21  O3  UNL     1      32.679   4.646  44.808  1.00  0.00    -0.353 OA
HETATM   22  C22 UNL     1      33.061   5.233  43.576  1.00  0.00     0.210 C 
ENDBRANCH  17  21
ENDBRANCH   7   9
ENDBRANCH   1   7
BRANCH   4  23
HETATM   23  N4  UNL     1      25.688   4.101  49.647  1.00  0.00    -0.309 N 
HETATM   24  C11 UNL     1      25.884   3.089  50.620  1.00  0.00     0.325 C 
HETATM   25  O2  UNL     1      27.039   2.857  51.040  1.00  0.00    -0.247 OA
HETATM   26  N5  UNL     1      24.871   2.290  51.187  1.00  0.00    -0.308 N 
HETATM   27  H10 UNL     1      23.885   2.425  50.879  1.00  0.00     0.170 HD
HETATM   28  H9  UNL     1      24.667   4.167  49.397  1.00  0.00     0.170 HD
BRANCH  26  29
HETATM   29  C12 UNL     1      25.245   1.327  52.161  1.00  0.00     0.047 C 
HETATM   30  C13 UNL     1      24.867   1.185  53.394  1.00  0.00     0.003 C 
HETATM   31  C14 UNL     1      24.920  -0.051  53.851  1.00  0.00     0.014 C 
HETATM   32  C15 UNL     1      25.976  -0.601  52.992  1.00  0.00     0.003 C 
HETATM   33  C16 UNL     1      26.196   0.220  51.956  1.00  0.00     0.030 C 
ENDBRANCH  26  29
ENDBRANCH   4  23
TORSDOF 6
ENDMDL
