MODEL 1
REMARK VINA RESULT:      -7.6      0.000      0.000
REMARK  6 active torsions:
REMARK  status: ('A' for Active; 'I' for Inactive)
REMARK    1  A    between atoms: C3_4  and  C4_5 
REMARK    2  A    between atoms: C5_6  and  C6_7 
REMARK    3  A    between atoms: C6_7  and  O1_8 
REMARK    4  A    between atoms: O1_8  and  C7_9 
REMARK    5  A    between atoms: C10_12  and  N1_13 
REMARK    6  A    between atoms: N1_13  and  C11_14 
ROOT
HETATM    1  C7  UNL     1      22.764   0.096  52.800  1.00  0.00     0.090 A 
HETATM    2  C8  UNL     1      22.645  -0.672  53.967  1.00  0.00     0.041 A 
HETATM    3  C9  UNL     1      21.443  -1.196  54.424  1.00  0.00     0.032 A 
HETATM    4  C10 UNL     1      20.337  -0.918  53.657  1.00  0.00     0.035 A 
HETATM    5  C15 UNL     1      20.430  -0.159  52.497  1.00  0.00     0.056 A 
HETATM    6  C16 UNL     1      21.608   0.350  52.054  1.00  0.00     0.069 A 
HETATM    7 CL1  UNL     1      21.775   1.304  50.613  1.00  0.00    -0.081 Cl
ENDROOT
BRANCH   1   8
HETATM    8  O1  UNL     1      23.948   0.485  52.545  1.00  0.00    -0.346 OA
BRANCH   8   9
HETATM    9  C6  UNL     1      25.140   0.930  52.249  1.00  0.00     0.203 C 
BRANCH   9  10
HETATM   10  C5  UNL     1      26.265  -0.076  52.252  1.00  0.00    -0.004 C 
HETATM   11  C4  UNL     1      27.372  -0.720  52.657  1.00  0.00    -0.021 C 
BRANCH  11  12
HETATM   12  C3  UNL     1      28.026  -0.232  53.901  1.00  0.00     0.044 A 
HETATM   13  C1  UNL     1      29.497  -0.537  53.997  1.00  0.00     0.178 A 
HETATM   14  F1  UNL     1      30.148  -1.075  52.910  1.00  0.00    -0.249 F 
HETATM   15  C2  UNL     1      29.022   0.863  53.842  1.00  0.00     0.049 A 
ENDBRANCH  11  12
ENDBRANCH   9  10
ENDBRANCH   8   9
ENDBRANCH   1   8
BRANCH   4  16
HETATM   16  N1  UNL     1      19.068  -1.417  54.042  1.00  0.00    -0.341 N 
HETATM   17  H11 UNL     1      18.886  -1.660  55.062  1.00  0.00     0.167 HD
BRANCH  16  18
HETATM   18  C11 UNL     1      17.868  -1.699  53.367  1.00  0.00     0.130 A 
HETATM   19  C12 UNL     1      17.500  -3.030  53.603  1.00  0.00     0.070 A 
HETATM   20  C13 UNL     1      16.357  -3.659  53.094  1.00  0.00     0.122 A 
HETATM   21  N2  UNL     1      15.575  -2.871  52.310  1.00  0.00    -0.254 NA
HETATM   22  C14 UNL     1      15.913  -1.604  52.076  1.00  0.00     0.234 A 
HETATM   23  N3  UNL     1      17.014  -0.996  52.568  1.00  0.00    -0.225 NA
ENDBRANCH  16  18
ENDBRANCH   4  16
TORSDOF 6
ENDMDL
MODEL 2
REMARK VINA RESULT:      -7.4      4.873      9.255
REMARK  6 active torsions:
REMARK  status: ('A' for Active; 'I' for Inactive)
REMARK    1  A    between atoms: C3_4  and  C4_5 
REMARK    2  A    between atoms: C5_6  and  C6_7 
REMARK    3  A    between atoms: C6_7  and  O1_8 
REMARK    4  A    between atoms: O1_8  and  C7_9 
REMARK    5  A    between atoms: C10_12  and  N1_13 
REMARK    6  A    between atoms: N1_13  and  C11_14 
ROOT
HETATM    1  C7  UNL     1      22.229   0.642  53.140  1.00  0.00     0.090 A 
HETATM    2  C8  UNL     1      23.379   1.354  52.773  1.00  0.00     0.041 A 
HETATM    3  C9  UNL     1      24.665   0.980  53.138  1.00  0.00     0.032 A 
HETATM    4  C10 UNL     1      24.765  -0.158  53.902  1.00  0.00     0.035 A 
HETATM    5  C15 UNL     1      23.640  -0.881  54.279  1.00  0.00     0.056 A 
HETATM    6  C16 UNL     1      22.384  -0.510  53.918  1.00  0.00     0.069 A 
HETATM    7 CL1  UNL     1      20.948  -1.379  54.364  1.00  0.00    -0.081 Cl
ENDROOT
BRANCH   1   8
HETATM    8  O1  UNL     1      21.142   1.141  52.708  1.00  0.00    -0.346 OA
BRANCH   8   9
HETATM    9  C6  UNL     1      20.003   1.596  52.254  1.00  0.00     0.203 C 
BRANCH   9  10
HETATM   10  C5  UNL     1      19.062   0.588  51.641  1.00  0.00    -0.004 C 
HETATM   11  C4  UNL     1      18.117  -0.363  51.566  1.00  0.00    -0.021 C 
BRANCH  11  12
HETATM   12  C3  UNL     1      17.508  -0.820  52.844  1.00  0.00     0.044 A 
HETATM   13  C1  UNL     1      16.241  -1.617  52.686  1.00  0.00     0.178 A 
HETATM   14  F1  UNL     1      15.834  -1.996  51.427  1.00  0.00    -0.249 F 
HETATM   15  C2  UNL     1      17.484  -2.261  53.187  1.00  0.00     0.049 A 
ENDBRANCH  11  12
ENDBRANCH   9  10
ENDBRANCH   8   9
ENDBRANCH   1   8
BRANCH   4  16
HETATM   16  N1  UNL     1      26.038  -0.621  54.316  1.00  0.00    -0.341 N 
HETATM   17  H11 UNL     1      26.118  -1.555  54.821  1.00  0.00     0.167 HD
BRANCH  16  18
HETATM   18  C11 UNL     1      27.351  -0.129  54.224  1.00  0.00     0.130 A 
HETATM   19  C12 UNL     1      28.155  -1.062  53.557  1.00  0.00     0.070 A 
HETATM   20  C13 UNL     1      29.519  -0.908  53.280  1.00  0.00     0.122 A 
HETATM   21  N2  UNL     1      30.060   0.260  53.717  1.00  0.00    -0.254 NA
HETATM   22  C14 UNL     1      29.307   1.157  54.353  1.00  0.00     0.234 A 
HETATM   23  N3  UNL     1      27.992   1.009  54.618  1.00  0.00    -0.225 NA
ENDBRANCH  16  18
ENDBRANCH   4  16
TORSDOF 6
ENDMDL
MODEL 3
REMARK VINA RESULT:      -7.3      4.792      8.343
REMARK  6 active torsions:
REMARK  status: ('A' for Active; 'I' for Inactive)
REMARK    1  A    between atoms: C3_4  and  C4_5 
REMARK    2  A    between atoms: C5_6  and  C6_7 
REMARK    3  A    between atoms: C6_7  and  O1_8 
REMARK    4  A    between atoms: O1_8  and  C7_9 
REMARK    5  A    between atoms: C10_12  and  N1_13 
REMARK    6  A    between atoms: N1_13  and  C11_14 
ROOT
HETATM    1  C7  UNL     1      21.983   0.031  52.564  1.00  0.00     0.090 A 
HETATM    2  C8  UNL     1      23.070   0.781  52.093  1.00  0.00     0.041 A 
HETATM    3  C9  UNL     1      24.325   0.772  52.685  1.00  0.00     0.032 A 
HETATM    4  C10 UNL     1      24.461  -0.029  53.793  1.00  0.00     0.035 A 
HETATM    5  C15 UNL     1      23.399  -0.782  54.280  1.00  0.00     0.056 A 
HETATM    6  C16 UNL     1      22.173  -0.770  53.696  1.00  0.00     0.069 A 
HETATM    7 CL1  UNL     1      20.815  -1.691  54.265  1.00  0.00    -0.081 Cl
ENDROOT
BRANCH   1   8
HETATM    8  O1  UNL     1      20.916   0.169  51.887  1.00  0.00    -0.346 OA
BRANCH   8   9
HETATM    9  C6  UNL     1      19.806   0.361  51.224  1.00  0.00     0.203 C 
BRANCH   9  10
HETATM   10  C5  UNL     1      19.905   1.152  49.942  1.00  0.00    -0.004 C 
HETATM   11  C4  UNL     1      20.456   1.719  48.856  1.00  0.00    -0.021 C 
BRANCH  11  12
HETATM   12  C3  UNL     1      21.917   1.521  48.653  1.00  0.00     0.044 A 
HETATM   13  C1  UNL     1      22.490   2.250  47.467  1.00  0.00     0.178 A 
HETATM   14  F1  UNL     1      21.700   3.141  46.776  1.00  0.00    -0.249 F 
HETATM   15  C2  UNL     1      22.858   2.647  48.852  1.00  0.00     0.049 A 
ENDBRANCH  11  12
ENDBRANCH   9  10
ENDBRANCH   8   9
ENDBRANCH   1   8
BRANCH   4  16
HETATM   16  N1  UNL     1      25.708  -0.107  54.461  1.00  0.00    -0.341 N 
HETATM   17  H11 UNL     1      25.754   0.064  55.510  1.00  0.00     0.167 HD
BRANCH  16  18
HETATM   18  C11 UNL     1      27.029  -0.381  54.065  1.00  0.00     0.130 A 
HETATM   19  C12 UNL     1      27.841   0.723  54.352  1.00  0.00     0.070 A 
HETATM   20  C13 UNL     1      29.216   0.808  54.098  1.00  0.00     0.122 A 
HETATM   21  N2  UNL     1      29.758  -0.299  53.524  1.00  0.00    -0.254 NA
HETATM   22  C14 UNL     1      28.997  -1.357  53.246  1.00  0.00     0.234 A 
HETATM   23  N3  UNL     1      27.672  -1.439  53.492  1.00  0.00    -0.225 NA
ENDBRANCH  16  18
ENDBRANCH   4  16
TORSDOF 6
ENDMDL
MODEL 4
REMARK VINA RESULT:      -7.3      4.822      9.235
REMARK  6 active torsions:
REMARK  status: ('A' for Active; 'I' for Inactive)
REMARK    1  A    between atoms: C3_4  and  C4_5 
REMARK    2  A    between atoms: C5_6  and  C6_7 
REMARK    3  A    between atoms: C6_7  and  O1_8 
REMARK    4  A    between atoms: O1_8  and  C7_9 
REMARK    5  A    between atoms: C10_12  and  N1_13 
REMARK    6  A    between atoms: N1_13  and  C11_14 
ROOT
HETATM    1  C7  UNL     1      21.459  -0.084  52.706  1.00  0.00     0.090 A 
HETATM    2  C8  UNL     1      21.942   0.866  51.795  1.00  0.00     0.041 A 
HETATM    3  C9  UNL     1      23.265   1.285  51.750  1.00  0.00     0.032 A 
HETATM    4  C10 UNL     1      24.109   0.710  52.670  1.00  0.00     0.035 A 
HETATM    5  C15 UNL     1      23.653  -0.233  53.583  1.00  0.00     0.056 A 
HETATM    6  C16 UNL     1      22.359  -0.640  53.622  1.00  0.00     0.069 A 
HETATM    7 CL1  UNL     1      21.741  -1.813  54.743  1.00  0.00    -0.081 Cl
ENDROOT
BRANCH   1   8
HETATM    8  O1  UNL     1      20.219  -0.339  52.590  1.00  0.00    -0.346 OA
BRANCH   8   9
HETATM    9  C6  UNL     1      18.935  -0.576  52.527  1.00  0.00     0.203 C 
BRANCH   9  10
HETATM   10  C5  UNL     1      18.381  -1.594  53.494  1.00  0.00    -0.004 C 
HETATM   11  C4  UNL     1      17.752  -2.697  53.931  1.00  0.00    -0.021 C 
BRANCH  11  12
HETATM   12  C3  UNL     1      17.172  -3.603  52.902  1.00  0.00     0.044 A 
HETATM   13  C1  UNL     1      16.528  -4.847  53.453  1.00  0.00     0.178 A 
HETATM   14  F1  UNL     1      16.376  -4.983  54.814  1.00  0.00    -0.249 F 
HETATM   15  C2  UNL     1      15.705  -3.788  52.811  1.00  0.00     0.049 A 
ENDBRANCH  11  12
ENDBRANCH   9  10
ENDBRANCH   8   9
ENDBRANCH   1   8
BRANCH   4  16
HETATM   16  N1  UNL     1      25.479   1.071  52.695  1.00  0.00    -0.341 N 
HETATM   17  H11 UNL     1      25.821   1.875  52.086  1.00  0.00     0.167 HD
BRANCH  16  18
HETATM   18  C11 UNL     1      26.614   0.607  53.381  1.00  0.00     0.130 A 
HETATM   19  C12 UNL     1      27.153  -0.493  52.702  1.00  0.00     0.070 A 
HETATM   20  C13 UNL     1      28.290  -1.211  53.093  1.00  0.00     0.122 A 
HETATM   21  N2  UNL     1      28.881  -0.764  54.233  1.00  0.00    -0.254 NA
HETATM   22  C14 UNL     1      28.379   0.281  54.889  1.00  0.00     0.234 A 
HETATM   23  N3  UNL     1      27.284   0.974  54.511  1.00  0.00    -0.225 NA
ENDBRANCH  16  18
ENDBRANCH   4  16
TORSDOF 6
ENDMDL
MODEL 5
REMARK VINA RESULT:      -7.1      4.692      9.174
REMARK  6 active torsions:
REMARK  status: ('A' for Active; 'I' for Inactive)
REMARK    1  A    between atoms: C3_4  and  C4_5 
REMARK    2  A    between atoms: C5_6  and  C6_7 
REMARK    3  A    between atoms: C6_7  and  O1_8 
REMARK    4  A    between atoms: O1_8  and  C7_9 
REMARK    5  A    between atoms: C10_12  and  N1_13 
REMARK    6  A    between atoms: N1_13  and  C11_14 
ROOT
HETATM    1  C7  UNL     1      20.262  -0.340  52.981  1.00  0.00     0.090 A 
HETATM    2  C8  UNL     1      21.050  -0.594  54.112  1.00  0.00     0.041 A 
HETATM    3  C9  UNL     1      22.353  -0.137  54.259  1.00  0.00     0.032 A 
HETATM    4  C10 UNL     1      22.853   0.599  53.212  1.00  0.00     0.035 A 
HETATM    5  C15 UNL     1      22.091   0.864  52.081  1.00  0.00     0.056 A 
HETATM    6  C16 UNL     1      20.817   0.415  51.942  1.00  0.00     0.069 A 
HETATM    7 CL1  UNL     1      19.825   0.718  50.549  1.00  0.00    -0.081 Cl
ENDROOT
BRANCH   1   8
HETATM    8  O1  UNL     1      19.094  -0.840  53.032  1.00  0.00    -0.346 OA
BRANCH   8   9
HETATM    9  C6  UNL     1      17.879  -1.315  53.130  1.00  0.00     0.203 C 
BRANCH   9  10
HETATM   10  C5  UNL     1      17.735  -2.712  53.681  1.00  0.00    -0.004 C 
HETATM   11  C4  UNL     1      17.278  -3.967  53.816  1.00  0.00    -0.021 C 
BRANCH  11  12
HETATM   12  C3  UNL     1      16.217  -4.410  52.870  1.00  0.00     0.044 A 
HETATM   13  C1  UNL     1      14.994  -4.990  53.527  1.00  0.00     0.178 A 
HETATM   14  F1  UNL     1      14.868  -4.927  54.897  1.00  0.00    -0.249 F 
HETATM   15  C2  UNL     1      14.924  -3.690  52.809  1.00  0.00     0.049 A 
ENDBRANCH  11  12
ENDBRANCH   9  10
ENDBRANCH   8   9
ENDBRANCH   1   8
BRANCH   4  16
HETATM   16  N1  UNL     1      24.172   1.114  53.276  1.00  0.00    -0.341 N 
HETATM   17  H11 UNL     1      24.356   2.123  52.994  1.00  0.00     0.167 HD
BRANCH  16  18
HETATM   18  C11 UNL     1      25.422   0.594  53.655  1.00  0.00     0.130 A 
HETATM   19  C12 UNL     1      25.748  -0.488  52.828  1.00  0.00     0.070 A 
HETATM   20  C13 UNL     1      26.921  -1.249  52.911  1.00  0.00     0.122 A 
HETATM   21  N2  UNL     1      27.780  -0.865  53.893  1.00  0.00    -0.254 NA
HETATM   22  C14 UNL     1      27.482   0.162  54.687  1.00  0.00     0.234 A 
HETATM   23  N3  UNL     1      26.352   0.896  54.606  1.00  0.00    -0.225 NA
ENDBRANCH  16  18
ENDBRANCH   4  16
TORSDOF 6
ENDMDL
MODEL 6
REMARK VINA RESULT:      -7.1      6.591      9.598
REMARK  6 active torsions:
REMARK  status: ('A' for Active; 'I' for Inactive)
REMARK    1  A    between atoms: C3_4  and  C4_5 
REMARK    2  A    between atoms: C5_6  and  C6_7 
REMARK    3  A    between atoms: C6_7  and  O1_8 
REMARK    4  A    between atoms: O1_8  and  C7_9 
REMARK    5  A    between atoms: C10_12  and  N1_13 
REMARK    6  A    between atoms: N1_13  and  C11_14 
ROOT
HETATM    1  C7  UNL     1      25.332   2.823  51.098  1.00  0.00     0.090 A 
HETATM    2  C8  UNL     1      26.432   2.814  50.230  1.00  0.00     0.041 A 
HETATM    3  C9  UNL     1      26.789   3.891  49.429  1.00  0.00     0.032 A 
HETATM    4  C10 UNL     1      25.989   5.004  49.528  1.00  0.00     0.035 A 
HETATM    5  C15 UNL     1      24.893   5.037  50.382  1.00  0.00     0.056 A 
HETATM    6  C16 UNL     1      24.549   3.981  51.163  1.00  0.00     0.069 A 
HETATM    7 CL1  UNL     1      23.190   3.973  52.244  1.00  0.00    -0.081 Cl
ENDROOT
BRANCH   1   8
HETATM    8  O1  UNL     1      25.168   1.744  51.750  1.00  0.00    -0.346 OA
BRANCH   8   9
HETATM    9  C6  UNL     1      24.940   0.632  52.399  1.00  0.00     0.203 C 
BRANCH   9  10
HETATM   10  C5  UNL     1      26.081  -0.352  52.487  1.00  0.00    -0.004 C 
HETATM   11  C4  UNL     1      27.238  -0.899  52.894  1.00  0.00    -0.021 C 
BRANCH  11  12
HETATM   12  C3  UNL     1      28.005  -0.169  53.939  1.00  0.00     0.044 A 
HETATM   13  C1  UNL     1      29.488  -0.429  53.926  1.00  0.00     0.178 A 
HETATM   14  F1  UNL     1      30.036  -1.160  52.896  1.00  0.00    -0.249 F 
HETATM   15  C2  UNL     1      28.949   0.907  53.558  1.00  0.00     0.049 A 
ENDBRANCH  11  12
ENDBRANCH   9  10
ENDBRANCH   8   9
ENDBRANCH   1   8
BRANCH   4  16
HETATM   16  N1  UNL     1      26.280   6.154  48.754  1.00  0.00    -0.341 N 
HETATM   17  H11 UNL     1      25.797   6.292  47.816  1.00  0.00     0.167 HD
BRANCH  16  18
HETATM   18  C11 UNL     1      27.117   7.273  48.915  1.00  0.00     0.130 A 
HETATM   19  C12 UNL     1      28.272   7.108  48.141  1.00  0.00     0.070 A 
HETATM   20  C13 UNL     1      29.327   8.024  48.052  1.00  0.00     0.122 A 
HETATM   21  N2  UNL     1      29.169   9.149  48.799  1.00  0.00    -0.254 NA
HETATM   22  C14 UNL     1      28.075   9.318  49.540  1.00  0.00     0.234 A 
HETATM   23  N3  UNL     1      27.057   8.436  49.625  1.00  0.00    -0.225 NA
ENDBRANCH  16  18
ENDBRANCH   4  16
TORSDOF 6
ENDMDL
MODEL 7
REMARK VINA RESULT:      -7.0      6.935     10.261
REMARK  6 active torsions:
REMARK  status: ('A' for Active; 'I' for Inactive)
REMARK    1  A    between atoms: C3_4  and  C4_5 
REMARK    2  A    between atoms: C5_6  and  C6_7 
REMARK    3  A    between atoms: C6_7  and  O1_8 
REMARK    4  A    between atoms: O1_8  and  C7_9 
REMARK    5  A    between atoms: C10_12  and  N1_13 
REMARK    6  A    between atoms: N1_13  and  C11_14 
ROOT
HETATM    1  C7  UNL     1      24.757   3.860  50.774  1.00  0.00     0.090 A 
HETATM    2  C8  UNL     1      25.826   3.174  50.182  1.00  0.00     0.041 A 
HETATM    3  C9  UNL     1      26.762   3.776  49.352  1.00  0.00     0.032 A 
HETATM    4  C10 UNL     1      26.587   5.120  49.127  1.00  0.00     0.035 A 
HETATM    5  C15 UNL     1      25.535   5.823  49.703  1.00  0.00     0.056 A 
HETATM    6  C16 UNL     1      24.624   5.228  50.515  1.00  0.00     0.069 A 
HETATM    7 CL1  UNL     1      23.293   6.061  51.256  1.00  0.00    -0.081 Cl
ENDROOT
BRANCH   1   8
HETATM    8  O1  UNL     1      24.008   3.137  51.504  1.00  0.00    -0.346 OA
BRANCH   8   9
HETATM    9  C6  UNL     1      23.195   2.438  52.252  1.00  0.00     0.203 C 
BRANCH   9  10
HETATM   10  C5  UNL     1      23.743   1.167  52.853  1.00  0.00    -0.004 C 
HETATM   11  C4  UNL     1      24.611   0.178  53.121  1.00  0.00    -0.021 C 
BRANCH  11  12
HETATM   12  C3  UNL     1      25.947   0.249  52.468  1.00  0.00     0.044 A 
HETATM   13  C1  UNL     1      27.113   0.119  53.411  1.00  0.00     0.178 A 
HETATM   14  F1  UNL     1      26.883  -0.207  54.729  1.00  0.00    -0.249 F 
HETATM   15  C2  UNL     1      26.818  -0.947  52.418  1.00  0.00     0.049 A 
ENDBRANCH  11  12
ENDBRANCH   9  10
ENDBRANCH   8   9
ENDBRANCH   1   8
BRANCH   4  16
HETATM   16  N1  UNL     1      27.497   5.822  48.298  1.00  0.00    -0.341 N 
HETATM   17  H11 UNL     1      27.125   6.443  47.518  1.00  0.00     0.167 HD
BRANCH  16  18
HETATM   18  C11 UNL     1      28.897   5.929  48.231  1.00  0.00     0.130 A 
HETATM   19  C12 UNL     1      29.267   7.278  48.308  1.00  0.00     0.070 A 
HETATM   20  C13 UNL     1      30.581   7.763  48.275  1.00  0.00     0.122 A 
HETATM   21  N2  UNL     1      31.538   6.805  48.156  1.00  0.00    -0.254 NA
HETATM   22  C14 UNL     1      31.200   5.518  48.082  1.00  0.00     0.234 A 
HETATM   23  N3  UNL     1      29.934   5.051  48.115  1.00  0.00    -0.225 NA
ENDBRANCH  16  18
ENDBRANCH   4  16
TORSDOF 6
ENDMDL
MODEL 8
REMARK VINA RESULT:      -6.9      7.051     10.601
REMARK  6 active torsions:
REMARK  status: ('A' for Active; 'I' for Inactive)
REMARK    1  A    between atoms: C3_4  and  C4_5 
REMARK    2  A    between atoms: C5_6  and  C6_7 
REMARK    3  A    between atoms: C6_7  and  O1_8 
REMARK    4  A    between atoms: O1_8  and  C7_9 
REMARK    5  A    between atoms: C10_12  and  N1_13 
REMARK    6  A    between atoms: N1_13  and  C11_14 
ROOT
HETATM    1  C7  UNL     1      24.602   3.920  50.754  1.00  0.00     0.090 A 
HETATM    2  C8  UNL     1      25.698   3.200  50.258  1.00  0.00     0.041 A 
HETATM    3  C9  UNL     1      26.667   3.748  49.429  1.00  0.00     0.032 A 
HETATM    4  C10 UNL     1      26.499   5.073  49.103  1.00  0.00     0.035 A 
HETATM    5  C15 UNL     1      25.421   5.807  49.582  1.00  0.00     0.056 A 
HETATM    6  C16 UNL     1      24.477   5.266  50.393  1.00  0.00     0.069 A 
HETATM    7 CL1  UNL     1      23.112   6.141  51.017  1.00  0.00    -0.081 Cl
ENDROOT
BRANCH   1   8
HETATM    8  O1  UNL     1      23.824   3.245  51.500  1.00  0.00    -0.346 OA
BRANCH   8   9
HETATM    9  C6  UNL     1      23.052   2.576  52.316  1.00  0.00     0.203 C 
BRANCH   9  10
HETATM   10  C5  UNL     1      23.607   1.291  52.879  1.00  0.00    -0.004 C 
HETATM   11  C4  UNL     1      23.624   0.050  53.394  1.00  0.00    -0.021 C 
BRANCH  11  12
HETATM   12  C3  UNL     1      22.311  -0.621  53.597  1.00  0.00     0.044 A 
HETATM   13  C1  UNL     1      22.202  -1.413  54.872  1.00  0.00     0.178 A 
HETATM   14  F1  UNL     1      23.213  -1.337  55.803  1.00  0.00    -0.249 F 
HETATM   15  C2  UNL     1      21.403  -0.174  54.679  1.00  0.00     0.049 A 
ENDBRANCH  11  12
ENDBRANCH   9  10
ENDBRANCH   8   9
ENDBRANCH   1   8
BRANCH   4  16
HETATM   16  N1  UNL     1      27.442   5.720  48.267  1.00  0.00    -0.341 N 
HETATM   17  H11 UNL     1      27.124   6.140  47.342  1.00  0.00     0.167 HD
BRANCH  16  18
HETATM   18  C11 UNL     1      28.821   5.985  48.347  1.00  0.00     0.130 A 
HETATM   19  C12 UNL     1      29.033   7.369  48.332  1.00  0.00     0.070 A 
HETATM   20  C13 UNL     1      30.281   8.000  48.400  1.00  0.00     0.122 A 
HETATM   21  N2  UNL     1      31.342   7.155  48.483  1.00  0.00    -0.254 NA
HETATM   22  C14 UNL     1      31.155   5.836  48.498  1.00  0.00     0.234 A 
HETATM   23  N3  UNL     1      29.952   5.227  48.434  1.00  0.00    -0.225 NA
ENDBRANCH  16  18
ENDBRANCH   4  16
TORSDOF 6
ENDMDL
MODEL 9
REMARK VINA RESULT:      -6.8      5.048      9.132
REMARK  6 active torsions:
REMARK  status: ('A' for Active; 'I' for Inactive)
REMARK    1  A    between atoms: C3_4  and  C4_5 
REMARK    2  A    between atoms: C5_6  and  C6_7 
REMARK    3  A    between atoms: C6_7  and  O1_8 
REMARK    4  A    between atoms: O1_8  and  C7_9 
REMARK    5  A    between atoms: C10_12  and  N1_13 
REMARK    6  A    between atoms: N1_13  and  C11_14 
ROOT
HETATM    1  C7  UNL     1      21.744   0.073  52.905  1.00  0.00     0.090 A 
HETATM    2  C8  UNL     1      22.055   0.902  51.819  1.00  0.00     0.041 A 
HETATM    3  C9  UNL     1      23.343   1.329  51.521  1.00  0.00     0.032 A 
HETATM    4  C10 UNL     1      24.332   0.888  52.367  1.00  0.00     0.035 A 
HETATM    5  C15 UNL     1      24.048   0.066  53.451  1.00  0.00     0.056 A 
HETATM    6  C16 UNL     1      22.787  -0.348  53.737  1.00  0.00     0.069 A 
HETATM    7 CL1  UNL     1      22.381  -1.374  55.078  1.00  0.00    -0.081 Cl
ENDROOT
BRANCH   1   8
HETATM    8  O1  UNL     1      20.509  -0.210  53.012  1.00  0.00    -0.346 OA
BRANCH   8   9
HETATM    9  C6  UNL     1      19.255  -0.552  53.156  1.00  0.00     0.203 C 
BRANCH   9  10
HETATM   10  C5  UNL     1      18.355  -0.362  51.960  1.00  0.00    -0.004 C 
HETATM   11  C4  UNL     1      17.915   0.110  50.783  1.00  0.00    -0.021 C 
BRANCH  11  12
HETATM   12  C3  UNL     1      18.775   1.104  50.084  1.00  0.00     0.044 A 
HETATM   13  C1  UNL     1      18.025   2.236  49.435  1.00  0.00     0.178 A 
HETATM   14  F1  UNL     1      16.672   2.365  49.657  1.00  0.00    -0.249 F 
HETATM   15  C2  UNL     1      18.901   2.483  50.611  1.00  0.00     0.049 A 
ENDBRANCH  11  12
ENDBRANCH   9  10
ENDBRANCH   8   9
ENDBRANCH   1   8
BRANCH   4  16
HETATM   16  N1  UNL     1      25.678   1.266  52.138  1.00  0.00    -0.341 N 
HETATM   17  H11 UNL     1      25.904   1.960  51.363  1.00  0.00     0.167 HD
BRANCH  16  18
HETATM   18  C11 UNL     1      26.913   0.939  52.724  1.00  0.00     0.130 A 
HETATM   19  C12 UNL     1      27.548   2.109  53.160  1.00  0.00     0.070 A 
HETATM   20  C13 UNL     1      28.795   2.167  53.795  1.00  0.00     0.122 A 
HETATM   21  N2  UNL     1      29.398   0.962  53.977  1.00  0.00    -0.254 NA
HETATM   22  C14 UNL     1      28.806  -0.158  53.566  1.00  0.00     0.234 A 
HETATM   23  N3  UNL     1      27.603  -0.215  52.956  1.00  0.00    -0.225 NA
ENDBRANCH  16  18
ENDBRANCH   4  16
TORSDOF 6
ENDMDL
