MODEL 1
REMARK VINA RESULT:      -8.7      0.000      0.000
REMARK  0 active torsions:
REMARK  status: ('A' for Active; 'I' for Inactive)
ROOT
HETATM    1  C1  UNL     1      26.273   2.598  49.648  1.00  0.00     0.150 C 
HETATM    2  N1  UNL     1      25.563   3.071  50.819  1.00  0.00    -0.381 N 
HETATM    3  C2  UNL     1      24.744   4.247  50.677  1.00  0.00     0.149 C 
HETATM    4  C3  UNL     1      23.559   4.052  49.810  1.00  0.00     0.187 C 
HETATM    5  O1  UNL     1      22.720   3.083  50.337  1.00  0.00    -0.389 OA
HETATM    6  C4  UNL     1      21.596   2.927  49.533  1.00  0.00     0.177 C 
HETATM    7  C5  UNL     1      20.574   1.980  49.960  1.00  0.00     0.056 C 
HETATM    8  C6  UNL     1      20.131   2.086  51.452  1.00  0.00    -0.021 C 
HETATM    9  C7  UNL     1      20.355   3.041  52.317  1.00  0.00     0.148 C 
HETATM   10  O2  UNL     1      21.568   2.343  52.558  1.00  0.00    -0.324 OA
HETATM   11  C8  UNL     1      21.809   1.179  51.845  1.00  0.00     0.084 C 
HETATM   12  C9  UNL     1      22.768   0.545  52.449  1.00  0.00     0.060 C 
HETATM   13  C10 UNL     1      22.344  -0.493  53.401  1.00  0.00     0.210 C 
HETATM   14  N2  UNL     1      21.004  -0.491  53.854  1.00  0.00    -0.272 NA
HETATM   15  C11 UNL     1      19.853  -0.595  53.253  1.00  0.00     0.246 C 
HETATM   16  O3  UNL     1      19.302  -0.177  52.018  1.00  0.00    -0.335 OA
HETATM   17  C12 UNL     1      19.610   0.695  51.042  1.00  0.00     0.172 C 
HETATM   18  C13 UNL     1      21.093   0.669  50.566  1.00  0.00     0.089 C 
HETATM   19  N3  UNL     1      24.163   0.578  52.424  1.00  0.00    -0.354 N 
HETATM   20  C14 UNL     1      25.435   1.160  52.592  1.00  0.00     0.061 A 
HETATM   21  C15 UNL     1      26.137   0.547  53.598  1.00  0.00     0.058 A 
HETATM   22  C16 UNL     1      27.411   0.901  53.980  1.00  0.00     0.074 A 
HETATM   23 CL1  UNL     1      28.306   0.135  55.247  1.00  0.00    -0.081 Cl
HETATM   24  C17 UNL     1      27.954   1.941  53.267  1.00  0.00     0.140 A 
HETATM   25  F1  UNL     1      29.204   2.323  53.610  1.00  0.00    -0.204 F 
HETATM   26  C18 UNL     1      27.244   2.574  52.237  1.00  0.00     0.075 A 
HETATM   27  C19 UNL     1      25.943   2.196  51.867  1.00  0.00     0.060 A 
HETATM   28  H17 UNL     1      24.255  -0.424  52.081  1.00  0.00     0.166 HD
ENDROOT
TORSDOF 0
ENDMDL
MODEL 2
REMARK VINA RESULT:      -8.6      3.075      5.110
REMARK  0 active torsions:
REMARK  status: ('A' for Active; 'I' for Inactive)
ROOT
HETATM    1  C1  UNL     1      26.127  -0.401  52.278  1.00  0.00     0.150 C 
HETATM    2  N1  UNL     1      25.426   0.712  52.886  1.00  0.00    -0.381 N 
HETATM    3  C2  UNL     1      26.200   1.862  53.272  1.00  0.00     0.149 C 
HETATM    4  C3  UNL     1      26.774   2.610  52.129  1.00  0.00     0.187 C 
HETATM    5  O1  UNL     1      25.771   3.102  51.311  1.00  0.00    -0.389 OA
HETATM    6  C4  UNL     1      26.317   3.827  50.257  1.00  0.00     0.177 C 
HETATM    7  C5  UNL     1      25.404   4.464  49.317  1.00  0.00     0.056 C 
HETATM    8  C6  UNL     1      24.234   5.277  49.952  1.00  0.00    -0.021 C 
HETATM    9  C7  UNL     1      24.079   5.678  51.187  1.00  0.00     0.148 C 
HETATM   10  O2  UNL     1      23.505   4.394  51.380  1.00  0.00    -0.324 OA
HETATM   11  C8  UNL     1      23.426   3.539  50.292  1.00  0.00     0.084 C 
HETATM   12  C9  UNL     1      22.586   2.596  50.598  1.00  0.00     0.060 C 
HETATM   13  C10 UNL     1      21.203   2.804  50.143  1.00  0.00     0.210 C 
HETATM   14  N2  UNL     1      20.807   4.102  49.748  1.00  0.00    -0.272 NA
HETATM   15  C11 UNL     1      21.216   4.924  48.823  1.00  0.00     0.246 C 
HETATM   16  O3  UNL     1      22.456   5.260  48.229  1.00  0.00    -0.335 OA
HETATM   17  C12 UNL     1      23.762   5.083  48.498  1.00  0.00     0.172 C 
HETATM   18  C13 UNL     1      24.166   3.643  48.931  1.00  0.00     0.089 C 
HETATM   19  N3  UNL     1      22.653   1.373  51.265  1.00  0.00    -0.354 N 
HETATM   20  C14 UNL     1      22.875   0.523  52.366  1.00  0.00     0.061 A 
HETATM   21  C15 UNL     1      21.713  -0.082  52.773  1.00  0.00     0.058 A 
HETATM   22  C16 UNL     1      21.629  -0.970  53.823  1.00  0.00     0.074 A 
HETATM   23 CL1  UNL     1      20.169  -1.738  54.345  1.00  0.00    -0.081 Cl
HETATM   24  C17 UNL     1      22.820  -1.219  54.457  1.00  0.00     0.140 A 
HETATM   25  F1  UNL     1      22.783  -2.085  55.496  1.00  0.00    -0.204 F 
HETATM   26  C18 UNL     1      24.012  -0.606  54.048  1.00  0.00     0.075 A 
HETATM   27  C19 UNL     1      24.072   0.298  52.975  1.00  0.00     0.060 A 
HETATM   28  H17 UNL     1      22.362   0.808  50.412  1.00  0.00     0.166 HD
ENDROOT
TORSDOF 0
ENDMDL
MODEL 3
REMARK VINA RESULT:      -8.6      3.766      6.278
REMARK  0 active torsions:
REMARK  status: ('A' for Active; 'I' for Inactive)
ROOT
HETATM    1  C1  UNL     1      20.704   3.090  51.015  1.00  0.00     0.150 C 
HETATM    2  N1  UNL     1      21.400   1.848  50.748  1.00  0.00    -0.381 N 
HETATM    3  C2  UNL     1      22.357   1.832  49.673  1.00  0.00     0.149 C 
HETATM    4  C3  UNL     1      23.556   2.665  49.925  1.00  0.00     0.187 C 
HETATM    5  O1  UNL     1      24.247   2.207  51.035  1.00  0.00    -0.389 OA
HETATM    6  C4  UNL     1      25.387   2.975  51.247  1.00  0.00     0.177 C 
HETATM    7  C5  UNL     1      26.267   2.607  52.349  1.00  0.00     0.056 C 
HETATM    8  C6  UNL     1      26.638   1.094  52.444  1.00  0.00    -0.021 C 
HETATM    9  C7  UNL     1      26.481   0.145  51.559  1.00  0.00     0.148 C 
HETATM   10  O2  UNL     1      25.184   0.029  52.125  1.00  0.00    -0.324 OA
HETATM   11  C8  UNL     1      24.847   0.869  53.175  1.00  0.00     0.084 C 
HETATM   12  C9  UNL     1      23.789   0.375  53.744  1.00  0.00     0.060 C 
HETATM   13  C10 UNL     1      24.037  -0.481  54.915  1.00  0.00     0.210 C 
HETATM   14  N2  UNL     1      25.342  -0.988  55.120  1.00  0.00    -0.272 NA
HETATM   15  C11 UNL     1      26.504  -0.428  55.304  1.00  0.00     0.246 C 
HETATM   16  O3  UNL     1      27.166   0.733  54.837  1.00  0.00    -0.335 OA
HETATM   17  C12 UNL     1      27.014   1.625  53.841  1.00  0.00     0.172 C 
HETATM   18  C13 UNL     1      25.567   2.163  53.640  1.00  0.00     0.089 C 
HETATM   19  N3  UNL     1      22.411   0.454  53.539  1.00  0.00    -0.354 N 
HETATM   20  C14 UNL     1      21.209   0.279  52.826  1.00  0.00     0.061 A 
HETATM   21  C15 UNL     1      20.387  -0.627  53.446  1.00  0.00     0.058 A 
HETATM   22  C16 UNL     1      19.144  -0.990  52.978  1.00  0.00     0.074 A 
HETATM   23 CL1  UNL     1      18.099  -2.133  53.751  1.00  0.00    -0.081 Cl
HETATM   24  C17 UNL     1      18.766  -0.367  51.815  1.00  0.00     0.140 A 
HETATM   25  F1  UNL     1      17.551  -0.696  51.319  1.00  0.00    -0.204 F 
HETATM   26  C18 UNL     1      19.599   0.561  51.175  1.00  0.00     0.075 A 
HETATM   27  C19 UNL     1      20.864   0.913  51.670  1.00  0.00     0.060 A 
HETATM   28  H17 UNL     1      22.222   0.903  54.484  1.00  0.00     0.166 HD
ENDROOT
TORSDOF 0
ENDMDL
MODEL 4
REMARK VINA RESULT:      -8.5      3.687      5.953
REMARK  0 active torsions:
REMARK  status: ('A' for Active; 'I' for Inactive)
ROOT
HETATM    1  C1  UNL     1      24.342   5.230  50.390  1.00  0.00     0.150 C 
HETATM    2  N1  UNL     1      24.374   3.828  50.025  1.00  0.00    -0.381 N 
HETATM    3  C2  UNL     1      25.601   3.302  49.488  1.00  0.00     0.149 C 
HETATM    4  C3  UNL     1      26.716   3.263  50.463  1.00  0.00     0.187 C 
HETATM    5  O1  UNL     1      26.403   2.440  51.533  1.00  0.00    -0.389 OA
HETATM    6  C4  UNL     1      27.465   2.386  52.429  1.00  0.00     0.177 C 
HETATM    7  C5  UNL     1      27.333   1.525  53.598  1.00  0.00     0.056 C 
HETATM    8  C6  UNL     1      26.817   0.079  53.320  1.00  0.00    -0.021 C 
HETATM    9  C7  UNL     1      26.711  -0.559  52.184  1.00  0.00     0.148 C 
HETATM   10  O2  UNL     1      25.446   0.082  52.106  1.00  0.00    -0.324 OA
HETATM   11  C8  UNL     1      25.066   0.913  53.148  1.00  0.00     0.084 C 
HETATM   12  C9  UNL     1      23.786   1.108  53.042  1.00  0.00     0.060 C 
HETATM   13  C10 UNL     1      22.938   0.218  53.852  1.00  0.00     0.210 C 
HETATM   14  N2  UNL     1      23.506  -0.964  54.380  1.00  0.00    -0.272 NA
HETATM   15  C11 UNL     1      24.498  -1.199  55.192  1.00  0.00     0.246 C 
HETATM   16  O3  UNL     1      25.767  -0.626  55.449  1.00  0.00    -0.335 OA
HETATM   17  C12 UNL     1      26.609   0.228  54.840  1.00  0.00     0.172 C 
HETATM   18  C13 UNL     1      25.953   1.519  54.268  1.00  0.00     0.089 C 
HETATM   19  N3  UNL     1      22.960   1.986  52.341  1.00  0.00    -0.354 N 
HETATM   20  C14 UNL     1      22.400   2.580  51.192  1.00  0.00     0.061 A 
HETATM   21  C15 UNL     1      21.062   2.301  51.086  1.00  0.00     0.058 A 
HETATM   22  C16 UNL     1      20.255   2.754  50.067  1.00  0.00     0.074 A 
HETATM   23 CL1  UNL     1      18.567   2.407  49.922  1.00  0.00    -0.081 Cl
HETATM   24  C17 UNL     1      20.896   3.531  49.133  1.00  0.00     0.140 A 
HETATM   25  F1  UNL     1      20.140   3.997  48.113  1.00  0.00    -0.204 F 
HETATM   26  C18 UNL     1      22.263   3.822  49.234  1.00  0.00     0.075 A 
HETATM   27  C19 UNL     1      23.066   3.345  50.282  1.00  0.00     0.060 A 
HETATM   28  H17 UNL     1      22.550   2.421  53.221  1.00  0.00     0.166 HD
ENDROOT
TORSDOF 0
ENDMDL
MODEL 5
REMARK VINA RESULT:      -8.3      4.864      7.716
REMARK  0 active torsions:
REMARK  status: ('A' for Active; 'I' for Inactive)
ROOT
HETATM    1  C1  UNL     1      15.596   0.978  52.248  1.00  0.00     0.150 C 
HETATM    2  N1  UNL     1      16.549   0.223  51.459  1.00  0.00    -0.381 N 
HETATM    3  C2  UNL     1      16.945   0.765  50.186  1.00  0.00     0.149 C 
HETATM    4  C3  UNL     1      17.738   2.012  50.286  1.00  0.00     0.187 C 
HETATM    5  O1  UNL     1      18.921   1.788  50.972  1.00  0.00    -0.389 OA
HETATM    6  C4  UNL     1      19.672   2.957  51.036  1.00  0.00     0.177 C 
HETATM    7  C5  UNL     1      20.977   2.899  51.682  1.00  0.00     0.056 C 
HETATM    8  C6  UNL     1      21.897   1.715  51.248  1.00  0.00    -0.021 C 
HETATM    9  C7  UNL     1      21.781   0.908  50.226  1.00  0.00     0.148 C 
HETATM   10  O2  UNL     1      20.951   0.155  51.098  1.00  0.00    -0.324 OA
HETATM   11  C8  UNL     1      20.756   0.624  52.387  1.00  0.00     0.084 C 
HETATM   12  C9  UNL     1      20.271  -0.356  53.089  1.00  0.00     0.060 C 
HETATM   13  C10 UNL     1      21.255  -1.138  53.853  1.00  0.00     0.210 C 
HETATM   14  N2  UNL     1      22.623  -1.023  53.515  1.00  0.00    -0.272 NA
HETATM   15  C11 UNL     1      23.462  -0.026  53.490  1.00  0.00     0.246 C 
HETATM   16  O3  UNL     1      23.401   1.354  53.181  1.00  0.00    -0.335 OA
HETATM   17  C12 UNL     1      22.552   2.191  52.559  1.00  0.00     0.172 C 
HETATM   18  C13 UNL     1      21.053   2.039  52.952  1.00  0.00     0.089 C 
HETATM   19  N3  UNL     1      19.003  -0.882  53.333  1.00  0.00    -0.354 N 
HETATM   20  C14 UNL     1      17.781  -1.495  52.991  1.00  0.00     0.061 A 
HETATM   21  C15 UNL     1      17.670  -2.739  53.556  1.00  0.00     0.058 A 
HETATM   22  C16 UNL     1      16.580  -3.566  53.399  1.00  0.00     0.074 A 
HETATM   23 CL1  UNL     1      16.429  -5.138  54.106  1.00  0.00    -0.081 Cl
HETATM   24  C17 UNL     1      15.578  -3.049  52.616  1.00  0.00     0.140 A 
HETATM   25  F1  UNL     1      14.488  -3.829  52.434  1.00  0.00    -0.204 F 
HETATM   26  C18 UNL     1      15.682  -1.778  52.035  1.00  0.00     0.075 A 
HETATM   27  C19 UNL     1      16.806  -0.954  52.208  1.00  0.00     0.060 A 
HETATM   28  H17 UNL     1      19.038  -0.680  54.376  1.00  0.00     0.166 HD
ENDROOT
TORSDOF 0
ENDMDL
MODEL 6
REMARK VINA RESULT:      -8.2      1.843      4.027
REMARK  0 active torsions:
REMARK  status: ('A' for Active; 'I' for Inactive)
ROOT
HETATM    1  C1  UNL     1      23.445  -0.690  55.243  1.00  0.00     0.150 C 
HETATM    2  N1  UNL     1      23.694  -0.519  53.826  1.00  0.00    -0.381 N 
HETATM    3  C2  UNL     1      22.880  -1.270  52.906  1.00  0.00     0.149 C 
HETATM    4  C3  UNL     1      21.456  -0.861  52.893  1.00  0.00     0.187 C 
HETATM    5  O1  UNL     1      21.329   0.461  52.499  1.00  0.00    -0.389 OA
HETATM    6  C4  UNL     1      19.987   0.827  52.461  1.00  0.00     0.177 C 
HETATM    7  C5  UNL     1      19.657   2.176  52.017  1.00  0.00     0.056 C 
HETATM    8  C6  UNL     1      20.360   2.650  50.708  1.00  0.00    -0.021 C 
HETATM    9  C7  UNL     1      21.011   1.950  49.816  1.00  0.00     0.148 C 
HETATM   10  O2  UNL     1      22.122   2.152  50.677  1.00  0.00    -0.324 OA
HETATM   11  C8  UNL     1      21.931   2.894  51.832  1.00  0.00     0.084 C 
HETATM   12  C9  UNL     1      23.104   3.235  52.273  1.00  0.00     0.060 C 
HETATM   13  C10 UNL     1      23.574   4.568  51.864  1.00  0.00     0.210 C 
HETATM   14  N2  UNL     1      22.930   5.212  50.783  1.00  0.00    -0.272 NA
HETATM   15  C11 UNL     1      21.704   5.598  50.568  1.00  0.00     0.246 C 
HETATM   16  O3  UNL     1      20.411   5.119  50.888  1.00  0.00    -0.335 OA
HETATM   17  C12 UNL     1      19.860   3.972  51.322  1.00  0.00     0.172 C 
HETATM   18  C13 UNL     1      20.593   3.287  52.513  1.00  0.00     0.089 C 
HETATM   19  N3  UNL     1      24.080   2.652  53.082  1.00  0.00    -0.354 N 
HETATM   20  C14 UNL     1      25.040   1.684  53.438  1.00  0.00     0.061 A 
HETATM   21  C15 UNL     1      26.304   2.215  53.450  1.00  0.00     0.058 A 
HETATM   22  C16 UNL     1      27.440   1.503  53.767  1.00  0.00     0.074 A 
HETATM   23 CL1  UNL     1      29.039   2.161  53.785  1.00  0.00    -0.081 Cl
HETATM   24  C17 UNL     1      27.219   0.185  54.083  1.00  0.00     0.140 A 
HETATM   25  F1  UNL     1      28.307  -0.552  54.400  1.00  0.00    -0.204 F 
HETATM   26  C18 UNL     1      25.930  -0.366  54.074  1.00  0.00     0.075 A 
HETATM   27  C19 UNL     1      24.787   0.381  53.743  1.00  0.00     0.060 A 
HETATM   28  H17 UNL     1      24.020   3.407  53.827  1.00  0.00     0.166 HD
ENDROOT
TORSDOF 0
ENDMDL
MODEL 7
REMARK VINA RESULT:      -8.2      3.709      5.285
REMARK  0 active torsions:
REMARK  status: ('A' for Active; 'I' for Inactive)
ROOT
HETATM    1  C1  UNL     1      23.797   6.604  47.559  1.00  0.00     0.150 C 
HETATM    2  N1  UNL     1      24.390   6.646  48.881  1.00  0.00    -0.381 N 
HETATM    3  C2  UNL     1      23.571   7.111  49.969  1.00  0.00     0.149 C 
HETATM    4  C3  UNL     1      22.446   6.208  50.302  1.00  0.00     0.187 C 
HETATM    5  O1  UNL     1      22.914   4.967  50.702  1.00  0.00    -0.389 OA
HETATM    6  C4  UNL     1      21.853   4.135  51.041  1.00  0.00     0.177 C 
HETATM    7  C5  UNL     1      22.160   2.798  51.534  1.00  0.00     0.056 C 
HETATM    8  C6  UNL     1      23.253   2.719  52.644  1.00  0.00    -0.021 C 
HETATM    9  C7  UNL     1      23.766   3.677  53.371  1.00  0.00     0.148 C 
HETATM   10  O2  UNL     1      24.659   3.835  52.278  1.00  0.00    -0.324 OA
HETATM   11  C8  UNL     1      24.519   2.988  51.189  1.00  0.00     0.084 C 
HETATM   12  C9  UNL     1      25.610   3.072  50.489  1.00  0.00     0.060 C 
HETATM   13  C10 UNL     1      26.624   2.043  50.766  1.00  0.00     0.210 C 
HETATM   14  N2  UNL     1      26.519   1.292  51.960  1.00  0.00    -0.272 NA
HETATM   15  C11 UNL     1      25.606   0.498  52.444  1.00  0.00     0.246 C 
HETATM   16  O3  UNL     1      24.192   0.438  52.433  1.00  0.00    -0.335 OA
HETATM   17  C12 UNL     1      23.169   1.263  52.147  1.00  0.00     0.172 C 
HETATM   18  C13 UNL     1      23.315   2.077  50.827  1.00  0.00     0.089 C 
HETATM   19  N3  UNL     1      26.095   3.910  49.485  1.00  0.00    -0.354 N 
HETATM   20  C14 UNL     1      26.518   5.134  48.930  1.00  0.00     0.061 A 
HETATM   21  C15 UNL     1      27.854   5.109  48.624  1.00  0.00     0.058 A 
HETATM   22  C16 UNL     1      28.540   6.164  48.064  1.00  0.00     0.074 A 
HETATM   23 CL1  UNL     1      30.226   6.144  47.675  1.00  0.00    -0.081 Cl
HETATM   24  C17 UNL     1      27.776   7.278  47.820  1.00  0.00     0.140 A 
HETATM   25  F1  UNL     1      28.409   8.338  47.271  1.00  0.00    -0.204 F 
HETATM   26  C18 UNL     1      26.409   7.312  48.128  1.00  0.00     0.075 A 
HETATM   27  C19 UNL     1      25.732   6.224  48.703  1.00  0.00     0.060 A 
HETATM   28  H17 UNL     1      26.166   3.131  48.765  1.00  0.00     0.166 HD
ENDROOT
TORSDOF 0
ENDMDL
MODEL 8
REMARK VINA RESULT:      -8.0      3.581      6.482
REMARK  0 active torsions:
REMARK  status: ('A' for Active; 'I' for Inactive)
ROOT
HETATM    1  C1  UNL     1      21.771   1.543  50.629  1.00  0.00     0.150 C 
HETATM    2  N1  UNL     1      22.275   1.954  51.923  1.00  0.00    -0.381 N 
HETATM    3  C2  UNL     1      21.955   1.132  53.060  1.00  0.00     0.149 C 
HETATM    4  C3  UNL     1      22.591  -0.205  53.032  1.00  0.00     0.187 C 
HETATM    5  O1  UNL     1      23.972  -0.091  53.041  1.00  0.00    -0.389 OA
HETATM    6  C4  UNL     1      24.561  -1.352  53.045  1.00  0.00     0.177 C 
HETATM    7  C5  UNL     1      26.015  -1.428  53.103  1.00  0.00     0.056 C 
HETATM    8  C6  UNL     1      26.699  -0.534  54.185  1.00  0.00    -0.021 C 
HETATM    9  C7  UNL     1      26.165   0.088  55.203  1.00  0.00     0.148 C 
HETATM   10  O2  UNL     1      25.930   1.126  54.262  1.00  0.00    -0.324 OA
HETATM   11  C8  UNL     1      26.352   0.935  52.956  1.00  0.00     0.084 C 
HETATM   12  C9  UNL     1      26.353   2.097  52.374  1.00  0.00     0.060 C 
HETATM   13  C10 UNL     1      27.645   2.801  52.361  1.00  0.00     0.210 C 
HETATM   14  N2  UNL     1      28.659   2.372  53.248  1.00  0.00    -0.272 NA
HETATM   15  C11 UNL     1      29.295   1.246  53.409  1.00  0.00     0.246 C 
HETATM   16  O3  UNL     1      28.979  -0.130  53.308  1.00  0.00    -0.335 OA
HETATM   17  C12 UNL     1      27.870  -0.888  53.247  1.00  0.00     0.172 C 
HETATM   18  C13 UNL     1      26.771  -0.389  52.263  1.00  0.00     0.089 C 
HETATM   19  N3  UNL     1      25.412   2.888  51.714  1.00  0.00    -0.354 N 
HETATM   20  C14 UNL     1      24.233   3.650  51.597  1.00  0.00     0.061 A 
HETATM   21  C15 UNL     1      24.514   4.972  51.368  1.00  0.00     0.058 A 
HETATM   22  C16 UNL     1      23.557   5.950  51.205  1.00  0.00     0.074 A 
HETATM   23 CL1  UNL     1      23.899   7.621  50.916  1.00  0.00    -0.081 Cl
HETATM   24  C17 UNL     1      22.262   5.502  51.290  1.00  0.00     0.140 A 
HETATM   25  F1  UNL     1      21.290   6.429  51.138  1.00  0.00    -0.204 F 
HETATM   26  C18 UNL     1      21.966   4.152  51.524  1.00  0.00     0.075 A 
HETATM   27  C19 UNL     1      22.960   3.174  51.688  1.00  0.00     0.060 A 
HETATM   28  H17 UNL     1      25.935   2.869  50.788  1.00  0.00     0.166 HD
ENDROOT
TORSDOF 0
ENDMDL
MODEL 9
REMARK VINA RESULT:      -7.9      2.102      4.921
REMARK  0 active torsions:
REMARK  status: ('A' for Active; 'I' for Inactive)
ROOT
HETATM    1  C1  UNL     1      20.998   0.931  53.455  1.00  0.00     0.150 C 
HETATM    2  N1  UNL     1      21.793   0.679  52.270  1.00  0.00    -0.381 N 
HETATM    3  C2  UNL     1      21.115   0.191  51.098  1.00  0.00     0.149 C 
HETATM    4  C3  UNL     1      20.186   1.172  50.490  1.00  0.00     0.187 C 
HETATM    5  O1  UNL     1      20.871   2.302  50.072  1.00  0.00    -0.389 OA
HETATM    6  C4  UNL     1      19.997   3.205  49.476  1.00  0.00     0.177 C 
HETATM    7  C5  UNL     1      20.552   4.437  48.930  1.00  0.00     0.056 C 
HETATM    8  C6  UNL     1      21.817   4.271  48.031  1.00  0.00    -0.021 C 
HETATM    9  C7  UNL     1      22.317   3.189  47.496  1.00  0.00     0.148 C 
HETATM   10  O2  UNL     1      22.986   3.054  48.741  1.00  0.00    -0.324 OA
HETATM   11  C8  UNL     1      22.776   4.025  49.708  1.00  0.00     0.084 C 
HETATM   12  C9  UNL     1      23.714   3.898  50.597  1.00  0.00     0.060 C 
HETATM   13  C10 UNL     1      24.884   4.770  50.416  1.00  0.00     0.210 C 
HETATM   14  N2  UNL     1      25.078   5.393  49.161  1.00  0.00    -0.272 NA
HETATM   15  C11 UNL     1      24.369   6.226  48.453  1.00  0.00     0.246 C 
HETATM   16  O3  UNL     1      22.993   6.444  48.205  1.00  0.00    -0.335 OA
HETATM   17  C12 UNL     1      21.839   5.774  48.375  1.00  0.00     0.172 C 
HETATM   18  C13 UNL     1      21.656   5.098  49.766  1.00  0.00     0.089 C 
HETATM   19  N3  UNL     1      23.912   3.125  51.742  1.00  0.00    -0.354 N 
HETATM   20  C14 UNL     1      24.075   1.930  52.470  1.00  0.00     0.061 A 
HETATM   21  C15 UNL     1      25.334   1.839  53.007  1.00  0.00     0.058 A 
HETATM   22  C16 UNL     1      25.775   0.783  53.772  1.00  0.00     0.074 A 
HETATM   23 CL1  UNL     1      27.360   0.657  54.453  1.00  0.00    -0.081 Cl
HETATM   24  C17 UNL     1      24.843  -0.206  53.973  1.00  0.00     0.140 A 
HETATM   25  F1  UNL     1      25.234  -1.264  54.718  1.00  0.00    -0.204 F 
HETATM   26  C18 UNL     1      23.554  -0.121  53.428  1.00  0.00     0.075 A 
HETATM   27  C19 UNL     1      23.129   0.966  52.648  1.00  0.00     0.060 A 
HETATM   28  H17 UNL     1      23.961   3.966  52.391  1.00  0.00     0.166 HD
ENDROOT
TORSDOF 0
ENDMDL
