MODEL 1
REMARK VINA RESULT:      -8.1      0.000      0.000
REMARK  3 active torsions:
REMARK  status: ('A' for Active; 'I' for Inactive)
REMARK    1  A    between atoms: C6_7  and  C7_8 
REMARK    2  A    between atoms: N2_10  and  C8_11 
REMARK    3  A    between atoms: C9_13  and  C10_14 
ROOT
HETATM    1  C8  UNL     1      25.734   2.711  50.750  1.00  0.00     0.196 A 
HETATM    2  N3  UNL     1      26.365   3.456  50.181  1.00  0.00    -0.222 NA
HETATM    3  C9  UNL     1      26.034   4.511  49.492  1.00  0.00     0.076 A 
HETATM    4  C16 UNL     1      24.606   4.741  49.467  1.00  0.00     0.086 A 
HETATM    5  S1  UNL     1      23.967   3.329  50.491  1.00  0.00    -0.060 SA
ENDROOT
BRANCH   1   6
HETATM    6  N2  UNL     1      25.733   1.506  51.610  1.00  0.00    -0.186 N 
HETATM    7  C7  UNL     1      25.608   0.440  52.443  1.00  0.00     0.182 A 
HETATM    8  N1  UNL     1      26.722   0.542  51.710  1.00  0.00    -0.143 NA
BRANCH   7   9
HETATM    9  C6  UNL     1      24.704  -0.149  53.404  1.00  0.00     0.020 A 
HETATM   10  C2  UNL     1      25.529  -0.777  54.502  1.00  0.00     0.160 A 
HETATM   11  C1  UNL     1      26.424   0.362  55.006  1.00  0.00     0.045 C 
HETATM   12  O1  UNL     1      24.763  -1.361  55.489  1.00  0.00    -0.353 OA
HETATM   13  C3  UNL     1      23.394  -1.389  55.509  1.00  0.00     0.135 A 
HETATM   14  C4  UNL     1      22.703  -0.828  54.532  1.00  0.00     0.025 A 
HETATM   15  C5  UNL     1      23.384  -0.172  53.420  1.00  0.00     0.015 A 
ENDBRANCH   7   9
ENDBRANCH   1   6
BRANCH   3  16
HETATM   16  C10 UNL     1      26.959   5.394  48.801  1.00  0.00    -0.007 A 
HETATM   17  C11 UNL     1      26.564   6.613  48.308  1.00  0.00     0.014 A 
HETATM   18  C12 UNL     1      27.398   7.488  47.645  1.00  0.00     0.001 A 
HETATM   19  C13 UNL     1      28.720   7.102  47.473  1.00  0.00     0.000 A 
HETATM   20  C14 UNL     1      29.189   5.899  47.940  1.00  0.00     0.001 A 
HETATM   21  C15 UNL     1      28.287   5.086  48.589  1.00  0.00     0.014 A 
ENDBRANCH   3  16
TORSDOF 3
ENDMDL
MODEL 2
REMARK VINA RESULT:      -7.9      4.430      8.084
REMARK  3 active torsions:
REMARK  status: ('A' for Active; 'I' for Inactive)
REMARK    1  A    between atoms: C6_7  and  C7_8 
REMARK    2  A    between atoms: N2_10  and  C8_11 
REMARK    3  A    between atoms: C9_13  and  C10_14 
ROOT
HETATM    1  C8  UNL     1      22.769   0.124  52.984  1.00  0.00     0.196 A 
HETATM    2  N3  UNL     1      21.688   0.069  52.663  1.00  0.00    -0.222 NA
HETATM    3  C9  UNL     1      20.666  -0.540  53.194  1.00  0.00     0.076 A 
HETATM    4  C16 UNL     1      21.007  -1.264  54.399  1.00  0.00     0.086 A 
HETATM    5  S1  UNL     1      22.824  -0.919  54.560  1.00  0.00    -0.060 SA
ENDROOT
BRANCH   1   6
HETATM    6  N2  UNL     1      24.108   0.687  52.698  1.00  0.00    -0.186 N 
HETATM    7  C7  UNL     1      25.380   1.141  52.550  1.00  0.00     0.182 A 
HETATM    8  N1  UNL     1      24.478   1.477  51.622  1.00  0.00    -0.143 NA
BRANCH   7   9
HETATM    9  C6  UNL     1      26.678   1.109  53.184  1.00  0.00     0.020 A 
HETATM   10  C2  UNL     1      26.878  -0.266  53.776  1.00  0.00     0.160 A 
HETATM   11  C1  UNL     1      26.663  -1.224  52.597  1.00  0.00     0.045 C 
HETATM   12  O1  UNL     1      28.100  -0.415  54.399  1.00  0.00    -0.353 OA
HETATM   13  C3  UNL     1      29.059   0.556  54.491  1.00  0.00     0.135 A 
HETATM   14  C4  UNL     1      28.851   1.749  53.961  1.00  0.00     0.025 A 
HETATM   15  C5  UNL     1      27.601   2.049  53.270  1.00  0.00     0.015 A 
ENDBRANCH   7   9
ENDBRANCH   1   6
BRANCH   3  16
HETATM   16  C10 UNL     1      19.310  -0.530  52.670  1.00  0.00    -0.007 A 
HETATM   17  C11 UNL     1      18.303  -1.255  53.256  1.00  0.00     0.014 A 
HETATM   18  C12 UNL     1      17.001  -1.282  52.802  1.00  0.00     0.001 A 
HETATM   19  C13 UNL     1      16.702  -0.520  51.681  1.00  0.00     0.000 A 
HETATM   20  C14 UNL     1      17.656   0.233  51.042  1.00  0.00     0.001 A 
HETATM   21  C15 UNL     1      18.930   0.201  51.563  1.00  0.00     0.014 A 
ENDBRANCH   3  16
TORSDOF 3
ENDMDL
MODEL 3
REMARK VINA RESULT:      -7.9      2.210      2.864
REMARK  3 active torsions:
REMARK  status: ('A' for Active; 'I' for Inactive)
REMARK    1  A    between atoms: C6_7  and  C7_8 
REMARK    2  A    between atoms: N2_10  and  C8_11 
REMARK    3  A    between atoms: C9_13  and  C10_14 
ROOT
HETATM    1  C8  UNL     1      26.296   2.869  50.836  1.00  0.00     0.196 A 
HETATM    2  N3  UNL     1      26.849   3.649  50.234  1.00  0.00    -0.222 NA
HETATM    3  C9  UNL     1      26.420   4.540  49.387  1.00  0.00     0.076 A 
HETATM    4  C16 UNL     1      24.986   4.499  49.203  1.00  0.00     0.086 A 
HETATM    5  S1  UNL     1      24.488   3.118  50.340  1.00  0.00    -0.060 SA
ENDROOT
BRANCH   1   6
HETATM    6  N2  UNL     1      26.405   1.789  51.842  1.00  0.00    -0.186 N 
HETATM    7  C7  UNL     1      26.601   0.741  52.684  1.00  0.00     0.182 A 
HETATM    8  N1  UNL     1      25.708   1.673  53.033  1.00  0.00    -0.143 NA
BRANCH   7   9
HETATM    9  C6  UNL     1      27.371  -0.474  52.825  1.00  0.00     0.020 A 
HETATM   10  C2  UNL     1      28.742  -0.105  53.342  1.00  0.00     0.160 A 
HETATM   11  C1  UNL     1      28.465   0.688  54.625  1.00  0.00     0.045 C 
HETATM   12  O1  UNL     1      29.562  -1.198  53.528  1.00  0.00    -0.353 OA
HETATM   13  C3  UNL     1      29.209  -2.498  53.284  1.00  0.00     0.135 A 
HETATM   14  C4  UNL     1      28.000  -2.785  52.833  1.00  0.00     0.025 A 
HETATM   15  C5  UNL     1      27.025  -1.726  52.589  1.00  0.00     0.015 A 
ENDBRANCH   7   9
ENDBRANCH   1   6
BRANCH   3  16
HETATM   16  C10 UNL     1      27.252   5.495  48.672  1.00  0.00    -0.007 A 
HETATM   17  C11 UNL     1      28.581   5.255  48.426  1.00  0.00     0.014 A 
HETATM   18  C12 UNL     1      29.414   6.124  47.754  1.00  0.00     0.001 A 
HETATM   19  C13 UNL     1      28.862   7.314  47.301  1.00  0.00     0.000 A 
HETATM   20  C14 UNL     1      27.540   7.623  47.507  1.00  0.00     0.001 A 
HETATM   21  C15 UNL     1      26.781   6.698  48.187  1.00  0.00     0.014 A 
ENDBRANCH   3  16
TORSDOF 3
ENDMDL
MODEL 4
REMARK VINA RESULT:      -7.9      2.919      8.581
REMARK  3 active torsions:
REMARK  status: ('A' for Active; 'I' for Inactive)
REMARK    1  A    between atoms: C6_7  and  C7_8 
REMARK    2  A    between atoms: N2_10  and  C8_11 
REMARK    3  A    between atoms: C9_13  and  C10_14 
ROOT
HETATM    1  C8  UNL     1      24.943   2.428  51.121  1.00  0.00     0.196 A 
HETATM    2  N3  UNL     1      24.170   1.814  51.669  1.00  0.00    -0.222 NA
HETATM    3  C9  UNL     1      24.298   0.845  52.530  1.00  0.00     0.076 A 
HETATM    4  C16 UNL     1      25.679   0.519  52.808  1.00  0.00     0.086 A 
HETATM    5  S1  UNL     1      26.589   1.727  51.731  1.00  0.00    -0.060 SA
ENDROOT
BRANCH   1   6
HETATM    6  N2  UNL     1      25.181   3.540  50.173  1.00  0.00    -0.186 N 
HETATM    7  C7  UNL     1      25.534   4.551  49.336  1.00  0.00     0.182 A 
HETATM    8  N1  UNL     1      24.244   4.207  49.403  1.00  0.00    -0.143 NA
BRANCH   7   9
HETATM    9  C6  UNL     1      26.683   5.302  48.884  1.00  0.00     0.020 A 
HETATM   10  C2  UNL     1      26.282   6.754  48.774  1.00  0.00     0.160 A 
HETATM   11  C1  UNL     1      25.732   7.105  50.162  1.00  0.00     0.045 C 
HETATM   12  O1  UNL     1      27.313   7.571  48.361  1.00  0.00    -0.353 OA
HETATM   13  C3  UNL     1      28.583   7.150  48.073  1.00  0.00     0.135 A 
HETATM   14  C4  UNL     1      28.901   5.871  48.181  1.00  0.00     0.025 A 
HETATM   15  C5  UNL     1      27.907   4.891  48.609  1.00  0.00     0.015 A 
ENDBRANCH   7   9
ENDBRANCH   1   6
BRANCH   3  16
HETATM   16  C10 UNL     1      23.204   0.130  53.168  1.00  0.00    -0.007 A 
HETATM   17  C11 UNL     1      23.411  -0.699  54.242  1.00  0.00     0.014 A 
HETATM   18  C12 UNL     1      22.411  -1.399  54.884  1.00  0.00     0.001 A 
HETATM   19  C13 UNL     1      21.118  -1.246  54.406  1.00  0.00     0.000 A 
HETATM   20  C14 UNL     1      20.833  -0.433  53.337  1.00  0.00     0.001 A 
HETATM   21  C15 UNL     1      21.891   0.229  52.755  1.00  0.00     0.014 A 
ENDBRANCH   3  16
TORSDOF 3
ENDMDL
MODEL 5
REMARK VINA RESULT:      -7.7      4.711      6.399
REMARK  3 active torsions:
REMARK  status: ('A' for Active; 'I' for Inactive)
REMARK    1  A    between atoms: C6_7  and  C7_8 
REMARK    2  A    between atoms: N2_10  and  C8_11 
REMARK    3  A    between atoms: C9_13  and  C10_14 
ROOT
HETATM    1  C8  UNL     1      24.031   0.981  52.330  1.00  0.00     0.196 A 
HETATM    2  N3  UNL     1      24.967   0.363  52.467  1.00  0.00    -0.222 NA
HETATM    3  C9  UNL     1      26.111   0.651  53.019  1.00  0.00     0.076 A 
HETATM    4  C16 UNL     1      26.163   2.001  53.535  1.00  0.00     0.086 A 
HETATM    5  S1  UNL     1      24.473   2.645  53.113  1.00  0.00    -0.060 SA
ENDROOT
BRANCH   1   6
HETATM    6  N2  UNL     1      22.637   1.006  51.831  1.00  0.00    -0.186 N 
HETATM    7  C7  UNL     1      21.329   0.939  51.474  1.00  0.00     0.182 A 
HETATM    8  N1  UNL     1      22.134   1.744  50.774  1.00  0.00    -0.143 NA
BRANCH   7   9
HETATM    9  C6  UNL     1      20.086   0.292  51.829  1.00  0.00     0.020 A 
HETATM   10  C2  UNL     1      20.298  -0.451  53.127  1.00  0.00     0.160 A 
HETATM   11  C1  UNL     1      20.822   0.615  54.097  1.00  0.00     0.045 C 
HETATM   12  O1  UNL     1      19.163  -1.099  53.572  1.00  0.00    -0.353 OA
HETATM   13  C3  UNL     1      17.953  -1.092  52.934  1.00  0.00     0.135 A 
HETATM   14  C4  UNL     1      17.802  -0.430  51.799  1.00  0.00     0.025 A 
HETATM   15  C5  UNL     1      18.920   0.302  51.211  1.00  0.00     0.015 A 
ENDBRANCH   7   9
ENDBRANCH   1   6
BRANCH   3  16
HETATM   16  C10 UNL     1      27.247  -0.250  53.128  1.00  0.00    -0.007 A 
HETATM   17  C11 UNL     1      28.463   0.174  53.604  1.00  0.00     0.014 A 
HETATM   18  C12 UNL     1      29.572  -0.636  53.728  1.00  0.00     0.001 A 
HETATM   19  C13 UNL     1      29.437  -1.963  53.346  1.00  0.00     0.000 A 
HETATM   20  C14 UNL     1      28.252  -2.460  52.862  1.00  0.00     0.001 A 
HETATM   21  C15 UNL     1      27.196  -1.582  52.771  1.00  0.00     0.014 A 
ENDBRANCH   3  16
TORSDOF 3
ENDMDL
MODEL 6
REMARK VINA RESULT:      -7.7      4.367      7.482
REMARK  3 active torsions:
REMARK  status: ('A' for Active; 'I' for Inactive)
REMARK    1  A    between atoms: C6_7  and  C7_8 
REMARK    2  A    between atoms: N2_10  and  C8_11 
REMARK    3  A    between atoms: C9_13  and  C10_14 
ROOT
HETATM    1  C8  UNL     1      22.946   1.548  52.252  1.00  0.00     0.196 A 
HETATM    2  N3  UNL     1      21.934   1.064  52.385  1.00  0.00    -0.222 NA
HETATM    3  C9  UNL     1      20.970   0.846  51.536  1.00  0.00     0.076 A 
HETATM    4  C16 UNL     1      21.276   1.319  50.204  1.00  0.00     0.086 A 
HETATM    5  S1  UNL     1      22.979   2.026  50.423  1.00  0.00    -0.060 SA
ENDROOT
BRANCH   1   6
HETATM    6  N2  UNL     1      24.223   1.922  52.901  1.00  0.00    -0.186 N 
HETATM    7  C7  UNL     1      25.441   2.138  53.463  1.00  0.00     0.182 A 
HETATM    8  N1  UNL     1      24.541   3.126  53.505  1.00  0.00    -0.143 NA
BRANCH   7   9
HETATM    9  C6  UNL     1      26.711   1.492  53.705  1.00  0.00     0.020 A 
HETATM   10  C2  UNL     1      26.506   0.434  54.763  1.00  0.00     0.160 A 
HETATM   11  C1  UNL     1      25.379  -0.447  54.209  1.00  0.00     0.045 C 
HETATM   12  O1  UNL     1      27.658  -0.261  55.065  1.00  0.00    -0.353 OA
HETATM   13  C3  UNL     1      28.880  -0.046  54.487  1.00  0.00     0.135 A 
HETATM   14  C4  UNL     1      29.024   0.888  53.563  1.00  0.00     0.025 A 
HETATM   15  C5  UNL     1      27.887   1.702  53.144  1.00  0.00     0.015 A 
ENDBRANCH   7   9
ENDBRANCH   1   6
BRANCH   3  16
HETATM   16  C10 UNL     1      19.702   0.204  51.843  1.00  0.00    -0.007 A 
HETATM   17  C11 UNL     1      18.623   0.295  51.000  1.00  0.00     0.014 A 
HETATM   18  C12 UNL     1      17.399  -0.293  51.241  1.00  0.00     0.001 A 
HETATM   19  C13 UNL     1      17.263  -1.022  52.414  1.00  0.00     0.000 A 
HETATM   20  C14 UNL     1      18.299  -1.159  53.306  1.00  0.00     0.001 A 
HETATM   21  C15 UNL     1      19.485  -0.539  52.986  1.00  0.00     0.014 A 
ENDBRANCH   3  16
TORSDOF 3
ENDMDL
MODEL 7
REMARK VINA RESULT:      -7.6      3.263      8.174
REMARK  3 active torsions:
REMARK  status: ('A' for Active; 'I' for Inactive)
REMARK    1  A    between atoms: C6_7  and  C7_8 
REMARK    2  A    between atoms: N2_10  and  C8_11 
REMARK    3  A    between atoms: C9_13  and  C10_14 
ROOT
HETATM    1  C8  UNL     1      26.017   2.516  51.174  1.00  0.00     0.196 A 
HETATM    2  N3  UNL     1      26.628   1.617  51.484  1.00  0.00    -0.222 NA
HETATM    3  C9  UNL     1      26.439   0.736  52.424  1.00  0.00     0.076 A 
HETATM    4  C16 UNL     1      25.234   0.975  53.187  1.00  0.00     0.086 A 
HETATM    5  S1  UNL     1      24.555   2.500  52.373  1.00  0.00    -0.060 SA
ENDROOT
BRANCH   1   6
HETATM    6  N2  UNL     1      25.886   3.643  50.223  1.00  0.00    -0.186 N 
HETATM    7  C7  UNL     1      25.902   4.696  49.365  1.00  0.00     0.182 A 
HETATM    8  N1  UNL     1      24.733   4.091  49.601  1.00  0.00    -0.143 NA
BRANCH   7   9
HETATM    9  C6  UNL     1      26.796   5.665  48.774  1.00  0.00     0.020 A 
HETATM   10  C2  UNL     1      26.077   6.992  48.713  1.00  0.00     0.160 A 
HETATM   11  C1  UNL     1      25.635   7.254  50.158  1.00  0.00     0.045 C 
HETATM   12  O1  UNL     1      26.848   8.002  48.175  1.00  0.00    -0.353 OA
HETATM   13  C3  UNL     1      28.135   7.858  47.733  1.00  0.00     0.135 A 
HETATM   14  C4  UNL     1      28.734   6.682  47.802  1.00  0.00     0.025 A 
HETATM   15  C5  UNL     1      28.038   5.522  48.349  1.00  0.00     0.015 A 
ENDBRANCH   7   9
ENDBRANCH   1   6
BRANCH   3  16
HETATM   16  C10 UNL     1      27.317  -0.385  52.720  1.00  0.00    -0.007 A 
HETATM   17  C11 UNL     1      28.537  -0.208  53.323  1.00  0.00     0.014 A 
HETATM   18  C12 UNL     1      29.408  -1.234  53.626  1.00  0.00     0.001 A 
HETATM   19  C13 UNL     1      29.013  -2.523  53.297  1.00  0.00     0.000 A 
HETATM   20  C14 UNL     1      27.806  -2.779  52.694  1.00  0.00     0.001 A 
HETATM   21  C15 UNL     1      26.999  -1.696  52.427  1.00  0.00     0.014 A 
ENDBRANCH   3  16
TORSDOF 3
ENDMDL
MODEL 8
REMARK VINA RESULT:      -7.4      1.761      2.568
REMARK  3 active torsions:
REMARK  status: ('A' for Active; 'I' for Inactive)
REMARK    1  A    between atoms: C6_7  and  C7_8 
REMARK    2  A    between atoms: N2_10  and  C8_11 
REMARK    3  A    between atoms: C9_13  and  C10_14 
ROOT
HETATM    1  C8  UNL     1      24.772   3.130  50.712  1.00  0.00     0.196 A 
HETATM    2  N3  UNL     1      25.572   3.722  50.179  1.00  0.00    -0.222 NA
HETATM    3  C9  UNL     1      25.505   4.822  49.484  1.00  0.00     0.076 A 
HETATM    4  C16 UNL     1      24.161   5.351  49.396  1.00  0.00     0.086 A 
HETATM    5  S1  UNL     1      23.190   4.110  50.378  1.00  0.00    -0.060 SA
ENDROOT
BRANCH   1   6
HETATM    6  N2  UNL     1      24.474   1.955  51.562  1.00  0.00    -0.186 N 
HETATM    7  C7  UNL     1      24.074   0.926  52.354  1.00  0.00     0.182 A 
HETATM    8  N1  UNL     1      25.333   0.924  51.904  1.00  0.00    -0.143 NA
BRANCH   7   9
HETATM    9  C6  UNL     1      22.926   0.434  53.081  1.00  0.00     0.020 A 
HETATM   10  C2  UNL     1      21.687   1.056  52.482  1.00  0.00     0.160 A 
HETATM   11  C1  UNL     1      21.763   0.700  50.992  1.00  0.00     0.045 C 
HETATM   12  O1  UNL     1      20.523   0.642  53.094  1.00  0.00    -0.353 OA
HETATM   13  C3  UNL     1      20.454  -0.241  54.138  1.00  0.00     0.135 A 
HETATM   14  C4  UNL     1      21.558  -0.768  54.637  1.00  0.00     0.025 A 
HETATM   15  C5  UNL     1      22.865  -0.419  54.087  1.00  0.00     0.015 A 
ENDBRANCH   7   9
ENDBRANCH   1   6
BRANCH   3  16
HETATM   16  C10 UNL     1      26.628   5.486  48.842  1.00  0.00    -0.007 A 
HETATM   17  C11 UNL     1      27.850   4.876  48.712  1.00  0.00     0.014 A 
HETATM   18  C12 UNL     1      28.948   5.459  48.113  1.00  0.00     0.001 A 
HETATM   19  C13 UNL     1      28.793   6.743  47.612  1.00  0.00     0.000 A 
HETATM   20  C14 UNL     1      27.599   7.417  47.703  1.00  0.00     0.001 A 
HETATM   21  C15 UNL     1      26.556   6.761  48.317  1.00  0.00     0.014 A 
ENDBRANCH   3  16
TORSDOF 3
ENDMDL
MODEL 9
REMARK VINA RESULT:      -7.3      3.819      7.424
REMARK  3 active torsions:
REMARK  status: ('A' for Active; 'I' for Inactive)
REMARK    1  A    between atoms: C6_7  and  C7_8 
REMARK    2  A    between atoms: N2_10  and  C8_11 
REMARK    3  A    between atoms: C9_13  and  C10_14 
ROOT
HETATM    1  C8  UNL     1      24.453   1.381  51.895  1.00  0.00     0.196 A 
HETATM    2  N3  UNL     1      25.431   0.852  52.093  1.00  0.00    -0.222 NA
HETATM    3  C9  UNL     1      25.734  -0.110  52.918  1.00  0.00     0.076 A 
HETATM    4  C16 UNL     1      24.603  -0.554  53.703  1.00  0.00     0.086 A 
HETATM    5  S1  UNL     1      23.241   0.544  53.081  1.00  0.00    -0.060 SA
ENDROOT
BRANCH   1   6
HETATM    6  N2  UNL     1      23.752   2.407  51.090  1.00  0.00    -0.186 N 
HETATM    7  C7  UNL     1      23.155   3.441  50.442  1.00  0.00     0.182 A 
HETATM    8  N1  UNL     1      23.029   2.215  49.925  1.00  0.00    -0.143 NA
BRANCH   7   9
HETATM    9  C6  UNL     1      22.959   4.870  50.524  1.00  0.00     0.020 A 
HETATM   10  C2  UNL     1      21.474   5.145  50.482  1.00  0.00     0.160 A 
HETATM   11  C1  UNL     1      20.897   4.304  51.627  1.00  0.00     0.045 C 
HETATM   12  O1  UNL     1      21.169   6.487  50.569  1.00  0.00    -0.353 OA
HETATM   13  C3  UNL     1      22.086   7.497  50.684  1.00  0.00     0.135 A 
HETATM   14  C4  UNL     1      23.378   7.221  50.720  1.00  0.00     0.025 A 
HETATM   15  C5  UNL     1      23.847   5.841  50.637  1.00  0.00     0.015 A 
ENDBRANCH   7   9
ENDBRANCH   1   6
BRANCH   3  16
HETATM   16  C10 UNL     1      27.051  -0.705  53.075  1.00  0.00    -0.007 A 
HETATM   17  C11 UNL     1      28.129   0.028  53.506  1.00  0.00     0.014 A 
HETATM   18  C12 UNL     1      29.398  -0.485  53.672  1.00  0.00     0.001 A 
HETATM   19  C13 UNL     1      29.585  -1.830  53.385  1.00  0.00     0.000 A 
HETATM   20  C14 UNL     1      28.554  -2.627  52.951  1.00  0.00     0.001 A 
HETATM   21  C15 UNL     1      27.320  -2.032  52.812  1.00  0.00     0.014 A 
ENDBRANCH   3  16
TORSDOF 3
ENDMDL
