MODEL 1
REMARK VINA RESULT:      -9.8      0.000      0.000
REMARK  1 active torsions:
REMARK  status: ('A' for Active; 'I' for Inactive)
REMARK    1  A    between atoms: C3_4  and  C4_5 
ROOT
HETATM    1  C4  UNL     1      24.885   0.409  53.000  1.00  0.00    -0.039 C 
HETATM    2  C5  UNL     1      24.168  -0.410  53.744  1.00  0.00     0.040 C 
HETATM    3  C6  UNL     1      23.159  -1.251  54.456  1.00  0.00     0.104 C 
HETATM    4  C7  UNL     1      21.830  -0.966  53.996  1.00  0.00    -0.101 C 
HETATM    5  C8  UNL     1      20.794  -0.727  53.620  1.00  0.00    -0.069 C 
HETATM    6  C9  UNL     1      19.533  -0.418  53.144  1.00  0.00     0.019 C 
HETATM    7  C10 UNL     1      18.498  -1.182  53.333  1.00  0.00    -0.004 C 
HETATM    8  C11 UNL     1      17.169  -0.863  52.834  1.00  0.00     0.056 C 
HETATM    9  C12 UNL     1      17.125   0.192  51.786  1.00  0.00    -0.009 C 
HETATM   10  P1  UNL     1      18.397   1.239  51.397  1.00  0.00    -0.034 P 
HETATM   11  C13 UNL     1      19.893   0.887  52.477  1.00  0.00     0.161 C 
HETATM   12  N2  UNL     1      21.122   0.680  51.741  1.00  0.00    -0.360 N 
HETATM   13  C14 UNL     1      22.207   1.436  51.196  1.00  0.00     0.133 A 
HETATM   14  N3  UNL     1      21.378   1.986  50.401  1.00  0.00    -0.225 NA
HETATM   15  C15 UNL     1      21.769   2.957  49.450  1.00  0.00     0.229 A 
HETATM   16  N4  UNL     1      22.986   3.188  49.494  1.00  0.00    -0.278 NA
HETATM   17  C16 UNL     1      24.072   2.720  50.256  1.00  0.00     0.192 A 
HETATM   18  C17 UNL     1      23.628   1.702  51.268  1.00  0.00     0.008 A 
HETATM   19  C18 UNL     1      24.724   1.361  51.908  1.00  0.00     0.021 C 
HETATM   20  H13 UNL     1      21.380  -0.326  51.484  1.00  0.00     0.162 HD
ENDROOT
BRANCH   1  21
HETATM   21  C3  UNL     1      26.193   0.126  53.562  1.00  0.00     0.007 A 
HETATM   22  C2  UNL     1      27.414  -0.266  53.071  1.00  0.00     0.125 A 
HETATM   23  N1  UNL     1      28.376  -0.408  54.013  1.00  0.00    -0.285 N 
HETATM   24  C1  UNL     1      29.731  -0.806  53.756  1.00  0.00     0.179 C 
HETATM   25  N5  UNL     1      27.773  -0.107  55.123  1.00  0.00    -0.185 NA
HETATM   26  C19 UNL     1      26.500   0.214  54.930  1.00  0.00     0.152 A 
ENDBRANCH   1  21
TORSDOF 1
ENDMDL
MODEL 2
REMARK VINA RESULT:      -9.4      1.603      4.588
REMARK  1 active torsions:
REMARK  status: ('A' for Active; 'I' for Inactive)
REMARK    1  A    between atoms: C3_4  and  C4_5 
ROOT
HETATM    1  C4  UNL     1      25.490   0.661  52.658  1.00  0.00    -0.039 C 
HETATM    2  C5  UNL     1      26.022   1.549  51.841  1.00  0.00     0.040 C 
HETATM    3  C6  UNL     1      26.390   2.591  50.836  1.00  0.00     0.104 C 
HETATM    4  C7  UNL     1      25.239   3.024  50.095  1.00  0.00    -0.101 C 
HETATM    5  C8  UNL     1      24.324   3.350  49.524  1.00  0.00    -0.069 C 
HETATM    6  C9  UNL     1      23.186   3.735  48.838  1.00  0.00     0.019 C 
HETATM    7  C10 UNL     1      23.120   4.825  48.133  1.00  0.00    -0.004 C 
HETATM    8  C11 UNL     1      21.926   5.236  47.409  1.00  0.00     0.056 C 
HETATM    9  C12 UNL     1      20.674   4.541  47.811  1.00  0.00    -0.009 C 
HETATM   10  P1  UNL     1      20.593   3.138  48.755  1.00  0.00    -0.034 P 
HETATM   11  C13 UNL     1      22.317   2.566  49.235  1.00  0.00     0.161 C 
HETATM   12  N2  UNL     1      22.496   2.347  50.654  1.00  0.00    -0.360 N 
HETATM   13  C14 UNL     1      22.329   1.312  51.626  1.00  0.00     0.133 A 
HETATM   14  N3  UNL     1      21.076   1.356  51.406  1.00  0.00    -0.225 NA
HETATM   15  C15 UNL     1      20.156   0.522  52.084  1.00  0.00     0.229 A 
HETATM   16  N4  UNL     1      20.718  -0.229  52.894  1.00  0.00    -0.278 NA
HETATM   17  C16 UNL     1      22.045  -0.453  53.305  1.00  0.00     0.192 A 
HETATM   18  C17 UNL     1      23.002   0.433  52.560  1.00  0.00     0.008 A 
HETATM   19  C18 UNL     1      24.189   0.117  53.026  1.00  0.00     0.021 C 
HETATM   20  H13 UNL     1      22.873   3.162  51.236  1.00  0.00     0.162 HD
ENDROOT
BRANCH   1  21
HETATM   21  C3  UNL     1      26.703   0.216  53.318  1.00  0.00     0.007 A 
HETATM   22  C2  UNL     1      27.896  -0.339  52.923  1.00  0.00     0.125 A 
HETATM   23  N1  UNL     1      28.757  -0.594  53.936  1.00  0.00    -0.285 N 
HETATM   24  C1  UNL     1      30.064  -1.169  53.784  1.00  0.00     0.179 C 
HETATM   25  N5  UNL     1      28.118  -0.201  54.996  1.00  0.00    -0.185 NA
HETATM   26  C19 UNL     1      26.916   0.281  54.706  1.00  0.00     0.152 A 
ENDBRANCH   1  21
TORSDOF 1
ENDMDL
MODEL 3
REMARK VINA RESULT:      -9.3      1.368      3.956
REMARK  1 active torsions:
REMARK  status: ('A' for Active; 'I' for Inactive)
REMARK    1  A    between atoms: C3_4  and  C4_5 
ROOT
HETATM    1  C4  UNL     1      24.955   0.148  53.153  1.00  0.00    -0.039 C 
HETATM    2  C5  UNL     1      25.184   1.077  52.245  1.00  0.00     0.040 C 
HETATM    3  C6  UNL     1      25.196   2.122  51.177  1.00  0.00     0.104 C 
HETATM    4  C7  UNL     1      23.883   2.317  50.630  1.00  0.00    -0.101 C 
HETATM    5  C8  UNL     1      22.845   2.455  50.214  1.00  0.00    -0.069 C 
HETATM    6  C9  UNL     1      21.563   2.608  49.719  1.00  0.00     0.019 C 
HETATM    7  C10 UNL     1      21.193   3.638  49.018  1.00  0.00    -0.004 C 
HETATM    8  C11 UNL     1      19.845   3.805  48.494  1.00  0.00     0.056 C 
HETATM    9  C12 UNL     1      18.816   2.924  49.108  1.00  0.00    -0.009 C 
HETATM   10  P1  UNL     1      19.137   1.571  50.074  1.00  0.00    -0.034 P 
HETATM   11  C13 UNL     1      20.988   1.326  50.272  1.00  0.00     0.161 C 
HETATM   12  N2  UNL     1      21.429   1.204  51.644  1.00  0.00    -0.360 N 
HETATM   13  C14 UNL     1      21.605   0.199  52.647  1.00  0.00     0.133 A 
HETATM   14  N3  UNL     1      20.344   0.018  52.637  1.00  0.00    -0.225 NA
HETATM   15  C15 UNL     1      19.707  -0.931  53.470  1.00  0.00     0.229 A 
HETATM   16  N4  UNL     1      20.515  -1.538  54.187  1.00  0.00    -0.278 NA
HETATM   17  C16 UNL     1      21.909  -1.512  54.377  1.00  0.00     0.192 A 
HETATM   18  C17 UNL     1      22.563  -0.508  53.470  1.00  0.00     0.008 A 
HETATM   19  C18 UNL     1      23.846  -0.594  53.739  1.00  0.00     0.021 C 
HETATM   20  H13 UNL     1      21.744   2.096  52.144  1.00  0.00     0.162 HD
ENDROOT
BRANCH   1  21
HETATM   21  C3  UNL     1      26.317  -0.052  53.610  1.00  0.00     0.007 A 
HETATM   22  C2  UNL     1      27.499  -0.461  53.043  1.00  0.00     0.125 A 
HETATM   23  N1  UNL     1      28.549  -0.493  53.898  1.00  0.00    -0.285 N 
HETATM   24  C1  UNL     1      29.886  -0.884  53.550  1.00  0.00     0.179 C 
HETATM   25  N5  UNL     1      28.043  -0.101  55.028  1.00  0.00    -0.185 NA
HETATM   26  C19 UNL     1      26.748   0.172  54.929  1.00  0.00     0.152 A 
ENDBRANCH   1  21
TORSDOF 1
ENDMDL
MODEL 4
REMARK VINA RESULT:      -9.3      2.167      4.970
REMARK  1 active torsions:
REMARK  status: ('A' for Active; 'I' for Inactive)
REMARK    1  A    between atoms: C3_4  and  C4_5 
ROOT
HETATM    1  C4  UNL     1      25.514   0.681  52.306  1.00  0.00    -0.039 C 
HETATM    2  C5  UNL     1      26.124   1.467  51.440  1.00  0.00     0.040 C 
HETATM    3  C6  UNL     1      26.589   2.462  50.428  1.00  0.00     0.104 C 
HETATM    4  C7  UNL     1      25.496   3.252  49.939  1.00  0.00    -0.101 C 
HETATM    5  C8  UNL     1      24.624   3.862  49.568  1.00  0.00    -0.069 C 
HETATM    6  C9  UNL     1      23.538   4.598  49.128  1.00  0.00     0.019 C 
HETATM    7  C10 UNL     1      23.658   5.727  48.496  1.00  0.00    -0.004 C 
HETATM    8  C11 UNL     1      22.520   6.506  48.030  1.00  0.00     0.056 C 
HETATM    9  C12 UNL     1      21.213   6.135  48.634  1.00  0.00    -0.009 C 
HETATM   10  P1  UNL     1      20.907   4.723  49.517  1.00  0.00    -0.034 P 
HETATM   11  C13 UNL     1      22.459   3.671  49.634  1.00  0.00     0.161 C 
HETATM   12  N2  UNL     1      22.811   3.281  50.982  1.00  0.00    -0.360 N 
HETATM   13  C14 UNL     1      22.532   2.242  51.924  1.00  0.00     0.133 A 
HETATM   14  N3  UNL     1      21.322   2.639  51.950  1.00  0.00    -0.225 NA
HETATM   15  C15 UNL     1      20.337   2.021  52.755  1.00  0.00     0.229 A 
HETATM   16  N4  UNL     1      20.798   1.076  53.410  1.00  0.00    -0.278 NA
HETATM   17  C16 UNL     1      22.060   0.469  53.551  1.00  0.00     0.192 A 
HETATM   18  C17 UNL     1      23.083   1.133  52.675  1.00  0.00     0.008 A 
HETATM   19  C18 UNL     1      24.197   0.471  52.893  1.00  0.00     0.021 C 
HETATM   20  H13 UNL     1      23.495   3.909  51.515  1.00  0.00     0.162 HD
ENDROOT
BRANCH   1  21
HETATM   21  C3  UNL     1      26.650  -0.131  52.703  1.00  0.00     0.007 A 
HETATM   22  C2  UNL     1      27.941   0.108  53.107  1.00  0.00     0.125 A 
HETATM   23  N1  UNL     1      28.657  -1.008  53.381  1.00  0.00    -0.285 N 
HETATM   24  C1  UNL     1      30.023  -1.026  53.821  1.00  0.00     0.179 C 
HETATM   25  N5  UNL     1      27.823  -1.978  53.153  1.00  0.00    -0.185 NA
HETATM   26  C19 UNL     1      26.637  -1.535  52.755  1.00  0.00     0.152 A 
ENDBRANCH   1  21
TORSDOF 1
ENDMDL
MODEL 5
REMARK VINA RESULT:      -9.2      3.957      7.318
REMARK  1 active torsions:
REMARK  status: ('A' for Active; 'I' for Inactive)
REMARK    1  A    between atoms: C3_4  and  C4_5 
ROOT
HETATM    1  C4  UNL     1      23.731   2.394  52.068  1.00  0.00    -0.039 C 
HETATM    2  C5  UNL     1      24.934   2.081  51.629  1.00  0.00     0.040 C 
HETATM    3  C6  UNL     1      26.293   1.953  51.022  1.00  0.00     0.104 C 
HETATM    4  C7  UNL     1      26.612   3.099  50.221  1.00  0.00    -0.101 C 
HETATM    5  C8  UNL     1      26.844   4.008  49.596  1.00  0.00    -0.069 C 
HETATM    6  C9  UNL     1      27.107   5.134  48.836  1.00  0.00     0.019 C 
HETATM    7  C10 UNL     1      28.302   5.461  48.445  1.00  0.00    -0.004 C 
HETATM    8  C11 UNL     1      28.585   6.643  47.645  1.00  0.00     0.056 C 
HETATM    9  C12 UNL     1      27.496   7.655  47.608  1.00  0.00    -0.009 C 
HETATM   10  P1  UNL     1      25.902   7.395  48.115  1.00  0.00    -0.034 P 
HETATM   11  C13 UNL     1      25.687   5.637  48.740  1.00  0.00     0.161 C 
HETATM   12  N2  UNL     1      25.097   5.543  50.058  1.00  0.00    -0.360 N 
HETATM   13  C14 UNL     1      23.808   5.481  50.673  1.00  0.00     0.133 A 
HETATM   14  N3  UNL     1      23.585   6.659  50.243  1.00  0.00    -0.225 NA
HETATM   15  C15 UNL     1      22.371   7.341  50.492  1.00  0.00     0.229 A 
HETATM   16  N4  UNL     1      21.584   6.660  51.164  1.00  0.00    -0.278 NA
HETATM   17  C16 UNL     1      21.603   5.377  51.742  1.00  0.00     0.192 A 
HETATM   18  C17 UNL     1      22.895   4.669  51.450  1.00  0.00     0.008 A 
HETATM   19  C18 UNL     1      22.777   3.495  52.030  1.00  0.00     0.021 C 
HETATM   20  H13 UNL     1      25.763   5.496  50.895  1.00  0.00     0.162 HD
ENDROOT
BRANCH   1  21
HETATM   21  C3  UNL     1      23.441   1.176  52.802  1.00  0.00     0.007 A 
HETATM   22  C2  UNL     1      22.312   0.475  53.145  1.00  0.00     0.125 A 
HETATM   23  N1  UNL     1      22.547  -0.648  53.863  1.00  0.00    -0.285 N 
HETATM   24  C1  UNL     1      21.537  -1.551  54.340  1.00  0.00     0.179 C 
HETATM   25  N5  UNL     1      23.840  -0.675  53.987  1.00  0.00    -0.185 NA
HETATM   26  C19 UNL     1      24.421   0.359  53.391  1.00  0.00     0.152 A 
ENDBRANCH   1  21
TORSDOF 1
ENDMDL
MODEL 6
REMARK VINA RESULT:      -9.1      2.963      4.986
REMARK  1 active torsions:
REMARK  status: ('A' for Active; 'I' for Inactive)
REMARK    1  A    between atoms: C3_4  and  C4_5 
ROOT
HETATM    1  C4  UNL     1      24.882   3.647  49.757  1.00  0.00    -0.039 C 
HETATM    2  C5  UNL     1      25.514   3.093  50.773  1.00  0.00     0.040 C 
HETATM    3  C6  UNL     1      26.013   2.345  51.966  1.00  0.00     0.104 C 
HETATM    4  C7  UNL     1      24.972   1.550  52.551  1.00  0.00    -0.101 C 
HETATM    5  C8  UNL     1      24.140   0.932  52.996  1.00  0.00    -0.069 C 
HETATM    6  C9  UNL     1      23.105   0.182  53.523  1.00  0.00     0.019 C 
HETATM    7  C10 UNL     1      23.293  -0.798  54.356  1.00  0.00    -0.004 C 
HETATM    8  C11 UNL     1      22.208  -1.591  54.914  1.00  0.00     0.056 C 
HETATM    9  C12 UNL     1      20.906  -1.466  54.206  1.00  0.00    -0.009 C 
HETATM   10  P1  UNL     1      20.521  -0.271  53.070  1.00  0.00    -0.034 P 
HETATM   11  C13 UNL     1      21.974   0.892  52.818  1.00  0.00     0.161 C 
HETATM   12  N2  UNL     1      22.361   1.068  51.435  1.00  0.00    -0.360 N 
HETATM   13  C14 UNL     1      22.038   1.889  50.309  1.00  0.00     0.133 A 
HETATM   14  N3  UNL     1      20.873   1.376  50.313  1.00  0.00    -0.225 NA
HETATM   15  C15 UNL     1      19.881   1.740  49.374  1.00  0.00     0.229 A 
HETATM   16  N4  UNL     1      20.287   2.594  48.574  1.00  0.00    -0.278 NA
HETATM   17  C16 UNL     1      21.494   3.289  48.370  1.00  0.00     0.192 A 
HETATM   18  C17 UNL     1      22.526   2.896  49.390  1.00  0.00     0.008 A 
HETATM   19  C18 UNL     1      23.584   3.616  49.095  1.00  0.00     0.021 C 
HETATM   20  H13 UNL     1      23.126   0.427  51.050  1.00  0.00     0.162 HD
ENDROOT
BRANCH   1  21
HETATM   21  C3  UNL     1      25.959   4.483  49.260  1.00  0.00     0.007 A 
HETATM   22  C2  UNL     1      27.285   4.305  48.949  1.00  0.00     0.125 A 
HETATM   23  N1  UNL     1      27.910   5.421  48.503  1.00  0.00    -0.285 N 
HETATM   24  C1  UNL     1      29.290   5.494  48.114  1.00  0.00     0.179 C 
HETATM   25  N5  UNL     1      26.982   6.329  48.526  1.00  0.00    -0.185 NA
HETATM   26  C19 UNL     1      25.822   5.849  48.957  1.00  0.00     0.152 A 
ENDBRANCH   1  21
TORSDOF 1
ENDMDL
MODEL 7
REMARK VINA RESULT:      -9.1      2.270      2.912
REMARK  1 active torsions:
REMARK  status: ('A' for Active; 'I' for Inactive)
REMARK    1  A    between atoms: C3_4  and  C4_5 
ROOT
HETATM    1  C4  UNL     1      26.037   0.862  52.082  1.00  0.00    -0.039 C 
HETATM    2  C5  UNL     1      24.965   0.339  52.646  1.00  0.00     0.040 C 
HETATM    3  C6  UNL     1      23.628  -0.066  53.172  1.00  0.00     0.104 C 
HETATM    4  C7  UNL     1      22.610   0.861  52.767  1.00  0.00    -0.101 C 
HETATM    5  C8  UNL     1      21.825   1.600  52.438  1.00  0.00    -0.069 C 
HETATM    6  C9  UNL     1      20.880   2.520  52.021  1.00  0.00     0.019 C 
HETATM    7  C10 UNL     1      19.602   2.284  52.050  1.00  0.00    -0.004 C 
HETATM    8  C11 UNL     1      18.603   3.248  51.613  1.00  0.00     0.056 C 
HETATM    9  C12 UNL     1      19.126   4.372  50.792  1.00  0.00    -0.009 C 
HETATM   10  P1  UNL     1      20.759   4.783  50.623  1.00  0.00    -0.034 P 
HETATM   11  C13 UNL     1      21.839   3.617  51.625  1.00  0.00     0.161 C 
HETATM   12  N2  UNL     1      22.914   3.008  50.871  1.00  0.00    -0.360 N 
HETATM   13  C14 UNL     1      24.267   3.276  50.493  1.00  0.00     0.133 A 
HETATM   14  N3  UNL     1      23.844   4.267  49.815  1.00  0.00    -0.225 NA
HETATM   15  C15 UNL     1      24.711   5.104  49.075  1.00  0.00     0.229 A 
HETATM   16  N4  UNL     1      25.894   4.752  49.171  1.00  0.00    -0.278 NA
HETATM   17  C16 UNL     1      26.587   3.722  49.835  1.00  0.00     0.192 A 
HETATM   18  C17 UNL     1      25.647   2.857  50.625  1.00  0.00     0.008 A 
HETATM   19  C18 UNL     1      26.414   1.955  51.195  1.00  0.00     0.021 C 
HETATM   20  H13 UNL     1      22.726   2.054  50.425  1.00  0.00     0.162 HD
ENDROOT
BRANCH   1  21
HETATM   21  C3  UNL     1      27.027  -0.071  52.586  1.00  0.00     0.007 A 
HETATM   22  C2  UNL     1      28.300   0.019  53.094  1.00  0.00     0.125 A 
HETATM   23  N1  UNL     1      28.847  -1.168  53.446  1.00  0.00    -0.285 N 
HETATM   24  C1  UNL     1      30.161  -1.341  54.000  1.00  0.00     0.179 C 
HETATM   25  N5  UNL     1      27.922  -2.035  53.164  1.00  0.00    -0.185 NA
HETATM   26  C19 UNL     1      26.836  -1.462  52.660  1.00  0.00     0.152 A 
ENDBRANCH   1  21
TORSDOF 1
ENDMDL
MODEL 8
REMARK VINA RESULT:      -8.9      1.165      1.254
REMARK  1 active torsions:
REMARK  status: ('A' for Active; 'I' for Inactive)
REMARK    1  A    between atoms: C3_4  and  C4_5 
ROOT
HETATM    1  C4  UNL     1      24.418   1.257  52.222  1.00  0.00    -0.039 C 
HETATM    2  C5  UNL     1      23.724   0.465  53.014  1.00  0.00     0.040 C 
HETATM    3  C6  UNL     1      22.743  -0.375  53.766  1.00  0.00     0.104 C 
HETATM    4  C7  UNL     1      21.422  -0.240  53.221  1.00  0.00    -0.101 C 
HETATM    5  C8  UNL     1      20.393  -0.121  52.777  1.00  0.00    -0.069 C 
HETATM    6  C9  UNL     1      19.139   0.041  52.217  1.00  0.00     0.019 C 
HETATM    7  C10 UNL     1      18.153  -0.777  52.438  1.00  0.00    -0.004 C 
HETATM    8  C11 UNL     1      16.832  -0.612  51.851  1.00  0.00     0.056 C 
HETATM    9  C12 UNL     1      16.766   0.325  50.699  1.00  0.00    -0.009 C 
HETATM   10  P1  UNL     1      17.978   1.421  50.258  1.00  0.00    -0.034 P 
HETATM   11  C13 UNL     1      19.438   1.296  51.433  1.00  0.00     0.161 C 
HETATM   12  N2  UNL     1      20.715   1.110  50.777  1.00  0.00    -0.360 N 
HETATM   13  C14 UNL     1      21.769   1.889  50.205  1.00  0.00     0.133 A 
HETATM   14  N3  UNL     1      20.945   2.291  49.321  1.00  0.00    -0.225 NA
HETATM   15  C15 UNL     1      21.314   3.188  48.292  1.00  0.00     0.229 A 
HETATM   16  N4  UNL     1      22.507   3.514  48.365  1.00  0.00    -0.278 NA
HETATM   17  C16 UNL     1      23.584   3.210  49.218  1.00  0.00     0.192 A 
HETATM   18  C17 UNL     1      23.162   2.269  50.310  1.00  0.00     0.008 A 
HETATM   19  C18 UNL     1      24.245   2.079  51.030  1.00  0.00     0.021 C 
HETATM   20  H13 UNL     1      21.057   0.106  50.639  1.00  0.00     0.162 HD
ENDROOT
BRANCH   1  21
HETATM   21  C3  UNL     1      25.712   1.133  52.866  1.00  0.00     0.007 A 
HETATM   22  C2  UNL     1      26.825   0.345  52.703  1.00  0.00     0.125 A 
HETATM   23  N1  UNL     1      27.827   0.604  53.576  1.00  0.00    -0.285 N 
HETATM   24  C1  UNL     1      29.089  -0.079  53.611  1.00  0.00     0.179 C 
HETATM   25  N5  UNL     1      27.359   1.567  54.312  1.00  0.00    -0.185 NA
HETATM   26  C19 UNL     1      26.133   1.922  53.951  1.00  0.00     0.152 A 
ENDBRANCH   1  21
TORSDOF 1
ENDMDL
MODEL 9
REMARK VINA RESULT:      -8.5      1.862      2.563
REMARK  1 active torsions:
REMARK  status: ('A' for Active; 'I' for Inactive)
REMARK    1  A    between atoms: C3_4  and  C4_5 
ROOT
HETATM    1  C4  UNL     1      22.745   0.892  52.734  1.00  0.00    -0.039 C 
HETATM    2  C5  UNL     1      22.436  -0.106  53.537  1.00  0.00     0.040 C 
HETATM    3  C6  UNL     1      21.864  -1.235  54.331  1.00  0.00     0.104 C 
HETATM    4  C7  UNL     1      20.499  -1.485  53.965  1.00  0.00    -0.101 C 
HETATM    5  C8  UNL     1      19.428  -1.665  53.664  1.00  0.00    -0.069 C 
HETATM    6  C9  UNL     1      18.116  -1.867  53.277  1.00  0.00     0.019 C 
HETATM    7  C10 UNL     1      17.457  -2.954  53.549  1.00  0.00    -0.004 C 
HETATM    8  C11 UNL     1      16.077  -3.174  53.145  1.00  0.00     0.056 C 
HETATM    9  C12 UNL     1      15.573  -2.252  52.091  1.00  0.00    -0.009 C 
HETATM   10  P1  UNL     1      16.333  -0.822  51.598  1.00  0.00    -0.034 P 
HETATM   11  C13 UNL     1      17.917  -0.548  52.570  1.00  0.00     0.161 C 
HETATM   12  N2  UNL     1      19.084  -0.310  51.749  1.00  0.00    -0.360 N 
HETATM   13  C14 UNL     1      19.770   0.775  51.118  1.00  0.00     0.133 A 
HETATM   14  N3  UNL     1      18.747   0.946  50.379  1.00  0.00    -0.225 NA
HETATM   15  C15 UNL     1      18.685   1.956  49.391  1.00  0.00     0.229 A 
HETATM   16  N4  UNL     1      19.726   2.625  49.343  1.00  0.00    -0.278 NA
HETATM   17  C16 UNL     1      20.954   2.626  50.029  1.00  0.00     0.192 A 
HETATM   18  C17 UNL     1      20.989   1.555  51.082  1.00  0.00     0.008 A 
HETATM   19  C18 UNL     1      22.171   1.673  51.646  1.00  0.00     0.021 C 
HETATM   20  H13 UNL     1      19.685  -1.156  51.486  1.00  0.00     0.162 HD
ENDROOT
BRANCH   1  21
HETATM   21  C3  UNL     1      24.097   1.140  53.202  1.00  0.00     0.007 A 
HETATM   22  C2  UNL     1      25.153   0.369  53.622  1.00  0.00     0.125 A 
HETATM   23  N1  UNL     1      26.254   1.073  53.976  1.00  0.00    -0.285 N 
HETATM   24  C1  UNL     1      27.485   0.501  54.445  1.00  0.00     0.179 C 
HETATM   25  N5  UNL     1      25.909   2.310  53.784  1.00  0.00    -0.185 NA
HETATM   26  C19 UNL     1      24.665   2.419  53.334  1.00  0.00     0.152 A 
ENDBRANCH   1  21
TORSDOF 1
ENDMDL
