MODEL 1
REMARK VINA RESULT:      -8.7      0.000      0.000
REMARK  6 active torsions:
REMARK  status: ('A' for Active; 'I' for Inactive)
REMARK    1  A    between atoms: O1_1  and  C1_2 
REMARK    2  A    between atoms: C15_20  and  O2_21 
REMARK    3  A    between atoms: O2_21  and  C16_22 
REMARK    4  A    between atoms: C16_22  and  C17_23 
REMARK    5  A    between atoms: C17_23  and  C18_24 
REMARK    6  A    between atoms: C18_24  and  N3_25 
ROOT
HETATM    1  C1  UNL     1      22.098   3.861  52.332  1.00  0.00     0.197 C 
HETATM    2  C2  UNL     1      20.913   2.973  52.261  1.00  0.00     0.013 C 
HETATM    3  C3  UNL     1      20.686   1.689  52.592  1.00  0.00     0.031 C 
HETATM    4  C4  UNL     1      21.753   0.842  53.164  1.00  0.00     0.070 A 
HETATM    5  N1  UNL     1      21.259  -0.170  53.897  1.00  0.00    -0.241 NA
HETATM    6  C5  UNL     1      22.157  -1.004  54.470  1.00  0.00     0.234 A 
HETATM    7  N2  UNL     1      23.514  -0.893  54.358  1.00  0.00    -0.240 NA
HETATM    8  C6  UNL     1      24.046   0.127  53.618  1.00  0.00     0.081 A 
HETATM    9  C7  UNL     1      25.473   0.214  53.524  1.00  0.00    -0.005 A 
HETATM   10  C8  UNL     1      26.041  -1.022  53.201  1.00  0.00     0.017 A 
HETATM   11  C9  UNL     1      27.411  -1.202  53.068  1.00  0.00     0.045 A 
HETATM   12  C10 UNL     1      28.256  -0.149  53.254  1.00  0.00     0.138 A 
HETATM   13  F1  UNL     1      29.603  -0.249  53.141  1.00  0.00    -0.204 F 
HETATM   14  C11 UNL     1      27.719   1.081  53.574  1.00  0.00     0.073 A 
HETATM   15 CL1  UNL     1      28.732   2.482  53.830  1.00  0.00    -0.081 Cl
HETATM   16  C12 UNL     1      26.370   1.271  53.708  1.00  0.00     0.041 A 
HETATM   17  C13 UNL     1      23.142   0.959  53.045  1.00  0.00     0.025 A 
HETATM   18  C14 UNL     1      23.821   1.987  52.262  1.00  0.00     0.051 C 
HETATM   19  C15 UNL     1      23.373   3.201  51.970  1.00  0.00     0.079 C 
ENDROOT
BRANCH  19  20
HETATM   20  O2  UNL     1      24.260   3.938  51.208  1.00  0.00    -0.352 OA
BRANCH  20  21
HETATM   21  C16 UNL     1      25.327   3.461  50.474  1.00  0.00     0.177 C 
BRANCH  21  22
HETATM   22  C17 UNL     1      25.784   4.442  49.392  1.00  0.00     0.046 C 
BRANCH  22  23
HETATM   23  C18 UNL     1      24.682   5.334  48.961  1.00  0.00     0.119 C 
BRANCH  23  24
HETATM   24  N3  UNL     1      24.898   6.717  49.001  1.00  0.00    -0.408 N 
HETATM   25  C19 UNL     1      25.376   7.176  50.269  1.00  0.00     0.143 C 
HETATM   26  C20 UNL     1      24.172   7.342  51.171  1.00  0.00     0.187 C 
HETATM   27  O3  UNL     1      23.035   7.704  50.476  1.00  0.00    -0.388 OA
HETATM   28  C21 UNL     1      23.309   8.440  49.328  1.00  0.00     0.187 C 
HETATM   29  C22 UNL     1      24.059   7.601  48.307  1.00  0.00     0.143 C 
ENDBRANCH  23  24
ENDBRANCH  22  23
ENDBRANCH  21  22
ENDBRANCH  20  21
ENDBRANCH  19  20
BRANCH   1  30
HETATM   30  O1  UNL     1      21.817   4.923  51.444  1.00  0.00    -0.385 OA
HETATM   31  H1  UNL     1      22.196   5.766  51.792  1.00  0.00     0.210 HD
ENDBRANCH   1  30
TORSDOF 6
ENDMDL
MODEL 2
REMARK VINA RESULT:      -8.7      1.755      2.460
REMARK  6 active torsions:
REMARK  status: ('A' for Active; 'I' for Inactive)
REMARK    1  A    between atoms: O1_1  and  C1_2 
REMARK    2  A    between atoms: C15_20  and  O2_21 
REMARK    3  A    between atoms: O2_21  and  C16_22 
REMARK    4  A    between atoms: C16_22  and  C17_23 
REMARK    5  A    between atoms: C17_23  and  C18_24 
REMARK    6  A    between atoms: C18_24  and  N3_25 
ROOT
HETATM    1  C1  UNL     1      21.622   3.754  52.519  1.00  0.00     0.197 C 
HETATM    2  C2  UNL     1      20.461   2.834  52.470  1.00  0.00     0.013 C 
HETATM    3  C3  UNL     1      20.280   1.538  52.783  1.00  0.00     0.031 C 
HETATM    4  C4  UNL     1      21.389   0.711  53.305  1.00  0.00     0.070 A 
HETATM    5  N1  UNL     1      20.949  -0.327  54.034  1.00  0.00    -0.241 NA
HETATM    6  C5  UNL     1      21.888  -1.146  54.562  1.00  0.00     0.234 A 
HETATM    7  N2  UNL     1      23.237  -0.993  54.408  1.00  0.00    -0.240 NA
HETATM    8  C6  UNL     1      23.715   0.054  53.670  1.00  0.00     0.081 A 
HETATM    9  C7  UNL     1      25.135   0.184  53.532  1.00  0.00    -0.005 A 
HETATM   10  C8  UNL     1      25.727  -1.029  53.167  1.00  0.00     0.017 A 
HETATM   11  C9  UNL     1      27.097  -1.167  52.986  1.00  0.00     0.045 A 
HETATM   12  C10 UNL     1      27.917  -0.094  53.165  1.00  0.00     0.138 A 
HETATM   13  F1  UNL     1      29.262  -0.153  53.006  1.00  0.00    -0.204 F 
HETATM   14  C11 UNL     1      27.356   1.114  53.526  1.00  0.00     0.073 A 
HETATM   15 CL1  UNL     1      28.338   2.539  53.775  1.00  0.00    -0.081 Cl
HETATM   16  C12 UNL     1      26.009   1.263  53.707  1.00  0.00     0.041 A 
HETATM   17  C13 UNL     1      22.770   0.871  53.143  1.00  0.00     0.025 A 
HETATM   18  C14 UNL     1      23.394   1.931  52.358  1.00  0.00     0.051 C 
HETATM   19  C15 UNL     1      22.902   3.137  52.104  1.00  0.00     0.079 C 
ENDROOT
BRANCH  19  20
HETATM   20  O2  UNL     1      23.743   3.913  51.327  1.00  0.00    -0.352 OA
BRANCH  20  21
HETATM   21  C16 UNL     1      24.920   3.521  50.724  1.00  0.00     0.177 C 
BRANCH  21  22
HETATM   22  C17 UNL     1      24.916   3.759  49.212  1.00  0.00     0.046 C 
BRANCH  22  23
HETATM   23  C18 UNL     1      23.628   4.331  48.751  1.00  0.00     0.119 C 
BRANCH  23  24
HETATM   24  N3  UNL     1      22.776   3.515  47.997  1.00  0.00    -0.408 N 
HETATM   25  C19 UNL     1      21.840   4.254  47.208  1.00  0.00     0.143 C 
HETATM   26  C20 UNL     1      20.683   4.623  48.109  1.00  0.00     0.187 C 
HETATM   27  O3  UNL     1      20.454   3.680  49.091  1.00  0.00    -0.388 OA
HETATM   28  C21 UNL     1      20.816   2.393  48.706  1.00  0.00     0.187 C 
HETATM   29  C22 UNL     1      22.319   2.289  48.502  1.00  0.00     0.143 C 
ENDBRANCH  23  24
ENDBRANCH  22  23
ENDBRANCH  21  22
ENDBRANCH  20  21
ENDBRANCH  19  20
BRANCH   1  30
HETATM   30  O1  UNL     1      21.283   4.823  51.661  1.00  0.00    -0.385 OA
HETATM   31  H1  UNL     1      20.789   4.483  50.875  1.00  0.00     0.210 HD
ENDBRANCH   1  30
TORSDOF 6
ENDMDL
MODEL 3
REMARK VINA RESULT:      -8.6      3.421      5.276
REMARK  6 active torsions:
REMARK  status: ('A' for Active; 'I' for Inactive)
REMARK    1  A    between atoms: O1_1  and  C1_2 
REMARK    2  A    between atoms: C15_20  and  O2_21 
REMARK    3  A    between atoms: O2_21  and  C16_22 
REMARK    4  A    between atoms: C16_22  and  C17_23 
REMARK    5  A    between atoms: C17_23  and  C18_24 
REMARK    6  A    between atoms: C18_24  and  N3_25 
ROOT
HETATM    1  C1  UNL     1      21.375  -0.009  54.426  1.00  0.00     0.197 C 
HETATM    2  C2  UNL     1      22.147  -1.139  54.995  1.00  0.00     0.013 C 
HETATM    3  C3  UNL     1      23.458  -1.426  55.084  1.00  0.00     0.031 C 
HETATM    4  C4  UNL     1      24.484  -0.511  54.542  1.00  0.00     0.070 A 
HETATM    5  N1  UNL     1      25.671  -0.659  55.154  1.00  0.00    -0.241 NA
HETATM    6  C5  UNL     1      26.680   0.139  54.732  1.00  0.00     0.234 A 
HETATM    7  N2  UNL     1      26.578   1.073  53.741  1.00  0.00    -0.240 NA
HETATM    8  C6  UNL     1      25.383   1.247  53.101  1.00  0.00     0.081 A 
HETATM    9  C7  UNL     1      25.313   2.238  52.068  1.00  0.00    -0.005 A 
HETATM   10  C8  UNL     1      26.378   2.117  51.170  1.00  0.00     0.017 A 
HETATM   11  C9  UNL     1      26.544   2.972  50.089  1.00  0.00     0.045 A 
HETATM   12  C10 UNL     1      25.647   3.975  49.872  1.00  0.00     0.138 A 
HETATM   13  F1  UNL     1      25.744   4.847  48.839  1.00  0.00    -0.204 F 
HETATM   14  C11 UNL     1      24.588   4.114  50.745  1.00  0.00     0.073 A 
HETATM   15 CL1  UNL     1      23.393   5.374  50.539  1.00  0.00    -0.081 Cl
HETATM   16  C12 UNL     1      24.414   3.278  51.814  1.00  0.00     0.041 A 
HETATM   17  C13 UNL     1      24.376   0.444  53.526  1.00  0.00     0.025 A 
HETATM   18  C14 UNL     1      23.163   0.699  52.755  1.00  0.00     0.051 C 
HETATM   19  C15 UNL     1      21.909   0.505  53.144  1.00  0.00     0.079 C 
ENDROOT
BRANCH  19  20
HETATM   20  O2  UNL     1      20.982   0.847  52.177  1.00  0.00    -0.352 OA
BRANCH  20  21
HETATM   21  C16 UNL     1      21.027   0.542  50.832  1.00  0.00     0.177 C 
BRANCH  21  22
HETATM   22  C17 UNL     1      19.704   0.827  50.118  1.00  0.00     0.046 C 
BRANCH  22  23
HETATM   23  C18 UNL     1      19.793   2.032  49.259  1.00  0.00     0.119 C 
BRANCH  23  24
HETATM   24  N3  UNL     1      18.918   3.094  49.520  1.00  0.00    -0.408 N 
HETATM   25  C19 UNL     1      19.592   4.326  49.792  1.00  0.00     0.143 C 
HETATM   26  C20 UNL     1      19.996   4.306  51.250  1.00  0.00     0.187 C 
HETATM   27  O3  UNL     1      19.111   3.595  52.036  1.00  0.00    -0.388 OA
HETATM   28  C21 UNL     1      17.810   3.615  51.546  1.00  0.00     0.187 C 
HETATM   29  C22 UNL     1      17.718   2.886  50.215  1.00  0.00     0.143 C 
ENDBRANCH  23  24
ENDBRANCH  22  23
ENDBRANCH  21  22
ENDBRANCH  20  21
ENDBRANCH  19  20
BRANCH   1  30
HETATM   30  O1  UNL     1      20.064  -0.505  54.256  1.00  0.00    -0.385 OA
HETATM   31  H1  UNL     1      19.816  -1.079  55.021  1.00  0.00     0.210 HD
ENDBRANCH   1  30
TORSDOF 6
ENDMDL
MODEL 4
REMARK VINA RESULT:      -8.6      1.013      1.418
REMARK  6 active torsions:
REMARK  status: ('A' for Active; 'I' for Inactive)
REMARK    1  A    between atoms: O1_1  and  C1_2 
REMARK    2  A    between atoms: C15_20  and  O2_21 
REMARK    3  A    between atoms: O2_21  and  C16_22 
REMARK    4  A    between atoms: C16_22  and  C17_23 
REMARK    5  A    between atoms: C17_23  and  C18_24 
REMARK    6  A    between atoms: C18_24  and  N3_25 
ROOT
HETATM    1  C1  UNL     1      22.230   3.969  52.270  1.00  0.00     0.197 C 
HETATM    2  C2  UNL     1      21.036   3.095  52.194  1.00  0.00     0.013 C 
HETATM    3  C3  UNL     1      20.793   1.812  52.518  1.00  0.00     0.031 C 
HETATM    4  C4  UNL     1      21.849   0.950  53.088  1.00  0.00     0.070 A 
HETATM    5  N1  UNL     1      21.343  -0.060  53.816  1.00  0.00    -0.241 NA
HETATM    6  C5  UNL     1      22.231  -0.907  54.387  1.00  0.00     0.234 A 
HETATM    7  N2  UNL     1      23.589  -0.810  54.277  1.00  0.00    -0.240 NA
HETATM    8  C6  UNL     1      24.134   0.206  53.543  1.00  0.00     0.081 A 
HETATM    9  C7  UNL     1      25.562   0.278  53.452  1.00  0.00    -0.005 A 
HETATM   10  C8  UNL     1      26.116  -0.963  53.124  1.00  0.00     0.017 A 
HETATM   11  C9  UNL     1      27.484  -1.158  52.992  1.00  0.00     0.045 A 
HETATM   12  C10 UNL     1      28.341  -0.116  53.185  1.00  0.00     0.138 A 
HETATM   13  F1  UNL     1      29.687  -0.231  53.073  1.00  0.00    -0.204 F 
HETATM   14  C11 UNL     1      27.817   1.118  53.509  1.00  0.00     0.073 A 
HETATM   15 CL1  UNL     1      28.846   2.507  53.772  1.00  0.00    -0.081 Cl
HETATM   16  C12 UNL     1      26.471   1.324  53.642  1.00  0.00     0.041 A 
HETATM   17  C13 UNL     1      23.240   1.052  52.972  1.00  0.00     0.025 A 
HETATM   18  C14 UNL     1      23.933   2.075  52.195  1.00  0.00     0.051 C 
HETATM   19  C15 UNL     1      23.498   3.295  51.907  1.00  0.00     0.079 C 
ENDROOT
BRANCH  19  20
HETATM   20  O2  UNL     1      24.395   4.026  51.150  1.00  0.00    -0.352 OA
BRANCH  20  21
HETATM   21  C16 UNL     1      24.802   3.766  49.857  1.00  0.00     0.177 C 
BRANCH  21  22
HETATM   22  C17 UNL     1      26.281   4.083  49.629  1.00  0.00     0.046 C 
BRANCH  22  23
HETATM   23  C18 UNL     1      26.463   5.381  48.935  1.00  0.00     0.119 C 
BRANCH  23  24
HETATM   24  N3  UNL     1      25.557   6.411  49.217  1.00  0.00    -0.408 N 
HETATM   25  C19 UNL     1      24.956   6.969  48.045  1.00  0.00     0.143 C 
HETATM   26  C20 UNL     1      25.926   7.981  47.478  1.00  0.00     0.187 C 
HETATM   27  O3  UNL     1      26.682   8.597  48.456  1.00  0.00    -0.388 OA
HETATM   28  C21 UNL     1      26.024   8.686  49.678  1.00  0.00     0.187 C 
HETATM   29  C22 UNL     1      25.788   7.306  50.272  1.00  0.00     0.143 C 
ENDBRANCH  23  24
ENDBRANCH  22  23
ENDBRANCH  21  22
ENDBRANCH  20  21
ENDBRANCH  19  20
BRANCH   1  30
HETATM   30  O1  UNL     1      21.964   5.037  51.386  1.00  0.00    -0.385 OA
HETATM   31  H1  UNL     1      22.130   4.755  50.453  1.00  0.00     0.210 HD
ENDBRANCH   1  30
TORSDOF 6
ENDMDL
MODEL 5
REMARK VINA RESULT:      -8.5      3.291      5.148
REMARK  6 active torsions:
REMARK  status: ('A' for Active; 'I' for Inactive)
REMARK    1  A    between atoms: O1_1  and  C1_2 
REMARK    2  A    between atoms: C15_20  and  O2_21 
REMARK    3  A    between atoms: O2_21  and  C16_22 
REMARK    4  A    between atoms: C16_22  and  C17_23 
REMARK    5  A    between atoms: C17_23  and  C18_24 
REMARK    6  A    between atoms: C18_24  and  N3_25 
ROOT
HETATM    1  C1  UNL     1      26.723   2.312  51.421  1.00  0.00     0.197 C 
HETATM    2  C2  UNL     1      27.467   2.097  52.684  1.00  0.00     0.013 C 
HETATM    3  C3  UNL     1      27.215   1.412  53.814  1.00  0.00     0.031 C 
HETATM    4  C4  UNL     1      25.958   0.654  53.989  1.00  0.00     0.070 A 
HETATM    5  N1  UNL     1      26.088  -0.348  54.874  1.00  0.00    -0.241 NA
HETATM    6  C5  UNL     1      24.992  -1.108  55.103  1.00  0.00     0.234 A 
HETATM    7  N2  UNL     1      23.777  -0.931  54.505  1.00  0.00    -0.240 NA
HETATM    8  C6  UNL     1      23.613   0.081  53.601  1.00  0.00     0.081 A 
HETATM    9  C7  UNL     1      22.326   0.236  52.992  1.00  0.00    -0.005 A 
HETATM   10  C8  UNL     1      21.303   0.214  53.945  1.00  0.00     0.017 A 
HETATM   11  C9  UNL     1      19.962   0.329  53.605  1.00  0.00     0.045 A 
HETATM   12  C10 UNL     1      19.603   0.470  52.298  1.00  0.00     0.138 A 
HETATM   13  F1  UNL     1      18.315   0.589  51.890  1.00  0.00    -0.204 F 
HETATM   14  C11 UNL     1      20.594   0.495  51.339  1.00  0.00     0.073 A 
HETATM   15 CL1  UNL     1      20.219   0.674  49.641  1.00  0.00    -0.081 Cl
HETATM   16  C12 UNL     1      21.919   0.383  51.662  1.00  0.00     0.041 A 
HETATM   17  C13 UNL     1      24.715   0.840  53.375  1.00  0.00     0.025 A 
HETATM   18  C14 UNL     1      24.415   1.899  52.417  1.00  0.00     0.051 C 
HETATM   19  C15 UNL     1      25.266   2.509  51.602  1.00  0.00     0.079 C 
ENDROOT
BRANCH  19  20
HETATM   20  O2  UNL     1      24.666   3.473  50.813  1.00  0.00    -0.352 OA
BRANCH  20  21
HETATM   21  C16 UNL     1      24.400   3.398  49.461  1.00  0.00     0.177 C 
BRANCH  21  22
HETATM   22  C17 UNL     1      22.952   2.999  49.167  1.00  0.00     0.046 C 
BRANCH  22  23
HETATM   23  C18 UNL     1      22.110   4.180  48.859  1.00  0.00     0.119 C 
BRANCH  23  24
HETATM   24  N3  UNL     1      21.263   4.665  49.862  1.00  0.00    -0.408 N 
HETATM   25  C19 UNL     1      21.154   6.091  49.868  1.00  0.00     0.143 C 
HETATM   26  C20 UNL     1      22.349   6.632  50.622  1.00  0.00     0.187 C 
HETATM   27  O3  UNL     1      22.776   5.778  51.620  1.00  0.00    -0.388 OA
HETATM   28  C21 UNL     1      21.749   5.007  52.154  1.00  0.00     0.187 C 
HETATM   29  C22 UNL     1      21.198   4.041  51.117  1.00  0.00     0.143 C 
ENDBRANCH  23  24
ENDBRANCH  22  23
ENDBRANCH  21  22
ENDBRANCH  20  21
ENDBRANCH  19  20
BRANCH   1  30
HETATM   30  O1  UNL     1      27.310   3.456  50.837  1.00  0.00    -0.385 OA
HETATM   31  H1  UNL     1      28.177   3.651  51.269  1.00  0.00     0.210 HD
ENDBRANCH   1  30
TORSDOF 6
ENDMDL
MODEL 6
REMARK VINA RESULT:      -8.5      3.318      5.158
REMARK  6 active torsions:
REMARK  status: ('A' for Active; 'I' for Inactive)
REMARK    1  A    between atoms: O1_1  and  C1_2 
REMARK    2  A    between atoms: C15_20  and  O2_21 
REMARK    3  A    between atoms: O2_21  and  C16_22 
REMARK    4  A    between atoms: C16_22  and  C17_23 
REMARK    5  A    between atoms: C17_23  and  C18_24 
REMARK    6  A    between atoms: C18_24  and  N3_25 
ROOT
HETATM    1  C1  UNL     1      21.404   0.203  54.481  1.00  0.00     0.197 C 
HETATM    2  C2  UNL     1      22.128  -1.013  54.920  1.00  0.00     0.013 C 
HETATM    3  C3  UNL     1      23.418  -1.395  54.893  1.00  0.00     0.031 C 
HETATM    4  C4  UNL     1      24.467  -0.519  54.332  1.00  0.00     0.070 A 
HETATM    5  N1  UNL     1      25.680  -0.789  54.842  1.00  0.00    -0.241 NA
HETATM    6  C5  UNL     1      26.713  -0.036  54.396  1.00  0.00     0.234 A 
HETATM    7  N2  UNL     1      26.611   0.967  53.474  1.00  0.00    -0.240 NA
HETATM    8  C6  UNL     1      25.389   1.265  52.937  1.00  0.00     0.081 A 
HETATM    9  C7  UNL     1      25.319   2.324  51.975  1.00  0.00    -0.005 A 
HETATM   10  C8  UNL     1      26.307   2.190  50.994  1.00  0.00     0.017 A 
HETATM   11  C9  UNL     1      26.458   3.102  49.958  1.00  0.00     0.045 A 
HETATM   12  C10 UNL     1      25.625   4.176  49.871  1.00  0.00     0.138 A 
HETATM   13  F1  UNL     1      25.712   5.106  48.888  1.00  0.00    -0.204 F 
HETATM   14  C11 UNL     1      24.643   4.330  50.828  1.00  0.00     0.073 A 
HETATM   15 CL1  UNL     1      23.533   5.680  50.790  1.00  0.00    -0.081 Cl
HETATM   16  C12 UNL     1      24.483   3.439  51.854  1.00  0.00     0.041 A 
HETATM   17  C13 UNL     1      24.358   0.507  53.387  1.00  0.00     0.025 A 
HETATM   18  C14 UNL     1      23.116   0.896  52.727  1.00  0.00     0.051 C 
HETATM   19  C15 UNL     1      21.882   0.763  53.196  1.00  0.00     0.079 C 
ENDROOT
BRANCH  19  20
HETATM   20  O2  UNL     1      20.917   1.231  52.324  1.00  0.00    -0.352 OA
BRANCH  20  21
HETATM   21  C16 UNL     1      20.125   2.351  52.479  1.00  0.00     0.177 C 
BRANCH  21  22
HETATM   22  C17 UNL     1      20.810   3.630  51.993  1.00  0.00     0.046 C 
BRANCH  22  23
HETATM   23  C18 UNL     1      20.026   4.302  50.930  1.00  0.00     0.119 C 
BRANCH  23  24
HETATM   24  N3  UNL     1      20.355   4.030  49.597  1.00  0.00    -0.408 N 
HETATM   25  C19 UNL     1      19.212   3.942  48.741  1.00  0.00     0.143 C 
HETATM   26  C20 UNL     1      18.649   2.545  48.883  1.00  0.00     0.187 C 
HETATM   27  O3  UNL     1      19.625   1.604  49.147  1.00  0.00    -0.388 OA
HETATM   28  C21 UNL     1      20.864   1.940  48.610  1.00  0.00     0.187 C 
HETATM   29  C22 UNL     1      21.427   3.185  49.275  1.00  0.00     0.143 C 
ENDBRANCH  23  24
ENDBRANCH  22  23
ENDBRANCH  21  22
ENDBRANCH  20  21
ENDBRANCH  19  20
BRANCH   1  30
HETATM   30  O1  UNL     1      20.051  -0.189  54.380  1.00  0.00    -0.385 OA
HETATM   31  H1  UNL     1      19.516   0.250  55.085  1.00  0.00     0.210 HD
ENDBRANCH   1  30
TORSDOF 6
ENDMDL
MODEL 7
REMARK VINA RESULT:      -8.4      3.169      4.959
REMARK  6 active torsions:
REMARK  status: ('A' for Active; 'I' for Inactive)
REMARK    1  A    between atoms: O1_1  and  C1_2 
REMARK    2  A    between atoms: C15_20  and  O2_21 
REMARK    3  A    between atoms: O2_21  and  C16_22 
REMARK    4  A    between atoms: C16_22  and  C17_23 
REMARK    5  A    between atoms: C17_23  and  C18_24 
REMARK    6  A    between atoms: C18_24  and  N3_25 
ROOT
HETATM    1  C1  UNL     1      26.665   2.434  51.384  1.00  0.00     0.197 C 
HETATM    2  C2  UNL     1      27.448   2.205  52.621  1.00  0.00     0.013 C 
HETATM    3  C3  UNL     1      27.238   1.492  53.743  1.00  0.00     0.031 C 
HETATM    4  C4  UNL     1      25.999   0.710  53.936  1.00  0.00     0.070 A 
HETATM    5  N1  UNL     1      26.170  -0.308  54.796  1.00  0.00    -0.241 NA
HETATM    6  C5  UNL     1      25.093  -1.091  55.038  1.00  0.00     0.234 A 
HETATM    7  N2  UNL     1      23.859  -0.922  54.478  1.00  0.00    -0.240 NA
HETATM    8  C6  UNL     1      23.654   0.105  53.600  1.00  0.00     0.081 A 
HETATM    9  C7  UNL     1      22.348   0.250  53.029  1.00  0.00    -0.005 A 
HETATM   10  C8  UNL     1      21.353   0.191  54.010  1.00  0.00     0.017 A 
HETATM   11  C9  UNL     1      20.001   0.290  53.708  1.00  0.00     0.045 A 
HETATM   12  C10 UNL     1      19.603   0.452  52.415  1.00  0.00     0.138 A 
HETATM   13  F1  UNL     1      18.303   0.557  52.045  1.00  0.00    -0.204 F 
HETATM   14  C11 UNL     1      20.567   0.514  51.430  1.00  0.00     0.073 A 
HETATM   15 CL1  UNL     1      20.143   0.721  49.747  1.00  0.00    -0.081 Cl
HETATM   16  C12 UNL     1      21.902   0.418  51.714  1.00  0.00     0.041 A 
HETATM   17  C13 UNL     1      24.736   0.887  53.360  1.00  0.00     0.025 A 
HETATM   18  C14 UNL     1      24.392   1.961  52.433  1.00  0.00     0.051 C 
HETATM   19  C15 UNL     1      25.211   2.602  51.609  1.00  0.00     0.079 C 
ENDROOT
BRANCH  19  20
HETATM   20  O2  UNL     1      24.574   3.571  50.857  1.00  0.00    -0.352 OA
BRANCH  20  21
HETATM   21  C16 UNL     1      23.223   3.667  50.590  1.00  0.00     0.177 C 
BRANCH  21  22
HETATM   22  C17 UNL     1      22.661   5.059  50.888  1.00  0.00     0.046 C 
BRANCH  22  23
HETATM   23  C18 UNL     1      22.573   5.888  49.662  1.00  0.00     0.119 C 
BRANCH  23  24
HETATM   24  N3  UNL     1      23.390   7.021  49.573  1.00  0.00    -0.408 N 
HETATM   25  C19 UNL     1      24.136   7.084  48.354  1.00  0.00     0.143 C 
HETATM   26  C20 UNL     1      25.363   6.217  48.530  1.00  0.00     0.187 C 
HETATM   27  O3  UNL     1      25.812   6.194  49.836  1.00  0.00    -0.388 OA
HETATM   28  C21 UNL     1      25.527   7.365  50.531  1.00  0.00     0.187 C 
HETATM   29  C22 UNL     1      24.028   7.543  50.708  1.00  0.00     0.143 C 
ENDBRANCH  23  24
ENDBRANCH  22  23
ENDBRANCH  21  22
ENDBRANCH  20  21
ENDBRANCH  19  20
BRANCH   1  30
HETATM   30  O1  UNL     1      27.217   3.599  50.808  1.00  0.00    -0.385 OA
HETATM   31  H1  UNL     1      28.203   3.569  50.859  1.00  0.00     0.210 HD
ENDBRANCH   1  30
TORSDOF 6
ENDMDL
MODEL 8
REMARK VINA RESULT:      -8.4      2.409      3.035
REMARK  6 active torsions:
REMARK  status: ('A' for Active; 'I' for Inactive)
REMARK    1  A    between atoms: O1_1  and  C1_2 
REMARK    2  A    between atoms: C15_20  and  O2_21 
REMARK    3  A    between atoms: O2_21  and  C16_22 
REMARK    4  A    between atoms: C16_22  and  C17_23 
REMARK    5  A    between atoms: C17_23  and  C18_24 
REMARK    6  A    between atoms: C18_24  and  N3_25 
ROOT
HETATM    1  C1  UNL     1      19.828   1.779  49.593  1.00  0.00     0.197 C 
HETATM    2  C2  UNL     1      18.826   0.911  50.256  1.00  0.00     0.013 C 
HETATM    3  C3  UNL     1      18.818   0.187  51.390  1.00  0.00     0.031 C 
HETATM    4  C4  UNL     1      19.995   0.145  52.283  1.00  0.00     0.070 A 
HETATM    5  N1  UNL     1      19.661  -0.151  53.550  1.00  0.00    -0.241 NA
HETATM    6  C5  UNL     1      20.670  -0.209  54.450  1.00  0.00     0.234 A 
HETATM    7  N2  UNL     1      21.988   0.008  54.166  1.00  0.00    -0.240 NA
HETATM    8  C6  UNL     1      22.359   0.311  52.886  1.00  0.00     0.081 A 
HETATM    9  C7  UNL     1      23.750   0.535  52.625  1.00  0.00    -0.005 A 
HETATM   10  C8  UNL     1      24.543  -0.475  53.177  1.00  0.00     0.017 A 
HETATM   11  C9  UNL     1      25.928  -0.477  53.075  1.00  0.00     0.045 A 
HETATM   12  C10 UNL     1      26.561   0.533  52.416  1.00  0.00     0.138 A 
HETATM   13  F1  UNL     1      27.908   0.599  52.276  1.00  0.00    -0.204 F 
HETATM   14  C11 UNL     1      25.800   1.542  51.864  1.00  0.00     0.073 A 
HETATM   15 CL1  UNL     1      26.534   2.875  51.002  1.00  0.00    -0.081 Cl
HETATM   16  C12 UNL     1      24.435   1.555  51.957  1.00  0.00     0.041 A 
HETATM   17  C13 UNL     1      21.344   0.368  51.987  1.00  0.00     0.025 A 
HETATM   18  C14 UNL     1      21.861   0.671  50.656  1.00  0.00     0.051 C 
HETATM   19  C15 UNL     1      21.215   1.263  49.660  1.00  0.00     0.079 C 
ENDROOT
BRANCH  19  20
HETATM   20  O2  UNL     1      21.987   1.406  48.522  1.00  0.00    -0.352 OA
BRANCH  20  21
HETATM   21  C16 UNL     1      22.402   2.586  47.938  1.00  0.00     0.177 C 
BRANCH  21  22
HETATM   22  C17 UNL     1      23.079   3.530  48.933  1.00  0.00     0.046 C 
BRANCH  22  23
HETATM   23  C18 UNL     1      22.344   4.811  49.061  1.00  0.00     0.119 C 
BRANCH  23  24
HETATM   24  N3  UNL     1      21.894   5.189  50.332  1.00  0.00    -0.408 N 
HETATM   25  C19 UNL     1      22.081   6.580  50.606  1.00  0.00     0.143 C 
HETATM   26  C20 UNL     1      23.511   6.761  51.063  1.00  0.00     0.187 C 
HETATM   27  O3  UNL     1      23.996   5.659  51.739  1.00  0.00    -0.388 OA
HETATM   28  C21 UNL     1      23.003   4.952  52.410  1.00  0.00     0.187 C 
HETATM   29  C22 UNL     1      22.024   4.325  51.430  1.00  0.00     0.143 C 
ENDBRANCH  23  24
ENDBRANCH  22  23
ENDBRANCH  21  22
ENDBRANCH  20  21
ENDBRANCH  19  20
BRANCH   1  30
HETATM   30  O1  UNL     1      19.399   1.881  48.252  1.00  0.00    -0.385 OA
HETATM   31  H1  UNL     1      19.984   2.504  47.755  1.00  0.00     0.210 HD
ENDBRANCH   1  30
TORSDOF 6
ENDMDL
MODEL 9
REMARK VINA RESULT:      -8.3      3.109      4.992
REMARK  6 active torsions:
REMARK  status: ('A' for Active; 'I' for Inactive)
REMARK    1  A    between atoms: O1_1  and  C1_2 
REMARK    2  A    between atoms: C15_20  and  O2_21 
REMARK    3  A    between atoms: O2_21  and  C16_22 
REMARK    4  A    between atoms: C16_22  and  C17_23 
REMARK    5  A    between atoms: C17_23  and  C18_24 
REMARK    6  A    between atoms: C18_24  and  N3_25 
ROOT
HETATM    1  C1  UNL     1      27.237   1.048  52.770  1.00  0.00     0.197 C 
HETATM    2  C2  UNL     1      27.220   0.579  54.176  1.00  0.00     0.013 C 
HETATM    3  C3  UNL     1      26.277   0.047  54.974  1.00  0.00     0.031 C 
HETATM    4  C4  UNL     1      24.901  -0.185  54.489  1.00  0.00     0.070 A 
HETATM    5  N1  UNL     1      24.277  -1.156  55.175  1.00  0.00    -0.241 NA
HETATM    6  C5  UNL     1      23.009  -1.450  54.804  1.00  0.00     0.234 A 
HETATM    7  N2  UNL     1      22.326  -0.835  53.793  1.00  0.00    -0.240 NA
HETATM    8  C6  UNL     1      22.934   0.157  53.077  1.00  0.00     0.081 A 
HETATM    9  C7  UNL     1      22.189   0.777  52.022  1.00  0.00    -0.005 A 
HETATM   10  C8  UNL     1      20.909   1.146  52.448  1.00  0.00     0.017 A 
HETATM   11  C9  UNL     1      19.987   1.752  51.605  1.00  0.00     0.045 A 
HETATM   12  C10 UNL     1      20.317   2.007  50.309  1.00  0.00     0.138 A 
HETATM   13  F1  UNL     1      19.470   2.595  49.428  1.00  0.00    -0.204 F 
HETATM   14  C11 UNL     1      21.575   1.652  49.865  1.00  0.00     0.073 A 
HETATM   15 CL1  UNL     1      22.078   1.945  48.216  1.00  0.00    -0.081 Cl
HETATM   16  C12 UNL     1      22.492   1.055  50.685  1.00  0.00     0.041 A 
HETATM   17  C13 UNL     1      24.205   0.448  53.453  1.00  0.00     0.025 A 
HETATM   18  C14 UNL     1      24.740   1.535  52.639  1.00  0.00     0.051 C 
HETATM   19  C15 UNL     1      26.014   1.776  52.360  1.00  0.00     0.079 C 
ENDROOT
BRANCH  19  20
HETATM   20  O2  UNL     1      26.193   2.888  51.558  1.00  0.00    -0.352 OA
BRANCH  20  21
HETATM   21  C16 UNL     1      26.225   2.926  50.179  1.00  0.00     0.177 C 
BRANCH  21  22
HETATM   22  C17 UNL     1      25.671   4.236  49.613  1.00  0.00     0.046 C 
BRANCH  22  23
HETATM   23  C18 UNL     1      24.191   4.211  49.522  1.00  0.00     0.119 C 
BRANCH  23  24
HETATM   24  N3  UNL     1      23.483   5.320  50.001  1.00  0.00    -0.408 N 
HETATM   25  C19 UNL     1      24.017   5.847  51.218  1.00  0.00     0.143 C 
HETATM   26  C20 UNL     1      23.467   5.010  52.352  1.00  0.00     0.187 C 
HETATM   27  O3  UNL     1      22.203   4.521  52.085  1.00  0.00    -0.388 OA
HETATM   28  C21 UNL     1      21.467   5.345  51.241  1.00  0.00     0.187 C 
HETATM   29  C22 UNL     1      22.090   5.404  49.856  1.00  0.00     0.143 C 
ENDBRANCH  23  24
ENDBRANCH  22  23
ENDBRANCH  21  22
ENDBRANCH  20  21
ENDBRANCH  19  20
BRANCH   1  30
HETATM   30  O1  UNL     1      28.370   1.884  52.673  1.00  0.00    -0.385 OA
HETATM   31  H1  UNL     1      28.159   2.681  52.128  1.00  0.00     0.210 HD
ENDBRANCH   1  30
TORSDOF 6
ENDMDL
