MODEL 1
REMARK VINA RESULT:      -7.4      0.000      0.000
REMARK  7 active torsions:
REMARK  status: ('A' for Active; 'I' for Inactive)
REMARK    1  A    between atoms: O1_1  and  C1_2 
REMARK    2  A    between atoms: C1_2  and  O2_3 
REMARK    3  A    between atoms: C1_2  and  C2_4 
REMARK    4  A    between atoms: C2_4  and  C3_5 
REMARK    5  A    between atoms: C4_6  and  C5_7 
REMARK    6  A    between atoms: C5_7  and  C6_8 
REMARK    7  A    between atoms: N3_14  and  C10_15 
ROOT
HETATM    1  C6  UNL     1      27.473   6.356  48.126  1.00  0.00    -0.057 A 
HETATM    2  C7  UNL     1      28.258   7.278  47.609  1.00  0.00     0.010 A 
HETATM    3  C8  UNL     1      29.701   7.485  47.235  1.00  0.00     0.160 A 
HETATM    4  N1  UNL     1      30.254   8.609  47.940  1.00  0.00    -0.272 NA
HETATM    5  C9  UNL     1      30.993   8.517  48.958  1.00  0.00     0.217 C 
HETATM    6  N2  UNL     1      31.359   7.260  49.515  1.00  0.00    -0.295 N 
HETATM    7  N3  UNL     1      31.550   6.384  48.472  1.00  0.00    -0.304 N 
HETATM    8  C15 UNL     1      30.470   6.245  47.561  1.00  0.00     0.154 A 
HETATM    9  C16 UNL     1      29.527   5.243  48.142  1.00  0.00     0.003 A 
HETATM   10  C17 UNL     1      28.244   5.137  48.444  1.00  0.00     0.005 A 
HETATM   11  H13 UNL     1      31.406   7.273  50.578  1.00  0.00     0.187 HD
ENDROOT
BRANCH   1  12
HETATM   12  C5  UNL     1      26.019   6.365  48.418  1.00  0.00     0.065 C 
BRANCH  12  13
HETATM   13  C4  UNL     1      25.738   6.689  49.839  1.00  0.00    -0.026 C 
HETATM   14  C3  UNL     1      25.658   7.831  50.474  1.00  0.00    -0.026 C 
BRANCH  14  15
HETATM   15  C2  UNL     1      25.850   9.147  49.844  1.00  0.00     0.087 C 
BRANCH  15  16
HETATM   16  C1  UNL     1      27.310   9.593  49.951  1.00  0.00     0.257 C 
BRANCH  16  17
HETATM   17  O1  UNL     1      27.656   9.503  51.285  1.00  0.00    -0.371 OA
HETATM   18  H1  UNL     1      28.608   9.226  51.329  1.00  0.00     0.212 HD
ENDBRANCH  16  17
BRANCH  16  19
HETATM   19  O2  UNL     1      27.465  10.866  49.434  1.00  0.00    -0.371 OA
HETATM   20  H3  UNL     1      27.781  11.537  50.059  1.00  0.00     0.212 HD
ENDBRANCH  16  19
ENDBRANCH  15  16
ENDBRANCH  14  15
ENDBRANCH  12  13
ENDBRANCH   1  12
BRANCH   7  21
HETATM   21  C10 UNL     1      32.851   6.504  47.912  1.00  0.00     0.150 A 
HETATM   22  C11 UNL     1      33.925   6.057  48.827  1.00  0.00     0.005 A 
HETATM   23  C12 UNL     1      34.674   5.166  48.179  1.00  0.00     0.017 A 
HETATM   24  C13 UNL     1      34.174   4.958  46.830  1.00  0.00     0.009 A 
HETATM   25 BR1  UNL     1      35.025   3.737  45.630  1.00  0.00    -0.051 Br
HETATM   26  C14 UNL     1      33.102   5.749  46.683  1.00  0.00     0.022 A 
ENDBRANCH   7  21
TORSDOF 7
ENDMDL
MODEL 2
REMARK VINA RESULT:      -7.4      6.621      8.687
REMARK  7 active torsions:
REMARK  status: ('A' for Active; 'I' for Inactive)
REMARK    1  A    between atoms: O1_1  and  C1_2 
REMARK    2  A    between atoms: C1_2  and  O2_3 
REMARK    3  A    between atoms: C1_2  and  C2_4 
REMARK    4  A    between atoms: C2_4  and  C3_5 
REMARK    5  A    between atoms: C4_6  and  C5_7 
REMARK    6  A    between atoms: C5_7  and  C6_8 
REMARK    7  A    between atoms: N3_14  and  C10_15 
ROOT
HETATM    1  C6  UNL     1      25.504   1.208  51.753  1.00  0.00    -0.057 A 
HETATM    2  C7  UNL     1      24.265   1.621  51.589  1.00  0.00     0.010 A 
HETATM    3  C8  UNL     1      23.503   2.771  50.986  1.00  0.00     0.160 A 
HETATM    4  N1  UNL     1      22.697   3.425  51.981  1.00  0.00    -0.272 NA
HETATM    5  C9  UNL     1      23.008   4.508  52.548  1.00  0.00     0.217 C 
HETATM    6  N2  UNL     1      24.214   5.201  52.245  1.00  0.00    -0.295 N 
HETATM    7  N3  UNL     1      24.443   5.066  50.896  1.00  0.00    -0.304 N 
HETATM    8  C15 UNL     1      24.474   3.738  50.393  1.00  0.00     0.154 A 
HETATM    9  C16 UNL     1      25.856   3.216  50.611  1.00  0.00     0.003 A 
HETATM   10  C17 UNL     1      26.454   2.174  51.162  1.00  0.00     0.005 A 
HETATM   11  H13 UNL     1      24.657   5.658  53.099  1.00  0.00     0.187 HD
ENDROOT
BRANCH   1  12
HETATM   12  C5  UNL     1      26.051  -0.006  52.404  1.00  0.00     0.065 C 
BRANCH  12  13
HETATM   13  C4  UNL     1      26.159   0.151  53.876  1.00  0.00    -0.026 C 
HETATM   14  C3  UNL     1      27.180   0.406  54.653  1.00  0.00    -0.026 C 
BRANCH  14  15
HETATM   15  C2  UNL     1      28.558   0.608  54.176  1.00  0.00     0.087 C 
BRANCH  15  16
HETATM   16  C1  UNL     1      28.844   2.096  53.961  1.00  0.00     0.257 C 
BRANCH  16  17
HETATM   17  O1  UNL     1      29.894   2.424  54.794  1.00  0.00    -0.371 OA
HETATM   18  H1  UNL     1      29.895   1.775  55.545  1.00  0.00     0.212 HD
ENDBRANCH  16  17
BRANCH  16  19
HETATM   19  O2  UNL     1      27.706   2.845  54.200  1.00  0.00    -0.371 OA
HETATM   20  H3  UNL     1      26.878   2.471  53.860  1.00  0.00     0.212 HD
ENDBRANCH  16  19
ENDBRANCH  15  16
ENDBRANCH  14  15
ENDBRANCH  12  13
ENDBRANCH   1  12
BRANCH   7  21
HETATM   21  C10 UNL     1      23.714   6.023  50.138  1.00  0.00     0.150 A 
HETATM   22  C11 UNL     1      23.906   7.413  50.610  1.00  0.00     0.005 A 
HETATM   23  C12 UNL     1      24.276   8.154  49.567  1.00  0.00     0.017 A 
HETATM   24  C13 UNL     1      24.356   7.345  48.362  1.00  0.00     0.009 A 
HETATM   25 BR1  UNL     1      24.863   8.106  46.684  1.00  0.00    -0.051 Br
HETATM   26  C14 UNL     1      24.024   6.093  48.709  1.00  0.00     0.022 A 
ENDBRANCH   7  21
TORSDOF 7
ENDMDL
MODEL 3
REMARK VINA RESULT:      -7.4      8.236     11.026
REMARK  7 active torsions:
REMARK  status: ('A' for Active; 'I' for Inactive)
REMARK    1  A    between atoms: O1_1  and  C1_2 
REMARK    2  A    between atoms: C1_2  and  O2_3 
REMARK    3  A    between atoms: C1_2  and  C2_4 
REMARK    4  A    between atoms: C2_4  and  C3_5 
REMARK    5  A    between atoms: C4_6  and  C5_7 
REMARK    6  A    between atoms: C5_7  and  C6_8 
REMARK    7  A    between atoms: N3_14  and  C10_15 
ROOT
HETATM    1  C6  UNL     1      24.711   0.406  53.430  1.00  0.00    -0.057 A 
HETATM    2  C7  UNL     1      24.756   1.701  53.193  1.00  0.00     0.010 A 
HETATM    3  C8  UNL     1      23.874   2.811  52.690  1.00  0.00     0.160 A 
HETATM    4  N1  UNL     1      24.449   3.433  51.529  1.00  0.00    -0.272 NA
HETATM    5  C9  UNL     1      24.081   3.205  50.344  1.00  0.00     0.217 C 
HETATM    6  N2  UNL     1      23.034   2.290  50.041  1.00  0.00    -0.295 N 
HETATM    7  N3  UNL     1      22.079   2.412  51.024  1.00  0.00    -0.304 N 
HETATM    8  C15 UNL     1      22.528   2.251  52.361  1.00  0.00     0.154 A 
HETATM    9  C16 UNL     1      22.542   0.786  52.650  1.00  0.00     0.003 A 
HETATM   10  C17 UNL     1      23.376  -0.135  53.100  1.00  0.00     0.005 A 
HETATM   11  H13 UNL     1      23.211   1.734  49.151  1.00  0.00     0.187 HD
ENDROOT
BRANCH   1  12
HETATM   12  C5  UNL     1      25.740  -0.527  53.946  1.00  0.00     0.065 C 
BRANCH  12  13
HETATM   13  C4  UNL     1      26.931  -0.590  53.062  1.00  0.00    -0.026 C 
HETATM   14  C3  UNL     1      28.150  -0.138  53.206  1.00  0.00    -0.026 C 
BRANCH  14  15
HETATM   15  C2  UNL     1      28.631   0.592  54.391  1.00  0.00     0.087 C 
BRANCH  15  16
HETATM   16  C1  UNL     1      28.972   2.040  54.033  1.00  0.00     0.257 C 
BRANCH  16  17
HETATM   17  O1  UNL     1      29.956   2.446  54.913  1.00  0.00    -0.371 OA
HETATM   18  H1  UNL     1      29.623   2.279  55.833  1.00  0.00     0.212 HD
ENDBRANCH  16  17
BRANCH  16  19
HETATM   19  O2  UNL     1      27.838   2.830  54.085  1.00  0.00    -0.371 OA
HETATM   20  H3  UNL     1      27.290   2.727  54.878  1.00  0.00     0.212 HD
ENDBRANCH  16  19
ENDBRANCH  15  16
ENDBRANCH  14  15
ENDBRANCH  12  13
ENDBRANCH   1  12
BRANCH   7  21
HETATM   21  C10 UNL     1      21.194   3.495  50.769  1.00  0.00     0.150 A 
HETATM   22  C11 UNL     1      20.563   3.433  49.431  1.00  0.00     0.005 A 
HETATM   23  C12 UNL     1      19.245   3.529  49.593  1.00  0.00     0.017 A 
HETATM   24  C13 UNL     1      18.906   3.657  51.000  1.00  0.00     0.009 A 
HETATM   25 BR1  UNL     1      17.091   3.816  51.577  1.00  0.00    -0.051 Br
HETATM   26  C14 UNL     1      20.059   3.636  51.684  1.00  0.00     0.022 A 
ENDBRANCH   7  21
TORSDOF 7
ENDMDL
MODEL 4
REMARK VINA RESULT:      -7.3      6.002      8.720
REMARK  7 active torsions:
REMARK  status: ('A' for Active; 'I' for Inactive)
REMARK    1  A    between atoms: O1_1  and  C1_2 
REMARK    2  A    between atoms: C1_2  and  O2_3 
REMARK    3  A    between atoms: C1_2  and  C2_4 
REMARK    4  A    between atoms: C2_4  and  C3_5 
REMARK    5  A    between atoms: C4_6  and  C5_7 
REMARK    6  A    between atoms: C5_7  and  C6_8 
REMARK    7  A    between atoms: N3_14  and  C10_15 
ROOT
HETATM    1  C6  UNL     1      26.447   5.266  49.237  1.00  0.00    -0.057 A 
HETATM    2  C7  UNL     1      25.331   5.659  49.816  1.00  0.00     0.010 A 
HETATM    3  C8  UNL     1      24.181   5.092  50.604  1.00  0.00     0.160 A 
HETATM    4  N1  UNL     1      22.933   5.346  49.937  1.00  0.00    -0.272 NA
HETATM    5  C9  UNL     1      22.305   4.491  49.254  1.00  0.00     0.217 C 
HETATM    6  N2  UNL     1      22.786   3.163  49.078  1.00  0.00    -0.295 N 
HETATM    7  N3  UNL     1      23.369   2.773  50.261  1.00  0.00    -0.304 N 
HETATM    8  C15 UNL     1      24.385   3.622  50.773  1.00  0.00     0.154 A 
HETATM    9  C16 UNL     1      25.661   3.241  50.097  1.00  0.00     0.003 A 
HETATM   10  C17 UNL     1      26.637   3.811  49.411  1.00  0.00     0.005 A 
HETATM   11  H13 UNL     1      22.594   2.776  48.105  1.00  0.00     0.187 HD
ENDROOT
BRANCH   1  12
HETATM   12  C5  UNL     1      27.474   6.024  48.484  1.00  0.00     0.065 C 
BRANCH  12  13
HETATM   13  C4  UNL     1      28.675   5.200  48.195  1.00  0.00    -0.026 C 
HETATM   14  C3  UNL     1      29.951   5.488  48.191  1.00  0.00    -0.026 C 
BRANCH  14  15
HETATM   15  C2  UNL     1      30.504   6.816  48.504  1.00  0.00     0.087 C 
BRANCH  15  16
HETATM   16  C1  UNL     1      31.608   6.708  49.558  1.00  0.00     0.257 C 
BRANCH  16  17
HETATM   17  O1  UNL     1      31.332   5.586  50.311  1.00  0.00    -0.371 OA
HETATM   18  H1  UNL     1      31.555   5.796  51.255  1.00  0.00     0.212 HD
ENDBRANCH  16  17
BRANCH  16  19
HETATM   19  O2  UNL     1      31.671   7.867  50.311  1.00  0.00    -0.371 OA
HETATM   20  H3  UNL     1      32.557   8.241  50.432  1.00  0.00     0.212 HD
ENDBRANCH  16  19
ENDBRANCH  15  16
ENDBRANCH  14  15
ENDBRANCH  12  13
ENDBRANCH   1  12
BRANCH   7  21
HETATM   21  C10 UNL     1      22.406   2.291  51.190  1.00  0.00     0.150 A 
HETATM   22  C11 UNL     1      21.569   1.196  50.651  1.00  0.00     0.005 A 
HETATM   23  C12 UNL     1      21.626   0.176  51.505  1.00  0.00     0.017 A 
HETATM   24  C13 UNL     1      22.475   0.500  52.639  1.00  0.00     0.009 A 
HETATM   25 BR1  UNL     1      22.770  -0.753  54.052  1.00  0.00    -0.051 Br
HETATM   26  C14 UNL     1      22.929   1.746  52.444  1.00  0.00     0.022 A 
ENDBRANCH   7  21
TORSDOF 7
ENDMDL
MODEL 5
REMARK VINA RESULT:      -7.3      5.201      7.894
REMARK  7 active torsions:
REMARK  status: ('A' for Active; 'I' for Inactive)
REMARK    1  A    between atoms: O1_1  and  C1_2 
REMARK    2  A    between atoms: C1_2  and  O2_3 
REMARK    3  A    between atoms: C1_2  and  C2_4 
REMARK    4  A    between atoms: C2_4  and  C3_5 
REMARK    5  A    between atoms: C4_6  and  C5_7 
REMARK    6  A    between atoms: C5_7  and  C6_8 
REMARK    7  A    between atoms: N3_14  and  C10_15 
ROOT
HETATM    1  C6  UNL     1      27.376   6.310  48.506  1.00  0.00    -0.057 A 
HETATM    2  C7  UNL     1      26.343   6.687  49.232  1.00  0.00     0.010 A 
HETATM    3  C8  UNL     1      25.286   6.097  50.126  1.00  0.00     0.160 A 
HETATM    4  N1  UNL     1      23.972   6.394  49.625  1.00  0.00    -0.272 NA
HETATM    5  C9  UNL     1      23.254   5.578  48.984  1.00  0.00     0.217 C 
HETATM    6  N2  UNL     1      23.689   4.255  48.694  1.00  0.00    -0.295 N 
HETATM    7  N3  UNL     1      24.402   3.804  49.780  1.00  0.00    -0.304 N 
HETATM    8  C15 UNL     1      25.485   4.618  50.203  1.00  0.00     0.154 A 
HETATM    9  C16 UNL     1      26.665   4.255  49.363  1.00  0.00     0.003 A 
HETATM   10  C17 UNL     1      27.561   4.846  48.592  1.00  0.00     0.005 A 
HETATM   11  H13 UNL     1      23.376   3.915  47.734  1.00  0.00     0.187 HD
ENDROOT
BRANCH   1  12
HETATM   12  C5  UNL     1      28.318   7.090  47.670  1.00  0.00     0.065 C 
BRANCH  12  13
HETATM   13  C4  UNL     1      29.365   7.757  48.483  1.00  0.00    -0.026 C 
HETATM   14  C3  UNL     1      30.612   7.444  48.727  1.00  0.00    -0.026 C 
BRANCH  14  15
HETATM   15  C2  UNL     1      31.290   6.253  48.189  1.00  0.00     0.087 C 
BRANCH  15  16
HETATM   16  C1  UNL     1      32.100   5.551  49.282  1.00  0.00     0.257 C 
BRANCH  16  17
HETATM   17  O1  UNL     1      32.407   4.293  48.803  1.00  0.00    -0.371 OA
HETATM   18  H1  UNL     1      33.393   4.190  48.842  1.00  0.00     0.212 HD
ENDBRANCH  16  17
BRANCH  16  19
HETATM   19  O2  UNL     1      31.388   5.522  50.467  1.00  0.00    -0.371 OA
HETATM   20  H3  UNL     1      31.672   4.856  51.112  1.00  0.00     0.212 HD
ENDBRANCH  16  19
ENDBRANCH  15  16
ENDBRANCH  14  15
ENDBRANCH  12  13
ENDBRANCH   1  12
BRANCH   7  21
HETATM   21  C10 UNL     1      23.549   3.291  50.795  1.00  0.00     0.150 A 
HETATM   22  C11 UNL     1      22.587   2.282  50.296  1.00  0.00     0.005 A 
HETATM   23  C12 UNL     1      22.703   1.193  51.054  1.00  0.00     0.017 A 
HETATM   24  C13 UNL     1      23.715   1.384  52.080  1.00  0.00     0.009 A 
HETATM   25 BR1  UNL     1      24.129   0.006  53.338  1.00  0.00    -0.051 Br
HETATM   26  C14 UNL     1      24.207   2.620  51.918  1.00  0.00     0.022 A 
ENDBRANCH   7  21
TORSDOF 7
ENDMDL
MODEL 6
REMARK VINA RESULT:      -7.3      1.862      2.491
REMARK  7 active torsions:
REMARK  status: ('A' for Active; 'I' for Inactive)
REMARK    1  A    between atoms: O1_1  and  C1_2 
REMARK    2  A    between atoms: C1_2  and  O2_3 
REMARK    3  A    between atoms: C1_2  and  C2_4 
REMARK    4  A    between atoms: C2_4  and  C3_5 
REMARK    5  A    between atoms: C4_6  and  C5_7 
REMARK    6  A    between atoms: C5_7  and  C6_8 
REMARK    7  A    between atoms: N3_14  and  C10_15 
ROOT
HETATM    1  C6  UNL     1      27.545   6.467  48.336  1.00  0.00    -0.057 A 
HETATM    2  C7  UNL     1      28.356   7.427  47.942  1.00  0.00     0.010 A 
HETATM    3  C8  UNL     1      29.797   7.632  47.557  1.00  0.00     0.160 A 
HETATM    4  N1  UNL     1      30.417   8.610  48.409  1.00  0.00    -0.272 NA
HETATM    5  C9  UNL     1      31.180   8.329  49.374  1.00  0.00     0.217 C 
HETATM    6  N2  UNL     1      31.505   6.986  49.715  1.00  0.00    -0.295 N 
HETATM    7  N3  UNL     1      31.627   6.278  48.543  1.00  0.00    -0.304 N 
HETATM    8  C15 UNL     1      30.518   6.328  47.659  1.00  0.00     0.154 A 
HETATM    9  C16 UNL     1      29.548   5.285  48.108  1.00  0.00     0.003 A 
HETATM   10  C17 UNL     1      28.271   5.183  48.433  1.00  0.00     0.005 A 
HETATM   11  H13 UNL     1      31.582   6.830  50.766  1.00  0.00     0.187 HD
ENDROOT
BRANCH   1  12
HETATM   12  C5  UNL     1      26.103   6.487  48.676  1.00  0.00     0.065 C 
BRANCH  12  13
HETATM   13  C4  UNL     1      25.590   5.134  49.010  1.00  0.00    -0.026 C 
HETATM   14  C3  UNL     1      24.529   4.741  49.667  1.00  0.00    -0.026 C 
BRANCH  14  15
HETATM   15  C2  UNL     1      23.535   5.650  50.260  1.00  0.00     0.087 C 
BRANCH  15  16
HETATM   16  C1  UNL     1      23.672   5.683  51.784  1.00  0.00     0.257 C 
BRANCH  16  17
HETATM   17  O1  UNL     1      24.427   6.797  52.092  1.00  0.00    -0.371 OA
HETATM   18  H1  UNL     1      23.967   7.587  51.706  1.00  0.00     0.212 HD
ENDBRANCH  16  17
BRANCH  16  19
HETATM   19  O2  UNL     1      24.230   4.504  52.243  1.00  0.00    -0.371 OA
HETATM   20  H3  UNL     1      23.605   3.855  52.603  1.00  0.00     0.212 HD
ENDBRANCH  16  19
ENDBRANCH  15  16
ENDBRANCH  14  15
ENDBRANCH  12  13
ENDBRANCH   1  12
BRANCH   7  21
HETATM   21  C10 UNL     1      32.917   6.434  47.964  1.00  0.00     0.150 A 
HETATM   22  C11 UNL     1      34.010   5.931  48.827  1.00  0.00     0.005 A 
HETATM   23  C12 UNL     1      34.744   5.083  48.109  1.00  0.00     0.017 A 
HETATM   24  C13 UNL     1      34.216   4.958  46.761  1.00  0.00     0.009 A 
HETATM   25 BR1  UNL     1      35.041   3.814  45.471  1.00  0.00    -0.051 Br
HETATM   26  C14 UNL     1      33.142   5.756  46.686  1.00  0.00     0.022 A 
ENDBRANCH   7  21
TORSDOF 7
ENDMDL
MODEL 7
REMARK VINA RESULT:      -7.0      4.294      5.916
REMARK  7 active torsions:
REMARK  status: ('A' for Active; 'I' for Inactive)
REMARK    1  A    between atoms: O1_1  and  C1_2 
REMARK    2  A    between atoms: C1_2  and  O2_3 
REMARK    3  A    between atoms: C1_2  and  C2_4 
REMARK    4  A    between atoms: C2_4  and  C3_5 
REMARK    5  A    between atoms: C4_6  and  C5_7 
REMARK    6  A    between atoms: C5_7  and  C6_8 
REMARK    7  A    between atoms: N3_14  and  C10_15 
ROOT
HETATM    1  C6  UNL     1      24.810   3.929  49.597  1.00  0.00    -0.057 A 
HETATM    2  C7  UNL     1      24.320   5.075  49.173  1.00  0.00     0.010 A 
HETATM    3  C8  UNL     1      24.786   6.387  48.602  1.00  0.00     0.160 A 
HETATM    4  N1  UNL     1      24.371   7.482  49.435  1.00  0.00    -0.272 NA
HETATM    5  C9  UNL     1      25.124   8.079  50.252  1.00  0.00     0.217 C 
HETATM    6  N2  UNL     1      26.489   7.716  50.427  1.00  0.00    -0.295 N 
HETATM    7  N3  UNL     1      26.987   7.370  49.193  1.00  0.00    -0.304 N 
HETATM    8  C15 UNL     1      26.276   6.364  48.487  1.00  0.00     0.154 A 
HETATM    9  C16 UNL     1      26.769   5.044  48.981  1.00  0.00     0.003 A 
HETATM   10  C17 UNL     1      26.283   3.919  49.478  1.00  0.00     0.005 A 
HETATM   11  H13 UNL     1      26.814   7.792  51.438  1.00  0.00     0.187 HD
ENDROOT
BRANCH   1  12
HETATM   12  C5  UNL     1      24.141   2.724  50.143  1.00  0.00     0.065 C 
BRANCH  12  13
HETATM   13  C4  UNL     1      24.068   2.749  51.625  1.00  0.00    -0.026 C 
HETATM   14  C3  UNL     1      24.829   2.217  52.546  1.00  0.00    -0.026 C 
BRANCH  14  15
HETATM   15  C2  UNL     1      26.027   1.408  52.268  1.00  0.00     0.087 C 
BRANCH  15  16
HETATM   16  C1  UNL     1      27.242   1.963  53.015  1.00  0.00     0.257 C 
BRANCH  16  17
HETATM   17  O1  UNL     1      26.758   2.623  54.126  1.00  0.00    -0.371 OA
HETATM   18  H1  UNL     1      26.772   3.596  53.927  1.00  0.00     0.212 HD
ENDBRANCH  16  17
BRANCH  16  19
HETATM   19  O2  UNL     1      27.990   2.777  52.182  1.00  0.00    -0.371 OA
HETATM   20  H3  UNL     1      27.853   3.730  52.294  1.00  0.00     0.212 HD
ENDBRANCH  16  19
ENDBRANCH  15  16
ENDBRANCH  14  15
ENDBRANCH  12  13
ENDBRANCH   1  12
BRANCH   7  21
HETATM   21  C10 UNL     1      27.395   8.511  48.449  1.00  0.00     0.150 A 
HETATM   22  C11 UNL     1      28.632   9.136  48.969  1.00  0.00     0.005 A 
HETATM   23  C12 UNL     1      29.493   9.247  47.958  1.00  0.00     0.017 A 
HETATM   24  C13 UNL     1      28.917   8.723  46.731  1.00  0.00     0.009 A 
HETATM   25 BR1  UNL     1      29.896   8.732  45.089  1.00  0.00    -0.051 Br
HETATM   26  C14 UNL     1      27.684   8.292  47.030  1.00  0.00     0.022 A 
ENDBRANCH   7  21
TORSDOF 7
ENDMDL
MODEL 8
REMARK VINA RESULT:      -7.0     10.076     12.937
REMARK  7 active torsions:
REMARK  status: ('A' for Active; 'I' for Inactive)
REMARK    1  A    between atoms: O1_1  and  C1_2 
REMARK    2  A    between atoms: C1_2  and  O2_3 
REMARK    3  A    between atoms: C1_2  and  C2_4 
REMARK    4  A    between atoms: C2_4  and  C3_5 
REMARK    5  A    between atoms: C4_6  and  C5_7 
REMARK    6  A    between atoms: C5_7  and  C6_8 
REMARK    7  A    between atoms: N3_14  and  C10_15 
ROOT
HETATM    1  C6  UNL     1      24.070   1.712  53.053  1.00  0.00    -0.057 A 
HETATM    2  C7  UNL     1      23.783   0.427  53.051  1.00  0.00     0.010 A 
HETATM    3  C8  UNL     1      22.645  -0.499  52.717  1.00  0.00     0.160 A 
HETATM    4  N1  UNL     1      22.268  -1.277  53.866  1.00  0.00    -0.272 NA
HETATM    5  C9  UNL     1      21.268  -1.031  54.594  1.00  0.00     0.217 C 
HETATM    6  N2  UNL     1      20.397   0.065  54.337  1.00  0.00    -0.295 N 
HETATM    7  N3  UNL     1      20.274   0.187  52.973  1.00  0.00    -0.304 N 
HETATM    8  C15 UNL     1      21.484   0.311  52.240  1.00  0.00     0.154 A 
HETATM    9  C16 UNL     1      21.870   1.753  52.266  1.00  0.00     0.003 A 
HETATM   10  C17 UNL     1      22.913   2.502  52.580  1.00  0.00     0.005 A 
HETATM   11  H13 UNL     1      20.043   0.533  55.226  1.00  0.00     0.187 HD
ENDROOT
BRANCH   1  12
HETATM   12  C5  UNL     1      25.305   2.436  53.437  1.00  0.00     0.065 C 
BRANCH  12  13
HETATM   13  C4  UNL     1      26.440   2.119  52.536  1.00  0.00    -0.026 C 
HETATM   14  C3  UNL     1      27.503   1.373  52.699  1.00  0.00    -0.026 C 
BRANCH  14  15
HETATM   15  C2  UNL     1      27.812   0.626  53.929  1.00  0.00     0.087 C 
BRANCH  15  16
HETATM   16  C1  UNL     1      29.220   0.962  54.427  1.00  0.00     0.257 C 
BRANCH  16  17
HETATM   17  O1  UNL     1      29.192   2.277  54.844  1.00  0.00    -0.371 OA
HETATM   18  H1  UNL     1      29.894   2.387  55.537  1.00  0.00     0.212 HD
ENDBRANCH  16  17
BRANCH  16  19
HETATM   19  O2  UNL     1      30.152   0.726  53.433  1.00  0.00    -0.371 OA
HETATM   20  H3  UNL     1      30.458  -0.191  53.354  1.00  0.00     0.212 HD
ENDBRANCH  16  19
ENDBRANCH  15  16
ENDBRANCH  14  15
ENDBRANCH  12  13
ENDBRANCH   1  12
BRANCH   7  21
HETATM   21  C10 UNL     1      19.294  -0.701  52.451  1.00  0.00     0.150 A 
HETATM   22  C11 UNL     1      18.328  -1.171  53.469  1.00  0.00     0.005 A 
HETATM   23  C12 UNL     1      17.100  -0.932  53.012  1.00  0.00     0.017 A 
HETATM   24  C13 UNL     1      17.150  -0.306  51.701  1.00  0.00     0.009 A 
HETATM   25 BR1  UNL     1      15.554   0.170  50.763  1.00  0.00    -0.051 Br
HETATM   26  C14 UNL     1      18.445  -0.174  51.380  1.00  0.00     0.022 A 
ENDBRANCH   7  21
TORSDOF 7
ENDMDL
MODEL 9
REMARK VINA RESULT:      -7.0      7.636      9.942
REMARK  7 active torsions:
REMARK  status: ('A' for Active; 'I' for Inactive)
REMARK    1  A    between atoms: O1_1  and  C1_2 
REMARK    2  A    between atoms: C1_2  and  O2_3 
REMARK    3  A    between atoms: C1_2  and  C2_4 
REMARK    4  A    between atoms: C2_4  and  C3_5 
REMARK    5  A    between atoms: C4_6  and  C5_7 
REMARK    6  A    between atoms: C5_7  and  C6_8 
REMARK    7  A    between atoms: N3_14  and  C10_15 
ROOT
HETATM    1  C6  UNL     1      24.189   1.045  52.885  1.00  0.00    -0.057 A 
HETATM    2  C7  UNL     1      23.422   1.072  51.815  1.00  0.00     0.010 A 
HETATM    3  C8  UNL     1      22.806   2.062  50.864  1.00  0.00     0.160 A 
HETATM    4  N1  UNL     1      21.374   1.934  50.853  1.00  0.00    -0.272 NA
HETATM    5  C9  UNL     1      20.586   2.706  51.466  1.00  0.00     0.217 C 
HETATM    6  N2  UNL     1      21.054   3.803  52.242  1.00  0.00    -0.295 N 
HETATM    7  N3  UNL     1      22.139   4.340  51.589  1.00  0.00    -0.304 N 
HETATM    8  C15 UNL     1      23.196   3.443  51.281  1.00  0.00     0.154 A 
HETATM    9  C16 UNL     1      24.060   3.345  52.494  1.00  0.00     0.003 A 
HETATM   10  C17 UNL     1      24.567   2.416  53.287  1.00  0.00     0.005 A 
HETATM   11  H13 UNL     1      20.481   3.964  53.124  1.00  0.00     0.187 HD
ENDROOT
BRANCH   1  12
HETATM   12  C5  UNL     1      24.694  -0.089  53.695  1.00  0.00     0.065 C 
BRANCH  12  13
HETATM   13  C4  UNL     1      25.895  -0.716  53.088  1.00  0.00    -0.026 C 
HETATM   14  C3  UNL     1      27.174  -0.493  53.253  1.00  0.00    -0.026 C 
BRANCH  14  15
HETATM   15  C2  UNL     1      27.730   0.521  54.164  1.00  0.00     0.087 C 
BRANCH  15  16
HETATM   16  C1  UNL     1      28.289   1.708  53.376  1.00  0.00     0.257 C 
BRANCH  16  17
HETATM   17  O1  UNL     1      28.092   2.831  54.153  1.00  0.00    -0.371 OA
HETATM   18  H1  UNL     1      27.730   2.530  55.027  1.00  0.00     0.212 HD
ENDBRANCH  16  17
BRANCH  16  19
HETATM   19  O2  UNL     1      27.683   1.793  52.135  1.00  0.00    -0.371 OA
HETATM   20  H3  UNL     1      27.984   2.521  51.570  1.00  0.00     0.212 HD
ENDBRANCH  16  19
ENDBRANCH  15  16
ENDBRANCH  14  15
ENDBRANCH  12  13
ENDBRANCH   1  12
BRANCH   7  21
HETATM   21  C10 UNL     1      21.745   5.244  50.565  1.00  0.00     0.150 A 
HETATM   22  C11 UNL     1      21.690   6.653  51.017  1.00  0.00     0.005 A 
HETATM   23  C12 UNL     1      22.423   7.383  50.179  1.00  0.00     0.017 A 
HETATM   24  C13 UNL     1      23.003   6.548  49.140  1.00  0.00     0.009 A 
HETATM   25 BR1  UNL     1      24.115   7.289  47.772  1.00  0.00    -0.051 Br
HETATM   26  C14 UNL     1      22.599   5.292  49.376  1.00  0.00     0.022 A 
ENDBRANCH   7  21
TORSDOF 7
ENDMDL
