MODEL 1
REMARK VINA RESULT:      -7.8      0.000      0.000
REMARK  10 active torsions:
REMARK  status: ('A' for Active; 'I' for Inactive)
REMARK    1  A    between atoms: C2_2  and  C3_3 
REMARK       I    between atoms: C3_3  and  N1_5 
REMARK    2  A    between atoms: N1_5  and  C4_6 
REMARK    3  A    between atoms: C5_7  and  N2_8 
REMARK    4  A    between atoms: N2_8  and  C7_10 
REMARK    5  A    between atoms: C7_10  and  C8_11 
REMARK    6  A    between atoms: C8_11  and  N3_12 
REMARK    7  A    between atoms: C11_15  and  C12_16 
REMARK    8  A    between atoms: C12_16  and  N4_17 
REMARK    9  A    between atoms: N4_17  and  C13_18 
REMARK   10  A    between atoms: C20_28  and  O2_29 
ROOT
HETATM    1  C4  UNL     1      29.065   7.988  47.983  1.00  0.00     0.073 A 
HETATM    2  C5  UNL     1      27.910   7.546  48.424  1.00  0.00     0.065 A 
HETATM    3  C10 UNL     1      28.320   6.154  48.344  1.00  0.00     0.003 A 
HETATM    4  C11 UNL     1      27.889   4.921  48.564  1.00  0.00     0.006 C 
HETATM    5  C20 UNL     1      29.620   6.603  47.850  1.00  0.00     0.208 A 
ENDROOT
BRANCH   2   6
HETATM    6  N2  UNL     1      26.632   7.988  48.865  1.00  0.00    -0.381 N 
HETATM    7  C6  UNL     1      25.686   8.430  47.858  1.00  0.00     0.150 C 
BRANCH   6   8
HETATM    8  C7  UNL     1      26.186   8.055  50.234  1.00  0.00     0.152 C 
BRANCH   8   9
HETATM    9  C8  UNL     1      24.742   7.726  50.444  1.00  0.00     0.288 C 
BRANCH   9  10
HETATM   10  N3  UNL     1      24.552   7.030  51.703  1.00  0.00     0.080 N 
HETATM   11  C9  UNL     1      23.738   5.849  51.479  1.00  0.00     0.306 C 
HETATM   12  H12 UNL     1      25.471   6.778  52.119  1.00  0.00     0.315 HD
ENDBRANCH   9  10
ENDBRANCH   8   9
ENDBRANCH   6   8
ENDBRANCH   2   6
BRANCH   4  13
HETATM   13  C12 UNL     1      26.539   4.600  49.074  1.00  0.00     0.166 C 
BRANCH  13  14
HETATM   14  N4  UNL     1      26.620   3.959  50.396  1.00  0.00    -0.218 N 
HETATM   15  H19 UNL     1      27.128   4.488  51.168  1.00  0.00     0.178 HD
BRANCH  14  16
HETATM   16  C13 UNL     1      26.267   2.808  51.153  1.00  0.00     0.739 A 
HETATM   17  N5  UNL     1      24.993   2.358  51.169  1.00  0.00    -0.072 NA
HETATM   18  C14 UNL     1      24.775   1.250  51.930  1.00  0.00     0.168 A 
HETATM   19  C15 UNL     1      25.838   0.687  52.605  1.00  0.00     0.077 A 
HETATM   20  C16 UNL     1      25.837  -0.420  53.419  1.00  0.00     0.035 A 
HETATM   21  N6  UNL     1      27.112   1.157  52.575  1.00  0.00    -0.222 N 
HETATM   22  C17 UNL     1      27.129  -0.631  53.894  1.00  0.00     0.029 A 
HETATM   23  C18 UNL     1      27.874   0.376  53.338  1.00  0.00     0.033 A 
HETATM   24  C19 UNL     1      29.334   0.567  53.559  1.00  0.00     0.070 C 
HETATM   25  N7  UNL     1      27.297   2.232  51.831  1.00  0.00     0.026 NA
ENDBRANCH  14  16
ENDBRANCH  13  14
ENDBRANCH   4  13
BRANCH   5  26
HETATM   26  O2  UNL     1      30.729   6.400  48.644  1.00  0.00    -0.380 OA
HETATM   27  C21 UNL     1      31.663   5.547  48.053  1.00  0.00     0.202 C 
ENDBRANCH   5  26
BRANCH   1  28
HETATM   28  N1  UNL     1      29.730   9.201  47.679  1.00  0.00    -0.323 N 
HETATM   29  C3  UNL     1      30.430   9.958  48.633  1.00  0.00     0.244 C 
HETATM   30  O1  UNL     1      30.511   9.593  49.831  1.00  0.00    -0.268 OA
HETATM   31  H4  UNL     1      29.759   9.630  46.741  1.00  0.00     0.169 HD
BRANCH  29  32
HETATM   32  C2  UNL     1      31.108  11.206  48.320  1.00  0.00     0.064 C 
HETATM   33  C1  UNL     1      30.805  12.329  48.945  1.00  0.00     0.017 C 
ENDBRANCH  29  32
ENDBRANCH   1  28
TORSDOF 10
ENDMDL
MODEL 2
REMARK VINA RESULT:      -7.4      5.646      8.709
REMARK  10 active torsions:
REMARK  status: ('A' for Active; 'I' for Inactive)
REMARK    1  A    between atoms: C2_2  and  C3_3 
REMARK       I    between atoms: C3_3  and  N1_5 
REMARK    2  A    between atoms: N1_5  and  C4_6 
REMARK    3  A    between atoms: C5_7  and  N2_8 
REMARK    4  A    between atoms: N2_8  and  C7_10 
REMARK    5  A    between atoms: C7_10  and  C8_11 
REMARK    6  A    between atoms: C8_11  and  N3_12 
REMARK    7  A    between atoms: C11_15  and  C12_16 
REMARK    8  A    between atoms: C12_16  and  N4_17 
REMARK    9  A    between atoms: N4_17  and  C13_18 
REMARK   10  A    between atoms: C20_28  and  O2_29 
ROOT
HETATM    1  C4  UNL     1      20.519   1.702  51.874  1.00  0.00     0.073 A 
HETATM    2  C5  UNL     1      21.544   2.426  51.492  1.00  0.00     0.065 A 
HETATM    3  C10 UNL     1      22.395   1.931  52.561  1.00  0.00     0.003 A 
HETATM    4  C11 UNL     1      23.618   2.037  53.062  1.00  0.00     0.006 C 
HETATM    5  C20 UNL     1      21.278   1.109  53.021  1.00  0.00     0.208 A 
ENDROOT
BRANCH   2   6
HETATM    6  N2  UNL     1      21.950   3.370  50.509  1.00  0.00    -0.381 N 
HETATM    7  C6  UNL     1      22.804   2.904  49.434  1.00  0.00     0.150 C 
BRANCH   6   8
HETATM    8  C7  UNL     1      21.601   4.769  50.486  1.00  0.00     0.152 C 
BRANCH   8   9
HETATM    9  C8  UNL     1      22.232   5.594  51.562  1.00  0.00     0.288 C 
BRANCH   9  10
HETATM   10  N3  UNL     1      23.544   6.058  51.151  1.00  0.00     0.080 N 
HETATM   11  C9  UNL     1      23.472   7.472  50.827  1.00  0.00     0.306 C 
HETATM   12  H12 UNL     1      24.243   5.881  51.900  1.00  0.00     0.315 HD
ENDBRANCH   9  10
ENDBRANCH   8   9
ENDBRANCH   6   8
ENDBRANCH   2   6
BRANCH   4  13
HETATM   13  C12 UNL     1      24.666   2.911  52.494  1.00  0.00     0.166 C 
BRANCH  13  14
HETATM   14  N4  UNL     1      25.916   2.792  53.261  1.00  0.00    -0.218 N 
HETATM   15  H19 UNL     1      26.137   3.562  53.963  1.00  0.00     0.178 HD
BRANCH  14  16
HETATM   16  C13 UNL     1      27.075   1.997  53.479  1.00  0.00     0.739 A 
HETATM   17  N5  UNL     1      28.194   2.541  54.006  1.00  0.00    -0.072 NA
HETATM   18  C14 UNL     1      29.240   1.682  54.166  1.00  0.00     0.168 A 
HETATM   19  C15 UNL     1      29.082   0.365  53.790  1.00  0.00     0.077 A 
HETATM   20  C16 UNL     1      29.999  -0.655  53.866  1.00  0.00     0.035 A 
HETATM   21  N6  UNL     1      27.947  -0.161  53.261  1.00  0.00    -0.222 N 
HETATM   22  C17 UNL     1      29.418  -1.822  53.376  1.00  0.00     0.029 A 
HETATM   23  C18 UNL     1      28.147  -1.454  53.017  1.00  0.00     0.033 A 
HETATM   24  C19 UNL     1      27.134  -2.376  52.434  1.00  0.00     0.070 C 
HETATM   25  N7  UNL     1      26.948   0.692  53.116  1.00  0.00     0.026 NA
ENDBRANCH  14  16
ENDBRANCH  13  14
ENDBRANCH   4  13
BRANCH   5  26
HETATM   26  O2  UNL     1      21.391  -0.262  52.928  1.00  0.00    -0.380 OA
HETATM   27  C21 UNL     1      21.192  -0.901  54.152  1.00  0.00     0.202 C 
ENDBRANCH   5  26
BRANCH   1  28
HETATM   28  N1  UNL     1      19.173   1.433  51.518  1.00  0.00    -0.323 N 
HETATM   29  C3  UNL     1      18.148   2.391  51.597  1.00  0.00     0.244 C 
HETATM   30  O1  UNL     1      18.372   3.562  51.989  1.00  0.00    -0.268 OA
HETATM   31  H4  UNL     1      18.832   0.522  51.175  1.00  0.00     0.169 HD
BRANCH  29  32
HETATM   32  C2  UNL     1      16.767   2.112  51.237  1.00  0.00     0.064 C 
HETATM   33  C1  UNL     1      15.773   2.844  51.707  1.00  0.00     0.017 C 
ENDBRANCH  29  32
ENDBRANCH   1  28
TORSDOF 10
ENDMDL
MODEL 3
REMARK VINA RESULT:      -7.3      1.691      2.460
REMARK  10 active torsions:
REMARK  status: ('A' for Active; 'I' for Inactive)
REMARK    1  A    between atoms: C2_2  and  C3_3 
REMARK       I    between atoms: C3_3  and  N1_5 
REMARK    2  A    between atoms: N1_5  and  C4_6 
REMARK    3  A    between atoms: C5_7  and  N2_8 
REMARK    4  A    between atoms: N2_8  and  C7_10 
REMARK    5  A    between atoms: C7_10  and  C8_11 
REMARK    6  A    between atoms: C8_11  and  N3_12 
REMARK    7  A    between atoms: C11_15  and  C12_16 
REMARK    8  A    between atoms: C12_16  and  N4_17 
REMARK    9  A    between atoms: N4_17  and  C13_18 
REMARK   10  A    between atoms: C20_28  and  O2_29 
ROOT
HETATM    1  C4  UNL     1      27.074   7.956  48.135  1.00  0.00     0.073 A 
HETATM    2  C5  UNL     1      26.300   7.046  48.677  1.00  0.00     0.065 A 
HETATM    3  C10 UNL     1      27.285   5.991  48.508  1.00  0.00     0.003 A 
HETATM    4  C11 UNL     1      27.487   4.700  48.729  1.00  0.00     0.006 C 
HETATM    5  C20 UNL     1      28.179   6.973  47.899  1.00  0.00     0.208 A 
ENDROOT
BRANCH   2   6
HETATM    6  N2  UNL     1      25.016   6.866  49.262  1.00  0.00    -0.381 N 
HETATM    7  C6  UNL     1      23.928   6.463  48.392  1.00  0.00     0.150 C 
BRANCH   6   8
HETATM    8  C7  UNL     1      24.683   7.063  50.651  1.00  0.00     0.152 C 
BRANCH   8   9
HETATM    9  C8  UNL     1      23.564   6.211  51.159  1.00  0.00     0.288 C 
BRANCH   9  10
HETATM   10  N3  UNL     1      24.080   5.008  51.784  1.00  0.00     0.080 N 
HETATM   11  C9  UNL     1      22.994   4.309  52.449  1.00  0.00     0.306 C 
HETATM   12  H12 UNL     1      24.539   4.399  51.077  1.00  0.00     0.315 HD
ENDBRANCH   9  10
ENDBRANCH   8   9
ENDBRANCH   6   8
ENDBRANCH   2   6
BRANCH   4  13
HETATM   13  C12 UNL     1      26.492   3.809  49.364  1.00  0.00     0.166 C 
BRANCH  13  14
HETATM   14  N4  UNL     1      26.901   3.464  50.735  1.00  0.00    -0.218 N 
HETATM   15  H19 UNL     1      27.525   4.155  51.251  1.00  0.00     0.178 HD
BRANCH  14  16
HETATM   16  C13 UNL     1      26.803   2.489  51.767  1.00  0.00     0.739 A 
HETATM   17  N5  UNL     1      27.882   2.164  52.512  1.00  0.00    -0.072 NA
HETATM   18  C14 UNL     1      27.666   1.218  53.468  1.00  0.00     0.168 A 
HETATM   19  C15 UNL     1      26.403   0.680  53.598  1.00  0.00     0.077 A 
HETATM   20  C16 UNL     1      25.975  -0.275  54.487  1.00  0.00     0.035 A 
HETATM   21  N6  UNL     1      25.331   1.022  52.837  1.00  0.00    -0.222 N 
HETATM   22  C17 UNL     1      24.622  -0.523  54.267  1.00  0.00     0.029 A 
HETATM   23  C18 UNL     1      24.279   0.310  53.234  1.00  0.00     0.033 A 
HETATM   24  C19 UNL     1      22.917   0.402  52.640  1.00  0.00     0.070 C 
HETATM   25  N7  UNL     1      25.566   1.941  51.918  1.00  0.00     0.026 NA
ENDBRANCH  14  16
ENDBRANCH  13  14
ENDBRANCH   4  13
BRANCH   5  26
HETATM   26  O2  UNL     1      29.337   7.309  48.567  1.00  0.00    -0.380 OA
HETATM   27  C21 UNL     1      30.481   7.110  47.792  1.00  0.00     0.202 C 
ENDBRANCH   5  26
BRANCH   1  28
HETATM   28  N1  UNL     1      27.080   9.335  47.805  1.00  0.00    -0.323 N 
HETATM   29  C3  UNL     1      27.416  10.346  48.720  1.00  0.00     0.244 C 
HETATM   30  O1  UNL     1      27.741  10.080  49.903  1.00  0.00    -0.268 OA
HETATM   31  H4  UNL     1      26.842   9.712  46.875  1.00  0.00     0.169 HD
BRANCH  29  32
HETATM   32  C2  UNL     1      27.417  11.760  48.382  1.00  0.00     0.064 C 
HETATM   33  C1  UNL     1      28.356  12.575  48.829  1.00  0.00     0.017 C 
ENDBRANCH  29  32
ENDBRANCH   1  28
TORSDOF 10
ENDMDL
MODEL 4
REMARK VINA RESULT:      -7.3      3.287      8.575
REMARK  10 active torsions:
REMARK  status: ('A' for Active; 'I' for Inactive)
REMARK    1  A    between atoms: C2_2  and  C3_3 
REMARK       I    between atoms: C3_3  and  N1_5 
REMARK    2  A    between atoms: N1_5  and  C4_6 
REMARK    3  A    between atoms: C5_7  and  N2_8 
REMARK    4  A    between atoms: N2_8  and  C7_10 
REMARK    5  A    between atoms: C7_10  and  C8_11 
REMARK    6  A    between atoms: C8_11  and  N3_12 
REMARK    7  A    between atoms: C11_15  and  C12_16 
REMARK    8  A    between atoms: C12_16  and  N4_17 
REMARK    9  A    between atoms: N4_17  and  C13_18 
REMARK   10  A    between atoms: C20_28  and  O2_29 
ROOT
HETATM    1  C4  UNL     1      24.272   1.890  52.357  1.00  0.00     0.073 A 
HETATM    2  C5  UNL     1      24.219   2.741  51.361  1.00  0.00     0.065 A 
HETATM    3  C10 UNL     1      25.649   2.665  51.112  1.00  0.00     0.003 A 
HETATM    4  C11 UNL     1      26.602   3.138  50.322  1.00  0.00     0.006 C 
HETATM    5  C20 UNL     1      25.752   1.713  52.216  1.00  0.00     0.208 A 
ENDROOT
BRANCH   2   6
HETATM    6  N2  UNL     1      23.312   3.550  50.620  1.00  0.00    -0.381 N 
HETATM    7  C6  UNL     1      22.499   2.902  49.610  1.00  0.00     0.150 C 
BRANCH   6   8
HETATM    8  C7  UNL     1      23.134   4.973  50.768  1.00  0.00     0.152 C 
BRANCH   8   9
HETATM    9  C8  UNL     1      23.428   5.507  52.134  1.00  0.00     0.288 C 
BRANCH   9  10
HETATM   10  N3  UNL     1      24.367   6.611  52.061  1.00  0.00     0.080 N 
HETATM   11  C9  UNL     1      24.003   7.477  50.953  1.00  0.00     0.306 C 
HETATM   12  H12 UNL     1      24.379   7.137  52.958  1.00  0.00     0.315 HD
ENDBRANCH   9  10
ENDBRANCH   8   9
ENDBRANCH   6   8
ENDBRANCH   2   6
BRANCH   4  13
HETATM   13  C12 UNL     1      26.361   4.104  49.229  1.00  0.00     0.166 C 
BRANCH  13  14
HETATM   14  N4  UNL     1      27.386   5.159  49.230  1.00  0.00    -0.218 N 
HETATM   15  H19 UNL     1      27.524   5.710  50.130  1.00  0.00     0.178 HD
BRANCH  14  16
HETATM   16  C13 UNL     1      28.372   5.822  48.447  1.00  0.00     0.739 A 
HETATM   17  N5  UNL     1      28.098   7.002  47.849  1.00  0.00    -0.072 NA
HETATM   18  C14 UNL     1      29.118   7.540  47.125  1.00  0.00     0.168 A 
HETATM   19  C15 UNL     1      30.317   6.861  47.059  1.00  0.00     0.077 A 
HETATM   20  C16 UNL     1      31.461   7.222  46.391  1.00  0.00     0.035 A 
HETATM   21  N6  UNL     1      30.571   5.674  47.668  1.00  0.00    -0.222 N 
HETATM   22  C17 UNL     1      32.431   6.242  46.595  1.00  0.00     0.029 A 
HETATM   23  C18 UNL     1      31.821   5.310  47.393  1.00  0.00     0.033 A 
HETATM   24  C19 UNL     1      32.471   4.063  47.881  1.00  0.00     0.070 C 
HETATM   25  N7  UNL     1      29.565   5.173  48.364  1.00  0.00     0.026 NA
ENDBRANCH  14  16
ENDBRANCH  13  14
ENDBRANCH   4  13
BRANCH   5  26
HETATM   26  O2  UNL     1      26.104   0.411  51.927  1.00  0.00    -0.380 OA
HETATM   27  C21 UNL     1      27.114  -0.070  52.762  1.00  0.00     0.202 C 
ENDBRANCH   5  26
BRANCH   1  28
HETATM   28  N1  UNL     1      23.430   1.260  53.307  1.00  0.00    -0.323 N 
HETATM   29  C3  UNL     1      22.360   0.421  52.954  1.00  0.00     0.244 C 
HETATM   30  O1  UNL     1      22.088   0.173  51.754  1.00  0.00    -0.268 OA
HETATM   31  H4  UNL     1      23.527   1.361  54.329  1.00  0.00     0.169 HD
BRANCH  29  32
HETATM   32  C2  UNL     1      21.493  -0.220  53.930  1.00  0.00     0.064 C 
HETATM   33  C1  UNL     1      21.965  -1.093  54.801  1.00  0.00     0.017 C 
ENDBRANCH  29  32
ENDBRANCH   1  28
TORSDOF 10
ENDMDL
MODEL 5
REMARK VINA RESULT:      -7.2      3.450      9.241
REMARK  10 active torsions:
REMARK  status: ('A' for Active; 'I' for Inactive)
REMARK    1  A    between atoms: C2_2  and  C3_3 
REMARK       I    between atoms: C3_3  and  N1_5 
REMARK    2  A    between atoms: N1_5  and  C4_6 
REMARK    3  A    between atoms: C5_7  and  N2_8 
REMARK    4  A    between atoms: N2_8  and  C7_10 
REMARK    5  A    between atoms: C7_10  and  C8_11 
REMARK    6  A    between atoms: C8_11  and  N3_12 
REMARK    7  A    between atoms: C11_15  and  C12_16 
REMARK    8  A    between atoms: C12_16  and  N4_17 
REMARK    9  A    between atoms: N4_17  and  C13_18 
REMARK   10  A    between atoms: C20_28  and  O2_29 
ROOT
HETATM    1  C4  UNL     1      23.352   2.017  52.226  1.00  0.00     0.073 A 
HETATM    2  C5  UNL     1      24.638   2.081  51.977  1.00  0.00     0.065 A 
HETATM    3  C10 UNL     1      24.451   2.916  50.802  1.00  0.00     0.003 A 
HETATM    4  C11 UNL     1      25.119   3.533  49.838  1.00  0.00     0.006 C 
HETATM    5  C20 UNL     1      23.011   2.870  51.043  1.00  0.00     0.208 A 
ENDROOT
BRANCH   2   6
HETATM    6  N2  UNL     1      25.900   1.636  52.459  1.00  0.00    -0.381 N 
HETATM    7  C6  UNL     1      26.491   0.471  51.830  1.00  0.00     0.150 C 
BRANCH   6   8
HETATM    8  C7  UNL     1      26.651   2.229  53.537  1.00  0.00     0.152 C 
BRANCH   8   9
HETATM    9  C8  UNL     1      28.108   1.888  53.554  1.00  0.00     0.288 C 
BRANCH   9  10
HETATM   10  N3  UNL     1      28.459   1.202  54.784  1.00  0.00     0.080 N 
HETATM   11  C9  UNL     1      29.057  -0.082  54.462  1.00  0.00     0.306 C 
HETATM   12  H12 UNL     1      29.106   1.785  55.352  1.00  0.00     0.315 HD
ENDBRANCH   9  10
ENDBRANCH   8   9
ENDBRANCH   6   8
ENDBRANCH   2   6
BRANCH   4  13
HETATM   13  C12 UNL     1      26.591   3.503  49.707  1.00  0.00     0.166 C 
BRANCH  13  14
HETATM   14  N4  UNL     1      27.054   4.542  48.774  1.00  0.00    -0.218 N 
HETATM   15  H19 UNL     1      26.457   4.730  47.912  1.00  0.00     0.178 HD
BRANCH  14  16
HETATM   16  C13 UNL     1      28.073   5.500  48.512  1.00  0.00     0.739 A 
HETATM   17  N5  UNL     1      27.800   6.823  48.549  1.00  0.00    -0.072 NA
HETATM   18  C14 UNL     1      28.854   7.643  48.281  1.00  0.00     0.168 A 
HETATM   19  C15 UNL     1      30.081   7.079  48.001  1.00  0.00     0.077 A 
HETATM   20  C16 UNL     1      31.261   7.717  47.706  1.00  0.00     0.035 A 
HETATM   21  N6  UNL     1      30.333   5.744  47.969  1.00  0.00    -0.222 N 
HETATM   22  C17 UNL     1      32.250   6.760  47.490  1.00  0.00     0.029 A 
HETATM   23  C18 UNL     1      31.616   5.558  47.667  1.00  0.00     0.033 A 
HETATM   24  C19 UNL     1      32.274   4.229  47.537  1.00  0.00     0.070 C 
HETATM   25  N7  UNL     1      29.295   4.971  48.232  1.00  0.00     0.026 NA
ENDBRANCH  14  16
ENDBRANCH  13  14
ENDBRANCH   4  13
BRANCH   5  26
HETATM   26  O2  UNL     1      22.369   4.037  51.400  1.00  0.00    -0.380 OA
HETATM   27  C21 UNL     1      21.226   4.276  50.635  1.00  0.00     0.202 C 
ENDBRANCH   5  26
BRANCH   1  28
HETATM   28  N1  UNL     1      22.441   1.446  53.151  1.00  0.00    -0.323 N 
HETATM   29  C3  UNL     1      22.507   0.108  53.572  1.00  0.00     0.244 C 
HETATM   30  O1  UNL     1      23.395  -0.671  53.150  1.00  0.00    -0.268 OA
HETATM   31  H4  UNL     1      21.660   1.957  53.590  1.00  0.00     0.169 HD
BRANCH  29  32
HETATM   32  C2  UNL     1      21.569  -0.478  54.517  1.00  0.00     0.064 C 
HETATM   33  C1  UNL     1      21.254  -1.759  54.469  1.00  0.00     0.017 C 
ENDBRANCH  29  32
ENDBRANCH   1  28
TORSDOF 10
ENDMDL
MODEL 6
REMARK VINA RESULT:      -7.1      6.312      8.657
REMARK  10 active torsions:
REMARK  status: ('A' for Active; 'I' for Inactive)
REMARK    1  A    between atoms: C2_2  and  C3_3 
REMARK       I    between atoms: C3_3  and  N1_5 
REMARK    2  A    between atoms: N1_5  and  C4_6 
REMARK    3  A    between atoms: C5_7  and  N2_8 
REMARK    4  A    between atoms: N2_8  and  C7_10 
REMARK    5  A    between atoms: C7_10  and  C8_11 
REMARK    6  A    between atoms: C8_11  and  N3_12 
REMARK    7  A    between atoms: C11_15  and  C12_16 
REMARK    8  A    between atoms: C12_16  and  N4_17 
REMARK    9  A    between atoms: N4_17  and  C13_18 
REMARK   10  A    between atoms: C20_28  and  O2_29 
ROOT
HETATM    1  C4  UNL     1      20.617   2.283  51.175  1.00  0.00     0.073 A 
HETATM    2  C5  UNL     1      21.757   2.894  50.956  1.00  0.00     0.065 A 
HETATM    3  C10 UNL     1      22.374   2.346  52.152  1.00  0.00     0.003 A 
HETATM    4  C11 UNL     1      23.506   2.344  52.841  1.00  0.00     0.006 C 
HETATM    5  C20 UNL     1      21.122   1.647  52.433  1.00  0.00     0.208 A 
ENDROOT
BRANCH   2   6
HETATM    6  N2  UNL     1      22.405   3.772  50.043  1.00  0.00    -0.381 N 
HETATM    7  C6  UNL     1      22.260   5.198  50.258  1.00  0.00     0.150 C 
BRANCH   6   8
HETATM    8  C7  UNL     1      23.189   3.375  48.900  1.00  0.00     0.152 C 
BRANCH   8   9
HETATM    9  C8  UNL     1      22.504   2.433  47.961  1.00  0.00     0.288 C 
BRANCH   9  10
HETATM   10  N3  UNL     1      21.346   3.065  47.356  1.00  0.00     0.080 N 
HETATM   11  C9  UNL     1      21.739   3.691  46.106  1.00  0.00     0.306 C 
HETATM   12  H12 UNL     1      20.590   2.367  47.204  1.00  0.00     0.315 HD
ENDBRANCH   9  10
ENDBRANCH   8   9
ENDBRANCH   6   8
ENDBRANCH   2   6
BRANCH   4  13
HETATM   13  C12 UNL     1      24.713   3.099  52.441  1.00  0.00     0.166 C 
BRANCH  13  14
HETATM   14  N4  UNL     1      25.836   2.804  53.346  1.00  0.00    -0.218 N 
HETATM   15  H19 UNL     1      25.894   3.357  54.254  1.00  0.00     0.178 HD
BRANCH  14  16
HETATM   16  C13 UNL     1      27.000   2.007  53.533  1.00  0.00     0.739 A 
HETATM   17  N5  UNL     1      28.126   2.544  54.051  1.00  0.00    -0.072 NA
HETATM   18  C14 UNL     1      29.175   1.685  54.181  1.00  0.00     0.168 A 
HETATM   19  C15 UNL     1      29.013   0.374  53.787  1.00  0.00     0.077 A 
HETATM   20  C16 UNL     1      29.933  -0.646  53.832  1.00  0.00     0.035 A 
HETATM   21  N6  UNL     1      27.871  -0.145  53.268  1.00  0.00    -0.222 N 
HETATM   22  C17 UNL     1      29.345  -1.806  53.333  1.00  0.00     0.029 A 
HETATM   23  C18 UNL     1      28.069  -1.434  53.000  1.00  0.00     0.033 A 
HETATM   24  C19 UNL     1      27.048  -2.348  52.418  1.00  0.00     0.070 C 
HETATM   25  N7  UNL     1      26.869   0.708  53.151  1.00  0.00     0.026 NA
ENDBRANCH  14  16
ENDBRANCH  13  14
ENDBRANCH   4  13
BRANCH   5  26
HETATM   26  O2  UNL     1      21.112   0.270  52.370  1.00  0.00    -0.380 OA
HETATM   27  C21 UNL     1      20.351  -0.309  53.388  1.00  0.00     0.202 C 
ENDBRANCH   5  26
BRANCH   1  28
HETATM   28  N1  UNL     1      19.325   2.137  50.611  1.00  0.00    -0.323 N 
HETATM   29  C3  UNL     1      18.194   2.822  51.086  1.00  0.00     0.244 C 
HETATM   30  O1  UNL     1      18.266   3.619  52.052  1.00  0.00    -0.268 OA
HETATM   31  H4  UNL     1      19.104   1.524  49.811  1.00  0.00     0.169 HD
BRANCH  29  32
HETATM   32  C2  UNL     1      16.868   2.667  50.509  1.00  0.00     0.064 C 
HETATM   33  C1  UNL     1      16.683   2.023  49.372  1.00  0.00     0.017 C 
ENDBRANCH  29  32
ENDBRANCH   1  28
TORSDOF 10
ENDMDL
MODEL 7
REMARK VINA RESULT:      -6.9      4.092      6.633
REMARK  10 active torsions:
REMARK  status: ('A' for Active; 'I' for Inactive)
REMARK    1  A    between atoms: C2_2  and  C3_3 
REMARK       I    between atoms: C3_3  and  N1_5 
REMARK    2  A    between atoms: N1_5  and  C4_6 
REMARK    3  A    between atoms: C5_7  and  N2_8 
REMARK    4  A    between atoms: N2_8  and  C7_10 
REMARK    5  A    between atoms: C7_10  and  C8_11 
REMARK    6  A    between atoms: C8_11  and  N3_12 
REMARK    7  A    between atoms: C11_15  and  C12_16 
REMARK    8  A    between atoms: C12_16  and  N4_17 
REMARK    9  A    between atoms: N4_17  and  C13_18 
REMARK   10  A    between atoms: C20_28  and  O2_29 
ROOT
HETATM    1  C4  UNL     1      22.987   4.483  48.960  1.00  0.00     0.073 A 
HETATM    2  C5  UNL     1      22.749   3.870  50.096  1.00  0.00     0.065 A 
HETATM    3  C10 UNL     1      24.124   4.004  50.549  1.00  0.00     0.003 A 
HETATM    4  C11 UNL     1      24.925   3.719  51.565  1.00  0.00     0.006 C 
HETATM    5  C20 UNL     1      24.431   4.692  49.297  1.00  0.00     0.208 A 
ENDROOT
BRANCH   2   6
HETATM    6  N2  UNL     1      21.712   3.240  50.838  1.00  0.00    -0.381 N 
HETATM    7  C6  UNL     1      21.094   3.995  51.910  1.00  0.00     0.150 C 
BRANCH   6   8
HETATM    8  C7  UNL     1      21.221   1.900  50.635  1.00  0.00     0.152 C 
BRANCH   8   9
HETATM    9  C8  UNL     1      21.854   0.858  51.502  1.00  0.00     0.288 C 
BRANCH   9  10
HETATM   10  N3  UNL     1      20.864   0.240  52.365  1.00  0.00     0.080 N 
HETATM   11  C9  UNL     1      21.291   0.363  53.748  1.00  0.00     0.306 C 
HETATM   12  H12 UNL     1      19.933   0.680  52.221  1.00  0.00     0.315 HD
ENDBRANCH   9  10
ENDBRANCH   8   9
ENDBRANCH   6   8
ENDBRANCH   2   6
BRANCH   4  13
HETATM   13  C12 UNL     1      24.483   3.015  52.788  1.00  0.00     0.166 C 
BRANCH  13  14
HETATM   14  N4  UNL     1      25.634   2.683  53.644  1.00  0.00    -0.218 N 
HETATM   15  H19 UNL     1      25.661   3.109  54.619  1.00  0.00     0.178 HD
BRANCH  14  16
HETATM   16  C13 UNL     1      26.854   1.956  53.719  1.00  0.00     0.739 A 
HETATM   17  N5  UNL     1      27.984   2.551  54.161  1.00  0.00    -0.072 NA
HETATM   18  C14 UNL     1      29.089   1.756  54.187  1.00  0.00     0.168 A 
HETATM   19  C15 UNL     1      28.976   0.445  53.775  1.00  0.00     0.077 A 
HETATM   20  C16 UNL     1      29.955  -0.517  53.723  1.00  0.00     0.035 A 
HETATM   21  N6  UNL     1      27.828  -0.133  53.334  1.00  0.00    -0.222 N 
HETATM   22  C17 UNL     1      29.400  -1.701  53.243  1.00  0.00     0.029 A 
HETATM   23  C18 UNL     1      28.081  -1.402  53.020  1.00  0.00     0.033 A 
HETATM   24  C19 UNL     1      27.074  -2.366  52.498  1.00  0.00     0.070 C 
HETATM   25  N7  UNL     1      26.771   0.658  53.318  1.00  0.00     0.026 NA
ENDBRANCH  14  16
ENDBRANCH  13  14
ENDBRANCH   4  13
BRANCH   5  26
HETATM   26  O2  UNL     1      24.774   6.027  49.350  1.00  0.00    -0.380 OA
HETATM   27  C21 UNL     1      25.929   6.313  48.620  1.00  0.00     0.202 C 
ENDBRANCH   5  26
BRANCH   1  28
HETATM   28  N1  UNL     1      22.326   4.887  47.773  1.00  0.00    -0.323 N 
HETATM   29  C3  UNL     1      21.981   3.997  46.742  1.00  0.00     0.244 C 
HETATM   30  O1  UNL     1      22.239   2.771  46.818  1.00  0.00    -0.268 OA
HETATM   31  H4  UNL     1      22.043   5.857  47.565  1.00  0.00     0.169 HD
BRANCH  29  32
HETATM   32  C2  UNL     1      21.308   4.413  45.522  1.00  0.00     0.064 C 
HETATM   33  C1  UNL     1      21.817   5.347  44.739  1.00  0.00     0.017 C 
ENDBRANCH  29  32
ENDBRANCH   1  28
TORSDOF 10
ENDMDL
MODEL 8
REMARK VINA RESULT:      -6.9      3.193      8.784
REMARK  10 active torsions:
REMARK  status: ('A' for Active; 'I' for Inactive)
REMARK    1  A    between atoms: C2_2  and  C3_3 
REMARK       I    between atoms: C3_3  and  N1_5 
REMARK    2  A    between atoms: N1_5  and  C4_6 
REMARK    3  A    between atoms: C5_7  and  N2_8 
REMARK    4  A    between atoms: N2_8  and  C7_10 
REMARK    5  A    between atoms: C7_10  and  C8_11 
REMARK    6  A    between atoms: C8_11  and  N3_12 
REMARK    7  A    between atoms: C11_15  and  C12_16 
REMARK    8  A    between atoms: C12_16  and  N4_17 
REMARK    9  A    between atoms: N4_17  and  C13_18 
REMARK   10  A    between atoms: C20_28  and  O2_29 
ROOT
HETATM    1  C4  UNL     1      24.434   1.289  52.123  1.00  0.00     0.073 A 
HETATM    2  C5  UNL     1      24.233   2.217  51.217  1.00  0.00     0.065 A 
HETATM    3  C10 UNL     1      25.650   2.508  51.083  1.00  0.00     0.003 A 
HETATM    4  C11 UNL     1      26.504   3.282  50.429  1.00  0.00     0.006 C 
HETATM    5  C20 UNL     1      25.919   1.483  52.089  1.00  0.00     0.208 A 
ENDROOT
BRANCH   2   6
HETATM    6  N2  UNL     1      23.201   2.872  50.490  1.00  0.00    -0.381 N 
HETATM    7  C6  UNL     1      22.547   2.130  49.429  1.00  0.00     0.150 C 
BRANCH   6   8
HETATM    8  C7  UNL     1      22.748   4.225  50.696  1.00  0.00     0.152 C 
BRANCH   8   9
HETATM    9  C8  UNL     1      23.037   4.787  52.052  1.00  0.00     0.288 C 
BRANCH   9  10
HETATM   10  N3  UNL     1      23.541   6.144  51.947  1.00  0.00     0.080 N 
HETATM   11  C9  UNL     1      23.441   6.586  50.567  1.00  0.00     0.306 C 
HETATM   12  H12 UNL     1      23.013   6.777  52.582  1.00  0.00     0.315 HD
ENDBRANCH   9  10
ENDBRANCH   8   9
ENDBRANCH   6   8
ENDBRANCH   2   6
BRANCH   4  13
HETATM   13  C12 UNL     1      26.098   4.287  49.423  1.00  0.00     0.166 C 
BRANCH  13  14
HETATM   14  N4  UNL     1      27.251   4.708  48.611  1.00  0.00    -0.218 N 
HETATM   15  H19 UNL     1      27.409   4.208  47.685  1.00  0.00     0.178 HD
BRANCH  14  16
HETATM   16  C13 UNL     1      28.360   5.597  48.540  1.00  0.00     0.739 A 
HETATM   17  N5  UNL     1      29.610   5.123  48.345  1.00  0.00    -0.072 NA
HETATM   18  C14 UNL     1      30.590   6.068  48.296  1.00  0.00     0.168 A 
HETATM   19  C15 UNL     1      30.243   7.394  48.446  1.00  0.00     0.077 A 
HETATM   20  C16 UNL     1      31.067   8.493  48.430  1.00  0.00     0.035 A 
HETATM   21  N6  UNL     1      28.978   7.848  48.642  1.00  0.00    -0.222 N 
HETATM   22  C17 UNL     1      30.295   9.638  48.620  1.00  0.00     0.029 A 
HETATM   23  C18 UNL     1      29.011   9.175  48.745  1.00  0.00     0.033 A 
HETATM   24  C19 UNL     1      27.820  10.040  48.965  1.00  0.00     0.070 C 
HETATM   25  N7  UNL     1      28.047   6.913  48.685  1.00  0.00     0.026 NA
ENDBRANCH  14  16
ENDBRANCH  13  14
ENDBRANCH   4  13
BRANCH   5  26
HETATM   26  O2  UNL     1      26.592   0.344  51.701  1.00  0.00    -0.380 OA
HETATM   27  C21 UNL     1      27.454  -0.134  52.690  1.00  0.00     0.202 C 
ENDBRANCH   5  26
BRANCH   1  28
HETATM   28  N1  UNL     1      23.718   0.371  52.931  1.00  0.00    -0.323 N 
HETATM   29  C3  UNL     1      22.383   0.568  53.323  1.00  0.00     0.244 C 
HETATM   30  O1  UNL     1      21.737   1.584  52.971  1.00  0.00    -0.268 OA
HETATM   31  H4  UNL     1      24.107  -0.511  53.297  1.00  0.00     0.169 HD
BRANCH  29  32
HETATM   32  C2  UNL     1      21.650  -0.373  54.157  1.00  0.00     0.064 C 
HETATM   33  C1  UNL     1      22.264  -1.362  54.781  1.00  0.00     0.017 C 
ENDBRANCH  29  32
ENDBRANCH   1  28
TORSDOF 10
ENDMDL
MODEL 9
REMARK VINA RESULT:      -6.8      5.069      8.897
REMARK  10 active torsions:
REMARK  status: ('A' for Active; 'I' for Inactive)
REMARK    1  A    between atoms: C2_2  and  C3_3 
REMARK       I    between atoms: C3_3  and  N1_5 
REMARK    2  A    between atoms: N1_5  and  C4_6 
REMARK    3  A    between atoms: C5_7  and  N2_8 
REMARK    4  A    between atoms: N2_8  and  C7_10 
REMARK    5  A    between atoms: C7_10  and  C8_11 
REMARK    6  A    between atoms: C8_11  and  N3_12 
REMARK    7  A    between atoms: C11_15  and  C12_16 
REMARK    8  A    between atoms: C12_16  and  N4_17 
REMARK    9  A    between atoms: N4_17  and  C13_18 
REMARK   10  A    between atoms: C20_28  and  O2_29 
ROOT
HETATM    1  C4  UNL     1      24.563   0.348  52.931  1.00  0.00     0.073 A 
HETATM    2  C5  UNL     1      23.841   1.395  52.605  1.00  0.00     0.065 A 
HETATM    3  C10 UNL     1      22.603   0.784  53.060  1.00  0.00     0.003 A 
HETATM    4  C11 UNL     1      21.303   1.011  53.174  1.00  0.00     0.006 C 
HETATM    5  C20 UNL     1      23.370  -0.401  53.438  1.00  0.00     0.208 A 
ENDROOT
BRANCH   2   6
HETATM    6  N2  UNL     1      23.939   2.695  52.038  1.00  0.00    -0.381 N 
HETATM    7  C6  UNL     1      24.312   2.797  50.640  1.00  0.00     0.150 C 
BRANCH   6   8
HETATM    8  C7  UNL     1      23.716   3.940  52.731  1.00  0.00     0.152 C 
BRANCH   8   9
HETATM    9  C8  UNL     1      23.302   5.082  51.860  1.00  0.00     0.288 C 
BRANCH   9  10
HETATM   10  N3  UNL     1      24.139   6.242  52.104  1.00  0.00     0.080 N 
HETATM   11  C9  UNL     1      23.961   7.197  51.023  1.00  0.00     0.306 C 
HETATM   12  H12 UNL     1      23.908   6.670  53.023  1.00  0.00     0.315 HD
ENDBRANCH   9  10
ENDBRANCH   8   9
ENDBRANCH   6   8
ENDBRANCH   2   6
BRANCH   4  13
HETATM   13  C12 UNL     1      20.647   2.267  52.753  1.00  0.00     0.166 C 
BRANCH  13  14
HETATM   14  N4  UNL     1      20.313   2.226  51.321  1.00  0.00    -0.218 N 
HETATM   15  H19 UNL     1      19.306   2.003  51.057  1.00  0.00     0.178 HD
BRANCH  14  16
HETATM   16  C13 UNL     1      20.827   2.375  50.003  1.00  0.00     0.739 A 
HETATM   17  N5  UNL     1      21.281   1.304  49.316  1.00  0.00    -0.072 NA
HETATM   18  C14 UNL     1      21.750   1.569  48.065  1.00  0.00     0.168 A 
HETATM   19  C15 UNL     1      21.729   2.870  47.609  1.00  0.00     0.077 A 
HETATM   20  C16 UNL     1      22.151   3.351  46.393  1.00  0.00     0.035 A 
HETATM   21  N6  UNL     1      21.269   3.934  48.318  1.00  0.00    -0.222 N 
HETATM   22  C17 UNL     1      21.946   4.728  46.357  1.00  0.00     0.029 A 
HETATM   23  C18 UNL     1      21.398   5.031  47.576  1.00  0.00     0.033 A 
HETATM   24  C19 UNL     1      21.003   6.400  48.007  1.00  0.00     0.070 C 
HETATM   25  N7  UNL     1      20.819   3.650  49.527  1.00  0.00     0.026 NA
ENDBRANCH  14  16
ENDBRANCH  13  14
ENDBRANCH   4  13
BRANCH   5  26
HETATM   26  O2  UNL     1      23.473  -0.716  54.777  1.00  0.00    -0.380 OA
HETATM   27  C21 UNL     1      22.610  -1.746  55.155  1.00  0.00     0.202 C 
ENDBRANCH   5  26
BRANCH   1  28
HETATM   28  N1  UNL     1      25.904  -0.109  52.906  1.00  0.00    -0.323 N 
HETATM   29  C3  UNL     1      26.851   0.225  53.889  1.00  0.00     0.244 C 
HETATM   30  O1  UNL     1      26.556   0.956  54.865  1.00  0.00    -0.268 OA
HETATM   31  H4  UNL     1      26.298  -0.719  52.174  1.00  0.00     0.169 HD
BRANCH  29  32
HETATM   32  C2  UNL     1      28.229  -0.240  53.860  1.00  0.00     0.064 C 
HETATM   33  C1  UNL     1      29.239   0.606  53.770  1.00  0.00     0.017 C 
ENDBRANCH  29  32
ENDBRANCH   1  28
TORSDOF 10
ENDMDL
