MODEL 1
REMARK VINA RESULT:      -8.8      0.000      0.000
REMARK  1 active torsions:
REMARK  status: ('A' for Active; 'I' for Inactive)
REMARK    1  A    between atoms: N2_13  and  C12_14 
ROOT
HETATM    1  C1  UNL     1      19.730  -0.030  51.749  1.00  0.00     0.048 C 
HETATM    2  C2  UNL     1      21.114   0.351  52.157  1.00  0.00    -0.065 C 
HETATM    3  C3  UNL     1      21.845  -0.492  52.914  1.00  0.00    -0.014 C 
HETATM    4  C4  UNL     1      23.153   0.049  53.213  1.00  0.00     0.023 C 
HETATM    5  C5  UNL     1      24.374   0.162  53.693  1.00  0.00     0.026 C 
HETATM    6  C6  UNL     1      25.122   1.415  53.386  1.00  0.00     0.122 C 
HETATM    7  C7  UNL     1      24.294   2.612  53.161  1.00  0.00     0.066 C 
HETATM    8  C8  UNL     1      23.734   2.840  51.832  1.00  0.00    -0.059 C 
HETATM    9  C9  UNL     1      24.344   3.354  50.741  1.00  0.00    -0.014 C 
HETATM   10  C10 UNL     1      25.763   3.773  50.419  1.00  0.00     0.076 C 
HETATM   11  C11 UNL     1      26.507   2.477  50.412  1.00  0.00     0.115 C 
HETATM   12  N1  UNL     1      26.665   1.544  51.252  1.00  0.00    -0.186 NA
HETATM   13  N2  UNL     1      26.165   1.157  52.470  1.00  0.00    -0.242 N 
HETATM   14  C15 UNL     1      22.363   2.550  51.446  1.00  0.00     0.007 C 
HETATM   15  C16 UNL     1      21.398   1.659  51.553  1.00  0.00     0.007 C 
ENDROOT
BRANCH  13  16
HETATM   16  C12 UNL     1      27.193   0.121  52.789  1.00  0.00     0.186 A 
HETATM   17  N3  UNL     1      26.822  -1.179  52.359  1.00  0.00    -0.225 NA
HETATM   18  C13 UNL     1      27.561  -2.197  52.611  1.00  0.00     0.079 A 
HETATM   19  O1  UNL     1      28.389  -3.325  52.894  1.00  0.00     0.000 OA
HETATM   20  C14 UNL     1      28.821  -1.829  53.387  1.00  0.00     0.129 A 
HETATM   21  H14 UNL     1      27.945  -4.243  52.950  1.00  0.00     0.000 HD
HETATM   22  S1  UNL     1      28.669   0.039  53.610  1.00  0.00    -0.078 SA
ENDBRANCH  13  16
TORSDOF 1
ENDMDL
MODEL 2
REMARK VINA RESULT:      -8.4      2.732      5.368
REMARK  1 active torsions:
REMARK  status: ('A' for Active; 'I' for Inactive)
REMARK    1  A    between atoms: N2_13  and  C12_14 
ROOT
HETATM    1  C1  UNL     1      27.684   7.345  47.697  1.00  0.00     0.048 C 
HETATM    2  C2  UNL     1      26.976   6.210  48.357  1.00  0.00    -0.065 C 
HETATM    3  C3  UNL     1      27.666   5.107  48.715  1.00  0.00    -0.014 C 
HETATM    4  C4  UNL     1      26.814   4.115  49.332  1.00  0.00     0.023 C 
HETATM    5  C5  UNL     1      26.417   3.003  49.914  1.00  0.00     0.026 C 
HETATM    6  C6  UNL     1      24.970   2.879  50.253  1.00  0.00     0.122 C 
HETATM    7  C7  UNL     1      24.048   3.643  49.396  1.00  0.00     0.066 C 
HETATM    8  C8  UNL     1      23.811   5.052  49.699  1.00  0.00    -0.059 C 
HETATM    9  C9  UNL     1      22.992   5.582  50.635  1.00  0.00    -0.014 C 
HETATM   10  C10 UNL     1      22.136   5.005  51.743  1.00  0.00     0.076 C 
HETATM   11  C11 UNL     1      23.143   4.469  52.707  1.00  0.00     0.115 C 
HETATM   12  N1  UNL     1      24.097   3.642  52.621  1.00  0.00    -0.186 NA
HETATM   13  N2  UNL     1      24.781   2.954  51.650  1.00  0.00    -0.242 N 
HETATM   14  C15 UNL     1      24.431   6.168  49.006  1.00  0.00     0.007 C 
HETATM   15  C16 UNL     1      25.571   6.607  48.512  1.00  0.00     0.007 C 
ENDROOT
BRANCH  13  16
HETATM   16  C12 UNL     1      25.505   2.006  52.548  1.00  0.00     0.186 A 
HETATM   17  N3  UNL     1      24.721   0.879  52.912  1.00  0.00    -0.225 NA
HETATM   18  C13 UNL     1      25.167  -0.002  53.731  1.00  0.00     0.079 A 
HETATM   19  O1  UNL     1      25.669  -0.979  54.643  1.00  0.00     0.000 OA
HETATM   20  C14 UNL     1      26.575   0.314  54.223  1.00  0.00     0.129 A 
HETATM   21  H14 UNL     1      24.995  -1.519  55.187  1.00  0.00     0.000 HD
HETATM   22  S1  UNL     1      26.995   1.930  53.343  1.00  0.00    -0.078 SA
ENDBRANCH  13  16
TORSDOF 1
ENDMDL
MODEL 3
REMARK VINA RESULT:      -8.0      2.293      4.071
REMARK  1 active torsions:
REMARK  status: ('A' for Active; 'I' for Inactive)
REMARK    1  A    between atoms: N2_13  and  C12_14 
ROOT
HETATM    1  C1  UNL     1      20.715   3.847  52.044  1.00  0.00     0.048 C 
HETATM    2  C2  UNL     1      21.763   2.797  52.204  1.00  0.00    -0.065 C 
HETATM    3  C3  UNL     1      23.015   3.026  51.757  1.00  0.00    -0.014 C 
HETATM    4  C4  UNL     1      23.887   1.897  51.994  1.00  0.00     0.023 C 
HETATM    5  C5  UNL     1      24.962   1.138  52.017  1.00  0.00     0.026 C 
HETATM    6  C6  UNL     1      24.834  -0.220  52.622  1.00  0.00     0.122 C 
HETATM    7  C7  UNL     1      23.494  -0.825  52.550  1.00  0.00     0.066 C 
HETATM    8  C8  UNL     1      22.510  -0.479  53.572  1.00  0.00    -0.059 C 
HETATM    9  C9  UNL     1      22.398  -0.967  54.828  1.00  0.00    -0.014 C 
HETATM   10  C10 UNL     1      23.225  -1.909  55.677  1.00  0.00     0.076 C 
HETATM   11  C11 UNL     1      24.476  -1.130  55.928  1.00  0.00     0.115 C 
HETATM   12  N1  UNL     1      25.338  -0.578  55.185  1.00  0.00    -0.186 NA
HETATM   13  N2  UNL     1      25.515  -0.277  53.857  1.00  0.00    -0.242 N 
HETATM   14  C15 UNL     1      21.433   0.481  53.399  1.00  0.00     0.007 C 
HETATM   15  C16 UNL     1      21.141   1.669  52.909  1.00  0.00     0.007 C 
ENDROOT
BRANCH  13  16
HETATM   16  C12 UNL     1      26.964   0.077  53.923  1.00  0.00     0.186 A 
HETATM   17  N3  UNL     1      27.193   1.391  54.409  1.00  0.00    -0.225 NA
HETATM   18  C13 UNL     1      28.378   1.879  54.468  1.00  0.00     0.079 A 
HETATM   19  O1  UNL     1      29.698   2.416  54.532  1.00  0.00     0.000 OA
HETATM   20  C14 UNL     1      29.440   0.902  53.977  1.00  0.00     0.129 A 
HETATM   21  H14 UNL     1      29.806   3.431  54.486  1.00  0.00     0.000 HD
HETATM   22  S1  UNL     1      28.442  -0.625  53.495  1.00  0.00    -0.078 SA
ENDBRANCH  13  16
TORSDOF 1
ENDMDL
MODEL 4
REMARK VINA RESULT:      -7.8      4.114      6.575
REMARK  1 active torsions:
REMARK  status: ('A' for Active; 'I' for Inactive)
REMARK    1  A    between atoms: N2_13  and  C12_14 
ROOT
HETATM    1  C1  UNL     1      27.735  -1.170  52.972  1.00  0.00     0.048 C 
HETATM    2  C2  UNL     1      26.614  -0.243  52.642  1.00  0.00    -0.065 C 
HETATM    3  C3  UNL     1      26.806   0.749  51.749  1.00  0.00    -0.014 C 
HETATM    4  C4  UNL     1      25.613   1.545  51.563  1.00  0.00     0.023 C 
HETATM    5  C5  UNL     1      24.793   2.474  51.119  1.00  0.00     0.026 C 
HETATM    6  C6  UNL     1      23.404   2.487  51.665  1.00  0.00     0.122 C 
HETATM    7  C7  UNL     1      23.250   1.941  53.024  1.00  0.00     0.066 C 
HETATM    8  C8  UNL     1      23.106   0.498  53.191  1.00  0.00    -0.059 C 
HETATM    9  C9  UNL     1      21.998  -0.259  53.023  1.00  0.00    -0.014 C 
HETATM   10  C10 UNL     1      20.592   0.014  52.531  1.00  0.00     0.076 C 
HETATM   11  C11 UNL     1      20.792   0.314  51.081  1.00  0.00     0.115 C 
HETATM   12  N1  UNL     1      21.490   1.152  50.439  1.00  0.00    -0.186 NA
HETATM   13  N2  UNL     1      22.482   2.069  50.681  1.00  0.00    -0.242 N 
HETATM   14  C15 UNL     1      24.171  -0.404  53.593  1.00  0.00     0.007 C 
HETATM   15  C16 UNL     1      25.444  -0.690  53.409  1.00  0.00     0.007 C 
ENDROOT
BRANCH  13  16
HETATM   16  C12 UNL     1      22.424   2.779  49.369  1.00  0.00     0.186 A 
HETATM   17  N3  UNL     1      22.284   4.185  49.506  1.00  0.00    -0.225 NA
HETATM   18  C13 UNL     1      22.152   4.941  48.478  1.00  0.00     0.079 A 
HETATM   19  O1  UNL     1      22.007   5.777  47.330  1.00  0.00     0.000 OA
HETATM   20  C14 UNL     1      22.173   4.160  47.169  1.00  0.00     0.129 A 
HETATM   21  H14 UNL     1      21.519   6.667  47.443  1.00  0.00     0.000 HD
HETATM   22  S1  UNL     1      22.390   2.371  47.729  1.00  0.00    -0.078 SA
ENDBRANCH  13  16
TORSDOF 1
ENDMDL
MODEL 5
REMARK VINA RESULT:      -7.7      2.942      4.351
REMARK  1 active torsions:
REMARK  status: ('A' for Active; 'I' for Inactive)
REMARK    1  A    between atoms: N2_13  and  C12_14 
ROOT
HETATM    1  C1  UNL     1      17.013  -2.446  52.923  1.00  0.00     0.048 C 
HETATM    2  C2  UNL     1      18.054  -1.378  52.890  1.00  0.00    -0.065 C 
HETATM    3  C3  UNL     1      18.984  -1.317  53.866  1.00  0.00    -0.014 C 
HETATM    4  C4  UNL     1      19.901  -0.217  53.670  1.00  0.00     0.023 C 
HETATM    5  C5  UNL     1      20.900   0.620  53.856  1.00  0.00     0.026 C 
HETATM    6  C6  UNL     1      21.082   1.712  52.856  1.00  0.00     0.122 C 
HETATM    7  C7  UNL     1      19.858   2.152  52.165  1.00  0.00     0.066 C 
HETATM    8  C8  UNL     1      19.404   1.406  50.995  1.00  0.00    -0.059 C 
HETATM    9  C9  UNL     1      19.858   1.482  49.724  1.00  0.00    -0.014 C 
HETATM   10  C10 UNL     1      20.995   2.217  49.047  1.00  0.00     0.076 C 
HETATM   11  C11 UNL     1      22.211   1.548  49.603  1.00  0.00     0.115 C 
HETATM   12  N1  UNL     1      22.653   1.346  50.771  1.00  0.00    -0.186 NA
HETATM   13  N2  UNL     1      22.231   1.477  52.071  1.00  0.00    -0.242 N 
HETATM   14  C15 UNL     1      18.334   0.423  50.998  1.00  0.00     0.007 C 
HETATM   15  C16 UNL     1      17.827  -0.590  51.672  1.00  0.00     0.007 C 
ENDROOT
BRANCH  13  16
HETATM   16  C12 UNL     1      23.556   1.289  52.732  1.00  0.00     0.186 A 
HETATM   17  N3  UNL     1      24.246   2.511  52.949  1.00  0.00    -0.225 NA
HETATM   18  C13 UNL     1      25.427   2.525  53.448  1.00  0.00     0.079 A 
HETATM   19  O1  UNL     1      26.742   2.534  54.005  1.00  0.00     0.000 OA
HETATM   20  C14 UNL     1      25.949   1.127  53.760  1.00  0.00     0.129 A 
HETATM   21  H14 UNL     1      27.351   3.322  53.781  1.00  0.00     0.000 HD
HETATM   22  S1  UNL     1      24.531   0.001  53.231  1.00  0.00    -0.078 SA
ENDBRANCH  13  16
TORSDOF 1
ENDMDL
MODEL 6
REMARK VINA RESULT:      -7.6      4.348      6.300
REMARK  1 active torsions:
REMARK  status: ('A' for Active; 'I' for Inactive)
REMARK    1  A    between atoms: N2_13  and  C12_14 
ROOT
HETATM    1  C1  UNL     1      26.575   0.484  54.849  1.00  0.00     0.048 C 
HETATM    2  C2  UNL     1      25.387   0.561  53.950  1.00  0.00    -0.065 C 
HETATM    3  C3  UNL     1      24.561  -0.499  53.839  1.00  0.00    -0.014 C 
HETATM    4  C4  UNL     1      23.473  -0.241  52.922  1.00  0.00     0.023 C 
HETATM    5  C5  UNL     1      22.383  -0.411  52.204  1.00  0.00     0.026 C 
HETATM    6  C6  UNL     1      21.939   0.723  51.343  1.00  0.00     0.122 C 
HETATM    7  C7  UNL     1      23.008   1.624  50.877  1.00  0.00     0.066 C 
HETATM    8  C8  UNL     1      23.450   2.703  51.755  1.00  0.00    -0.059 C 
HETATM    9  C9  UNL     1      22.865   3.903  51.969  1.00  0.00    -0.014 C 
HETATM   10  C10 UNL     1      21.568   4.545  51.523  1.00  0.00     0.076 C 
HETATM   11  C11 UNL     1      20.529   3.740  52.236  1.00  0.00     0.115 C 
HETATM   12  N1  UNL     1      20.241   2.509  52.281  1.00  0.00    -0.186 NA
HETATM   13  N2  UNL     1      20.767   1.311  51.865  1.00  0.00    -0.242 N 
HETATM   14  C15 UNL     1      24.651   2.673  52.571  1.00  0.00     0.007 C 
HETATM   15  C16 UNL     1      25.370   1.910  53.372  1.00  0.00     0.007 C 
ENDROOT
BRANCH  13  16
HETATM   16  C12 UNL     1      19.557   0.468  52.103  1.00  0.00     0.186 A 
HETATM   17  N3  UNL     1      19.627  -0.272  53.312  1.00  0.00    -0.225 NA
HETATM   18  C13 UNL     1      18.700  -1.097  53.639  1.00  0.00     0.079 A 
HETATM   19  O1  UNL     1      17.666  -2.013  53.997  1.00  0.00     0.000 OA
HETATM   20  C14 UNL     1      17.580  -1.159  52.607  1.00  0.00     0.129 A 
HETATM   21  H14 UNL     1      17.907  -2.794  54.608  1.00  0.00     0.000 HD
HETATM   22  S1  UNL     1      18.132   0.069  51.285  1.00  0.00    -0.078 SA
ENDBRANCH  13  16
TORSDOF 1
ENDMDL
MODEL 7
REMARK VINA RESULT:      -7.6      3.581      6.148
REMARK  1 active torsions:
REMARK  status: ('A' for Active; 'I' for Inactive)
REMARK    1  A    between atoms: N2_13  and  C12_14 
ROOT
HETATM    1  C1  UNL     1      27.012   4.122  48.913  1.00  0.00     0.048 C 
HETATM    2  C2  UNL     1      26.033   3.641  49.930  1.00  0.00    -0.065 C 
HETATM    3  C3  UNL     1      24.712   3.839  49.734  1.00  0.00    -0.014 C 
HETATM    4  C4  UNL     1      23.921   3.312  50.824  1.00  0.00     0.023 C 
HETATM    5  C5  UNL     1      22.884   2.987  51.566  1.00  0.00     0.026 C 
HETATM    6  C6  UNL     1      23.149   2.287  52.856  1.00  0.00     0.122 C 
HETATM    7  C7  UNL     1      24.452   2.573  53.479  1.00  0.00     0.066 C 
HETATM    8  C8  UNL     1      25.623   1.819  53.040  1.00  0.00    -0.059 C 
HETATM    9  C9  UNL     1      25.999   0.571  53.398  1.00  0.00    -0.014 C 
HETATM   10  C10 UNL     1      25.378  -0.523  54.239  1.00  0.00     0.076 C 
HETATM   11  C11 UNL     1      24.198  -0.948  53.425  1.00  0.00     0.115 C 
HETATM   12  N1  UNL     1      23.194  -0.348  52.944  1.00  0.00    -0.186 NA
HETATM   13  N2  UNL     1      22.741   0.937  52.779  1.00  0.00    -0.242 N 
HETATM   14  C15 UNL     1      26.630   2.310  52.114  1.00  0.00     0.007 C 
HETATM   15  C16 UNL     1      26.800   2.970  50.986  1.00  0.00     0.007 C 
ENDROOT
BRANCH  13  16
HETATM   16  C12 UNL     1      21.334   0.608  52.405  1.00  0.00     0.186 A 
HETATM   17  N3  UNL     1      20.612  -0.015  53.456  1.00  0.00    -0.225 NA
HETATM   18  C13 UNL     1      19.408  -0.423  53.282  1.00  0.00     0.079 A 
HETATM   19  O1  UNL     1      18.068  -0.875  53.083  1.00  0.00     0.000 OA
HETATM   20  C14 UNL     1      18.895  -0.153  51.872  1.00  0.00     0.129 A 
HETATM   21  H14 UNL     1      17.729  -1.642  53.665  1.00  0.00     0.000 HD
HETATM   22  S1  UNL     1      20.356   0.690  51.027  1.00  0.00    -0.078 SA
ENDBRANCH  13  16
TORSDOF 1
ENDMDL
MODEL 8
REMARK VINA RESULT:      -7.6      3.602      5.367
REMARK  1 active torsions:
REMARK  status: ('A' for Active; 'I' for Inactive)
REMARK    1  A    between atoms: N2_13  and  C12_14 
ROOT
HETATM    1  C1  UNL     1      23.783   7.856  50.754  1.00  0.00     0.048 C 
HETATM    2  C2  UNL     1      23.794   6.372  50.902  1.00  0.00    -0.065 C 
HETATM    3  C3  UNL     1      23.854   5.821  52.132  1.00  0.00    -0.014 C 
HETATM    4  C4  UNL     1      23.861   4.376  52.075  1.00  0.00     0.023 C 
HETATM    5  C5  UNL     1      23.886   3.116  52.454  1.00  0.00     0.026 C 
HETATM    6  C6  UNL     1      23.851   2.074  51.387  1.00  0.00     0.122 C 
HETATM    7  C7  UNL     1      24.415   2.475  50.087  1.00  0.00     0.066 C 
HETATM    8  C8  UNL     1      23.569   3.205  49.147  1.00  0.00    -0.059 C 
HETATM    9  C9  UNL     1      22.626   2.713  48.312  1.00  0.00    -0.014 C 
HETATM   10  C10 UNL     1      22.019   1.345  48.087  1.00  0.00     0.076 C 
HETATM   11  C11 UNL     1      21.247   1.105  49.344  1.00  0.00     0.115 C 
HETATM   12  N1  UNL     1      21.543   1.091  50.574  1.00  0.00    -0.186 NA
HETATM   13  N2  UNL     1      22.605   1.411  51.384  1.00  0.00    -0.242 N 
HETATM   14  C15 UNL     1      23.608   4.641  48.934  1.00  0.00     0.007 C 
HETATM   15  C16 UNL     1      23.689   5.803  49.553  1.00  0.00     0.007 C 
ENDROOT
BRANCH  13  16
HETATM   16  C12 UNL     1      22.112   0.751  52.630  1.00  0.00     0.186 A 
HETATM   17  N3  UNL     1      23.050  -0.159  53.183  1.00  0.00    -0.225 NA
HETATM   18  C13 UNL     1      22.762  -0.860  54.218  1.00  0.00     0.079 A 
HETATM   19  O1  UNL     1      22.436  -1.637  55.371  1.00  0.00     0.000 OA
HETATM   20  C14 UNL     1      21.356  -0.586  54.739  1.00  0.00     0.129 A 
HETATM   21  H14 UNL     1      22.917  -2.528  55.501  1.00  0.00     0.000 HD
HETATM   22  S1  UNL     1      20.691   0.714  53.545  1.00  0.00    -0.078 SA
ENDBRANCH  13  16
TORSDOF 1
ENDMDL
MODEL 9
REMARK VINA RESULT:      -7.5      4.675      7.327
REMARK  1 active torsions:
REMARK  status: ('A' for Active; 'I' for Inactive)
REMARK    1  A    between atoms: N2_13  and  C12_14 
ROOT
HETATM    1  C1  UNL     1      27.352   4.386  48.837  1.00  0.00     0.048 C 
HETATM    2  C2  UNL     1      26.108   4.200  49.640  1.00  0.00    -0.065 C 
HETATM    3  C3  UNL     1      25.000   4.905  49.331  1.00  0.00    -0.014 C 
HETATM    4  C4  UNL     1      23.901   4.597  50.219  1.00  0.00     0.023 C 
HETATM    5  C5  UNL     1      22.706   4.608  50.772  1.00  0.00     0.026 C 
HETATM    6  C6  UNL     1      22.481   3.717  51.946  1.00  0.00     0.122 C 
HETATM    7  C7  UNL     1      23.675   3.414  52.754  1.00  0.00     0.066 C 
HETATM    8  C8  UNL     1      24.554   2.328  52.330  1.00  0.00    -0.059 C 
HETATM    9  C9  UNL     1      24.392   0.998  52.513  1.00  0.00    -0.014 C 
HETATM   10  C10 UNL     1      23.286   0.133  53.081  1.00  0.00     0.076 C 
HETATM   11  C11 UNL     1      22.188   0.284  52.078  1.00  0.00     0.115 C 
HETATM   12  N1  UNL     1      21.563   1.271  51.593  1.00  0.00    -0.186 NA
HETATM   13  N2  UNL     1      21.636   2.642  51.597  1.00  0.00    -0.242 N 
HETATM   14  C15 UNL     1      25.810   2.502  51.622  1.00  0.00     0.007 C 
HETATM   15  C16 UNL     1      26.394   3.172  50.648  1.00  0.00     0.007 C 
ENDROOT
BRANCH  13  16
HETATM   16  C12 UNL     1      20.289   2.916  51.014  1.00  0.00     0.186 A 
HETATM   17  N3  UNL     1      19.372   3.444  51.961  1.00  0.00    -0.225 NA
HETATM   18  C13 UNL     1      18.151   3.675  51.644  1.00  0.00     0.079 A 
HETATM   19  O1  UNL     1      16.794   3.932  51.284  1.00  0.00     0.000 OA
HETATM   20  C14 UNL     1      17.847   3.329  50.191  1.00  0.00     0.129 A 
HETATM   21  H14 UNL     1      16.090   3.912  52.023  1.00  0.00     0.000 HD
HETATM   22  S1  UNL     1      19.499   2.694  49.536  1.00  0.00    -0.078 SA
ENDBRANCH  13  16
TORSDOF 1
ENDMDL
