MODEL 1
REMARK VINA RESULT:      -8.8      0.000      0.000
REMARK  3 active torsions:
REMARK  status: ('A' for Active; 'I' for Inactive)
REMARK    1  A    between atoms: N1_8  and  C7_9 
REMARK    2  A    between atoms: C9_11  and  N2_12 
REMARK       I    between atoms: N2_12  and  C10_13 
REMARK    3  A    between atoms: C10_13  and  C11_15 
ROOT
HETATM    1  C7  UNL     1      21.866   1.982  50.649  1.00  0.00     0.195 A 
HETATM    2  C8  UNL     1      23.263   1.876  51.103  1.00  0.00     0.060 C 
HETATM    3  C9  UNL     1      23.818   2.809  51.879  1.00  0.00     0.016 C 
HETATM    4  C14 UNL     1      23.639   4.069  52.587  1.00  0.00     0.084 C 
HETATM    5  C15 UNL     1      22.292   4.639  52.346  1.00  0.00    -0.019 C 
HETATM    6  C16 UNL     1      21.274   4.394  51.498  1.00  0.00     0.028 C 
HETATM    7  C17 UNL     1      21.354   3.324  50.495  1.00  0.00     0.090 A 
HETATM    8  N4  UNL     1      20.944   3.531  49.254  1.00  0.00    -0.242 NA
HETATM    9  C18 UNL     1      21.184   2.314  48.562  1.00  0.00     0.230 A 
HETATM   10  N5  UNL     1      21.705   1.411  49.308  1.00  0.00    -0.240 NA
ENDROOT
BRANCH   3  11
HETATM   11  N2  UNL     1      25.170   2.456  52.164  1.00  0.00    -0.329 N 
HETATM   12  C10 UNL     1      25.782   1.505  53.014  1.00  0.00     0.247 C 
HETATM   13  O1  UNL     1      25.045   0.768  53.712  1.00  0.00    -0.271 OA
HETATM   14  H9  UNL     1      25.812   3.075  51.576  1.00  0.00     0.168 HD
BRANCH  12  15
HETATM   15  C11 UNL     1      27.270   1.461  53.001  1.00  0.00     0.203 C 
HETATM   16  C12 UNL     1      27.673   0.229  53.799  1.00  0.00     0.215 C 
HETATM   17  O2  UNL     1      28.963   0.573  54.258  1.00  0.00    -0.301 OA
HETATM   18  C13 UNL     1      28.994   1.961  54.414  1.00  0.00     0.361 C 
HETATM   19  O3  UNL     1      29.976   2.441  55.053  1.00  0.00    -0.238 OA
HETATM   20  N3  UNL     1      27.833   2.528  53.768  1.00  0.00    -0.321 N 
HETATM   21  H13 UNL     1      27.717   3.546  54.030  1.00  0.00     0.165 HD
ENDBRANCH  12  15
ENDBRANCH   3  11
BRANCH   1  22
HETATM   22  N1  UNL     1      21.086   1.118  51.530  1.00  0.00    -0.345 N 
HETATM   23  C2  UNL     1      19.679   0.875  51.323  1.00  0.00     0.106 A 
HETATM   24  C1  UNL     1      18.945   2.188  51.569  1.00  0.00     0.037 C 
HETATM   25  C3  UNL     1      19.204  -0.074  52.355  1.00  0.00    -0.001 A 
HETATM   26  C4  UNL     1      19.788  -0.682  53.368  1.00  0.00     0.018 A 
HETATM   27  C5  UNL     1      21.221  -0.362  53.519  1.00  0.00     0.026 A 
HETATM   28 BR1  UNL     1      22.142  -1.187  54.958  1.00  0.00    -0.050 Br
HETATM   29  C6  UNL     1      21.713   0.473  52.624  1.00  0.00     0.108 A 
ENDBRANCH   1  22
TORSDOF 3
ENDMDL
MODEL 2
REMARK VINA RESULT:      -8.5      2.531      3.588
REMARK  3 active torsions:
REMARK  status: ('A' for Active; 'I' for Inactive)
REMARK    1  A    between atoms: N1_8  and  C7_9 
REMARK    2  A    between atoms: C9_11  and  N2_12 
REMARK       I    between atoms: N2_12  and  C10_13 
REMARK    3  A    between atoms: C10_13  and  C11_15 
ROOT
HETATM    1  C7  UNL     1      24.642   3.711  50.143  1.00  0.00     0.195 A 
HETATM    2  C8  UNL     1      25.268   2.688  50.996  1.00  0.00     0.060 C 
HETATM    3  C9  UNL     1      25.063   2.656  52.314  1.00  0.00     0.016 C 
HETATM    4  C14 UNL     1      24.400   3.264  53.459  1.00  0.00     0.084 C 
HETATM    5  C15 UNL     1      23.643   4.476  53.065  1.00  0.00    -0.019 C 
HETATM    6  C16 UNL     1      23.570   5.260  51.972  1.00  0.00     0.028 C 
HETATM    7  C17 UNL     1      24.378   4.983  50.776  1.00  0.00     0.090 A 
HETATM    8  N4  UNL     1      24.997   5.963  50.139  1.00  0.00    -0.242 NA
HETATM    9  C18 UNL     1      25.691   5.345  49.065  1.00  0.00     0.230 A 
HETATM   10  N5  UNL     1      25.521   4.075  49.027  1.00  0.00    -0.240 NA
ENDROOT
BRANCH   3  11
HETATM   11  N2  UNL     1      25.787   1.570  52.887  1.00  0.00    -0.329 N 
HETATM   12  C10 UNL     1      25.472   0.221  53.182  1.00  0.00     0.247 C 
HETATM   13  O1  UNL     1      24.320  -0.194  52.914  1.00  0.00    -0.271 OA
HETATM   14  H9  UNL     1      26.774   1.906  53.121  1.00  0.00     0.168 HD
BRANCH  12  15
HETATM   15  C11 UNL     1      26.557  -0.598  53.790  1.00  0.00     0.203 C 
HETATM   16  C12 UNL     1      27.148   0.237  54.917  1.00  0.00     0.215 C 
HETATM   17  O2  UNL     1      28.462  -0.270  55.013  1.00  0.00    -0.301 OA
HETATM   18  C13 UNL     1      28.839  -0.699  53.737  1.00  0.00     0.361 C 
HETATM   19  O3  UNL     1      30.066  -0.952  53.560  1.00  0.00    -0.238 OA
HETATM   20  N3  UNL     1      27.664  -0.748  52.898  1.00  0.00    -0.321 N 
HETATM   21  H13 UNL     1      27.933  -0.876  51.884  1.00  0.00     0.165 HD
ENDBRANCH  12  15
ENDBRANCH   3  11
BRANCH   1  22
HETATM   22  N1  UNL     1      23.483   3.072  49.527  1.00  0.00    -0.345 N 
HETATM   23  C2  UNL     1      23.133   3.283  48.142  1.00  0.00     0.106 A 
HETATM   24  C1  UNL     1      22.709   4.739  47.991  1.00  0.00     0.037 C 
HETATM   25  C3  UNL     1      21.944   2.461  47.823  1.00  0.00    -0.001 A 
HETATM   26  C4  UNL     1      21.189   1.643  48.528  1.00  0.00     0.018 A 
HETATM   27  C5  UNL     1      21.605   1.502  49.938  1.00  0.00     0.026 A 
HETATM   28 BR1  UNL     1      20.569   0.349  51.031  1.00  0.00    -0.050 Br
HETATM   29  C6  UNL     1      22.667   2.202  50.288  1.00  0.00     0.108 A 
ENDBRANCH   1  22
TORSDOF 3
ENDMDL
MODEL 3
REMARK VINA RESULT:      -8.4      1.621      2.054
REMARK  3 active torsions:
REMARK  status: ('A' for Active; 'I' for Inactive)
REMARK    1  A    between atoms: N1_8  and  C7_9 
REMARK    2  A    between atoms: C9_11  and  N2_12 
REMARK       I    between atoms: N2_12  and  C10_13 
REMARK    3  A    between atoms: C10_13  and  C11_15 
ROOT
HETATM    1  C7  UNL     1      21.666   1.616  50.657  1.00  0.00     0.195 A 
HETATM    2  C8  UNL     1      23.039   1.476  51.168  1.00  0.00     0.060 C 
HETATM    3  C9  UNL     1      23.606   2.424  51.917  1.00  0.00     0.016 C 
HETATM    4  C14 UNL     1      23.457   3.725  52.554  1.00  0.00     0.084 C 
HETATM    5  C15 UNL     1      22.144   4.337  52.235  1.00  0.00    -0.019 C 
HETATM    6  C16 UNL     1      21.147   4.091  51.362  1.00  0.00     0.028 C 
HETATM    7  C17 UNL     1      21.217   2.968  50.417  1.00  0.00     0.090 A 
HETATM    8  N4  UNL     1      20.860   3.128  49.153  1.00  0.00    -0.242 NA
HETATM    9  C18 UNL     1      21.073   1.868  48.532  1.00  0.00     0.230 A 
HETATM   10  N5  UNL     1      21.528   0.984  49.341  1.00  0.00    -0.240 NA
ENDROOT
BRANCH   3  11
HETATM   11  N2  UNL     1      24.930   2.032  52.269  1.00  0.00    -0.329 N 
HETATM   12  C10 UNL     1      26.218   2.362  51.783  1.00  0.00     0.247 C 
HETATM   13  O1  UNL     1      26.306   3.171  50.829  1.00  0.00    -0.271 OA
HETATM   14  H9  UNL     1      24.874   1.342  53.083  1.00  0.00     0.168 HD
BRANCH  12  15
HETATM   15  C11 UNL     1      27.372   1.712  52.463  1.00  0.00     0.203 C 
HETATM   16  C12 UNL     1      26.821   1.061  53.724  1.00  0.00     0.215 C 
HETATM   17  O2  UNL     1      27.951   1.031  54.569  1.00  0.00    -0.301 OA
HETATM   18  C13 UNL     1      28.751   2.128  54.236  1.00  0.00     0.361 C 
HETATM   19  O3  UNL     1      29.681   2.421  55.043  1.00  0.00    -0.238 OA
HETATM   20  N3  UNL     1      28.288   2.679  52.984  1.00  0.00    -0.321 N 
HETATM   21  H13 UNL     1      28.735   3.618  52.799  1.00  0.00     0.165 HD
ENDBRANCH  12  15
ENDBRANCH   3  11
BRANCH   1  22
HETATM   22  N1  UNL     1      20.819   0.831  51.551  1.00  0.00    -0.345 N 
HETATM   23  C2  UNL     1      21.288   0.341  52.825  1.00  0.00     0.106 A 
HETATM   24  C1  UNL     1      22.369  -0.697  52.548  1.00  0.00     0.037 C 
HETATM   25  C3  UNL     1      20.179  -0.372  53.497  1.00  0.00    -0.001 A 
HETATM   26  C4  UNL     1      18.933  -0.637  53.160  1.00  0.00     0.018 A 
HETATM   27  C5  UNL     1      18.542  -0.118  51.835  1.00  0.00     0.026 A 
HETATM   28 BR1  UNL     1      16.767  -0.461  51.263  1.00  0.00    -0.050 Br
HETATM   29  C6  UNL     1      19.484   0.538  51.183  1.00  0.00     0.108 A 
ENDBRANCH   1  22
TORSDOF 3
ENDMDL
MODEL 4
REMARK VINA RESULT:      -8.3      3.911      6.343
REMARK  3 active torsions:
REMARK  status: ('A' for Active; 'I' for Inactive)
REMARK    1  A    between atoms: N1_8  and  C7_9 
REMARK    2  A    between atoms: C9_11  and  N2_12 
REMARK       I    between atoms: N2_12  and  C10_13 
REMARK    3  A    between atoms: C10_13  and  C11_15 
ROOT
HETATM    1  C7  UNL     1      23.343   4.490  50.233  1.00  0.00     0.195 A 
HETATM    2  C8  UNL     1      23.099   3.201  50.902  1.00  0.00     0.060 C 
HETATM    3  C9  UNL     1      22.489   2.194  50.275  1.00  0.00     0.016 C 
HETATM    4  C14 UNL     1      21.866   1.721  49.046  1.00  0.00     0.084 C 
HETATM    5  C15 UNL     1      21.814   2.791  48.021  1.00  0.00    -0.019 C 
HETATM    6  C16 UNL     1      22.015   4.123  47.998  1.00  0.00     0.028 C 
HETATM    7  C17 UNL     1      22.390   4.861  49.213  1.00  0.00     0.090 A 
HETATM    8  N4  UNL     1      21.817   6.017  49.502  1.00  0.00    -0.242 NA
HETATM    9  C18 UNL     1      22.389   6.431  50.734  1.00  0.00     0.230 A 
HETATM   10  N5  UNL     1      23.254   5.601  51.187  1.00  0.00    -0.240 NA
ENDROOT
BRANCH   3  11
HETATM   11  N2  UNL     1      22.384   1.074  51.152  1.00  0.00    -0.329 N 
HETATM   12  C10 UNL     1      21.458   0.689  52.151  1.00  0.00     0.247 C 
HETATM   13  O1  UNL     1      20.485   1.444  52.385  1.00  0.00    -0.271 OA
HETATM   14  H9  UNL     1      23.207   0.420  50.965  1.00  0.00     0.168 HD
BRANCH  12  15
HETATM   15  C11 UNL     1      21.726  -0.601  52.844  1.00  0.00     0.203 C 
HETATM   16  C12 UNL     1      20.550  -0.842  53.780  1.00  0.00     0.215 C 
HETATM   17  O2  UNL     1      21.120  -1.657  54.781  1.00  0.00    -0.301 OA
HETATM   18  C13 UNL     1      22.470  -1.309  54.885  1.00  0.00     0.361 C 
HETATM   19  O3  UNL     1      23.096  -1.745  55.895  1.00  0.00    -0.238 OA
HETATM   20  N3  UNL     1      22.829  -0.493  53.748  1.00  0.00    -0.321 N 
HETATM   21  H13 UNL     1      23.778  -0.050  53.889  1.00  0.00     0.165 HD
ENDBRANCH  12  15
ENDBRANCH   3  11
BRANCH   1  22
HETATM   22  N1  UNL     1      24.737   4.466  49.800  1.00  0.00    -0.345 N 
HETATM   23  C2  UNL     1      25.564   3.290  49.932  1.00  0.00     0.106 A 
HETATM   24  C1  UNL     1      25.773   3.038  51.420  1.00  0.00     0.037 C 
HETATM   25  C3  UNL     1      26.898   3.582  49.361  1.00  0.00    -0.001 A 
HETATM   26  C4  UNL     1      27.436   4.651  48.809  1.00  0.00     0.018 A 
HETATM   27  C5  UNL     1      26.528   5.813  48.733  1.00  0.00     0.026 A 
HETATM   28 BR1  UNL     1      27.222   7.400  47.960  1.00  0.00    -0.050 Br
HETATM   29  C6  UNL     1      25.316   5.618  49.217  1.00  0.00     0.108 A 
ENDBRANCH   1  22
TORSDOF 3
ENDMDL
MODEL 5
REMARK VINA RESULT:      -8.2      3.976      5.811
REMARK  3 active torsions:
REMARK  status: ('A' for Active; 'I' for Inactive)
REMARK    1  A    between atoms: N1_8  and  C7_9 
REMARK    2  A    between atoms: C9_11  and  N2_12 
REMARK       I    between atoms: N2_12  and  C10_13 
REMARK    3  A    between atoms: C10_13  and  C11_15 
ROOT
HETATM    1  C7  UNL     1      23.507   5.825  50.205  1.00  0.00     0.195 A 
HETATM    2  C8  UNL     1      24.253   4.954  51.128  1.00  0.00     0.060 C 
HETATM    3  C9  UNL     1      24.310   3.633  50.950  1.00  0.00     0.016 C 
HETATM    4  C14 UNL     1      23.912   2.495  50.132  1.00  0.00     0.084 C 
HETATM    5  C15 UNL     1      23.016   2.911  49.026  1.00  0.00    -0.019 C 
HETATM    6  C16 UNL     1      22.328   4.024  48.703  1.00  0.00     0.028 C 
HETATM    7  C17 UNL     1      22.368   5.223  49.552  1.00  0.00     0.090 A 
HETATM    8  N4  UNL     1      21.261   5.893  49.825  1.00  0.00    -0.242 NA
HETATM    9  C18 UNL     1      21.657   6.959  50.675  1.00  0.00     0.230 A 
HETATM   10  N5  UNL     1      22.916   6.962  50.919  1.00  0.00    -0.240 NA
ENDROOT
BRANCH   3  11
HETATM   11  N2  UNL     1      25.092   3.040  51.984  1.00  0.00    -0.329 N 
HETATM   12  C10 UNL     1      26.443   2.631  52.087  1.00  0.00     0.247 C 
HETATM   13  O1  UNL     1      27.190   2.785  51.092  1.00  0.00    -0.271 OA
HETATM   14  H9  UNL     1      24.470   2.903  52.842  1.00  0.00     0.168 HD
BRANCH  12  15
HETATM   15  C11 UNL     1      26.865   2.050  53.391  1.00  0.00     0.203 C 
HETATM   16  C12 UNL     1      28.311   2.476  53.607  1.00  0.00     0.215 C 
HETATM   17  O2  UNL     1      28.805   1.456  54.448  1.00  0.00    -0.301 OA
HETATM   18  C13 UNL     1      28.108   0.284  54.139  1.00  0.00     0.361 C 
HETATM   19  O3  UNL     1      28.574  -0.797  54.603  1.00  0.00    -0.238 OA
HETATM   20  N3  UNL     1      26.966   0.625  53.322  1.00  0.00    -0.321 N 
HETATM   21  H13 UNL     1      26.529  -0.243  52.907  1.00  0.00     0.165 HD
ENDBRANCH  12  15
ENDBRANCH   3  11
BRANCH   1  22
HETATM   22  N1  UNL     1      24.500   6.409  49.308  1.00  0.00    -0.345 N 
HETATM   23  C2  UNL     1      24.228   7.590  48.523  1.00  0.00     0.106 A 
HETATM   24  C1  UNL     1      23.165   7.224  47.495  1.00  0.00     0.037 C 
HETATM   25  C3  UNL     1      25.447   7.945  47.763  1.00  0.00    -0.001 A 
HETATM   26  C4  UNL     1      26.647   7.407  47.665  1.00  0.00     0.018 A 
HETATM   27  C5  UNL     1      26.832   6.193  48.485  1.00  0.00     0.026 A 
HETATM   28 BR1  UNL     1      28.527   5.346  48.400  1.00  0.00    -0.050 Br
HETATM   29  C6  UNL     1      25.784   5.825  49.197  1.00  0.00     0.108 A 
ENDBRANCH   1  22
TORSDOF 3
ENDMDL
MODEL 6
REMARK VINA RESULT:      -8.1      4.648      5.311
REMARK  3 active torsions:
REMARK  status: ('A' for Active; 'I' for Inactive)
REMARK    1  A    between atoms: N1_8  and  C7_9 
REMARK    2  A    between atoms: C9_11  and  N2_12 
REMARK       I    between atoms: N2_12  and  C10_13 
REMARK    3  A    between atoms: C10_13  and  C11_15 
ROOT
HETATM    1  C7  UNL     1      23.939   3.741  49.771  1.00  0.00     0.195 A 
HETATM    2  C8  UNL     1      25.226   4.319  49.354  1.00  0.00     0.060 C 
HETATM    3  C9  UNL     1      25.624   5.519  49.782  1.00  0.00     0.016 C 
HETATM    4  C14 UNL     1      25.316   6.686  50.597  1.00  0.00     0.084 C 
HETATM    5  C15 UNL     1      23.970   6.577  51.210  1.00  0.00    -0.019 C 
HETATM    6  C16 UNL     1      22.896   5.779  51.054  1.00  0.00     0.028 C 
HETATM    7  C17 UNL     1      22.890   4.687  50.071  1.00  0.00     0.090 A 
HETATM    8  N4  UNL     1      21.835   4.480  49.300  1.00  0.00    -0.242 NA
HETATM    9  C18 UNL     1      22.177   3.381  48.468  1.00  0.00     0.230 A 
HETATM   10  N5  UNL     1      23.355   2.930  48.696  1.00  0.00    -0.240 NA
ENDROOT
BRANCH   3  11
HETATM   11  N2  UNL     1      26.899   5.830  49.225  1.00  0.00    -0.329 N 
HETATM   12  C10 UNL     1      27.341   6.700  48.199  1.00  0.00     0.247 C 
HETATM   13  O1  UNL     1      26.486   7.384  47.589  1.00  0.00    -0.271 OA
HETATM   14  H9  UNL     1      27.641   5.255  49.735  1.00  0.00     0.168 HD
BRANCH  12  15
HETATM   15  C11 UNL     1      28.806   6.727  47.935  1.00  0.00     0.203 C 
HETATM   16  C12 UNL     1      29.330   5.336  48.264  1.00  0.00     0.215 C 
HETATM   17  O2  UNL     1      30.680   5.589  48.589  1.00  0.00    -0.301 OA
HETATM   18  C13 UNL     1      30.744   6.875  49.135  1.00  0.00     0.361 C 
HETATM   19  O3  UNL     1      31.820   7.194  49.719  1.00  0.00    -0.238 OA
HETATM   20  N3  UNL     1      29.494   7.552  48.877  1.00  0.00    -0.321 N 
HETATM   21  H13 UNL     1      29.429   8.446  49.438  1.00  0.00     0.165 HD
ENDBRANCH  12  15
ENDBRANCH   3  11
BRANCH   1  22
HETATM   22  N1  UNL     1      24.246   2.795  50.841  1.00  0.00    -0.345 N 
HETATM   23  C2  UNL     1      23.287   1.822  51.308  1.00  0.00     0.106 A 
HETATM   24  C1  UNL     1      22.151   2.582  51.981  1.00  0.00     0.037 C 
HETATM   25  C3  UNL     1      23.923   0.995  52.356  1.00  0.00    -0.001 A 
HETATM   26  C4  UNL     1      25.117   0.995  52.915  1.00  0.00     0.018 A 
HETATM   27  C5  UNL     1      26.027   2.035  52.394  1.00  0.00     0.026 A 
HETATM   28 BR1  UNL     1      27.765   2.116  53.148  1.00  0.00    -0.050 Br
HETATM   29  C6  UNL     1      25.525   2.804  51.447  1.00  0.00     0.108 A 
ENDBRANCH   1  22
TORSDOF 3
ENDMDL
MODEL 7
REMARK VINA RESULT:      -8.0      2.267      2.659
REMARK  3 active torsions:
REMARK  status: ('A' for Active; 'I' for Inactive)
REMARK    1  A    between atoms: N1_8  and  C7_9 
REMARK    2  A    between atoms: C9_11  and  N2_12 
REMARK       I    between atoms: N2_12  and  C10_13 
REMARK    3  A    between atoms: C10_13  and  C11_15 
ROOT
HETATM    1  C7  UNL     1      22.441   3.036  50.234  1.00  0.00     0.195 A 
HETATM    2  C8  UNL     1      23.453   2.213  50.914  1.00  0.00     0.060 C 
HETATM    3  C9  UNL     1      23.999   2.592  52.071  1.00  0.00     0.016 C 
HETATM    4  C14 UNL     1      24.052   3.601  53.121  1.00  0.00     0.084 C 
HETATM    5  C15 UNL     1      23.176   4.755  52.807  1.00  0.00    -0.019 C 
HETATM    6  C16 UNL     1      22.502   5.194  51.727  1.00  0.00     0.028 C 
HETATM    7  C17 UNL     1      22.534   4.461  50.454  1.00  0.00     0.090 A 
HETATM    8  N4  UNL     1      22.686   5.105  49.309  1.00  0.00    -0.242 NA
HETATM    9  C18 UNL     1      22.697   4.103  48.303  1.00  0.00     0.230 A 
HETATM   10  N5  UNL     1      22.562   2.919  48.776  1.00  0.00    -0.240 NA
ENDROOT
BRANCH   3  11
HETATM   11  N2  UNL     1      24.943   1.614  52.502  1.00  0.00    -0.329 N 
HETATM   12  C10 UNL     1      24.842   0.387  53.200  1.00  0.00     0.247 C 
HETATM   13  O1  UNL     1      23.706  -0.001  53.561  1.00  0.00    -0.271 OA
HETATM   14  H9  UNL     1      25.918   1.930  52.201  1.00  0.00     0.168 HD
BRANCH  12  15
HETATM   15  C11 UNL     1      26.114  -0.347  53.444  1.00  0.00     0.203 C 
HETATM   16  C12 UNL     1      26.489  -0.091  54.897  1.00  0.00     0.215 C 
HETATM   17  O2  UNL     1      27.891  -0.252  54.882  1.00  0.00    -0.301 OA
HETATM   18  C13 UNL     1      28.342   0.131  53.615  1.00  0.00     0.361 C 
HETATM   19  O3  UNL     1      29.589   0.299  53.480  1.00  0.00    -0.238 OA
HETATM   20  N3  UNL     1      27.205   0.242  52.731  1.00  0.00    -0.321 N 
HETATM   21  H13 UNL     1      27.478   0.716  51.827  1.00  0.00     0.165 HD
ENDBRANCH  12  15
ENDBRANCH   3  11
BRANCH   1  22
HETATM   22  N1  UNL     1      21.148   2.442  50.559  1.00  0.00    -0.345 N 
HETATM   23  C2  UNL     1      20.978   1.020  50.745  1.00  0.00     0.106 A 
HETATM   24  C1  UNL     1      21.215   0.349  49.398  1.00  0.00     0.037 C 
HETATM   25  C3  UNL     1      19.568   0.754  51.108  1.00  0.00    -0.001 A 
HETATM   26  C4  UNL     1      18.509   1.523  51.264  1.00  0.00     0.018 A 
HETATM   27  C5  UNL     1      18.767   2.959  51.036  1.00  0.00     0.026 A 
HETATM   28 BR1  UNL     1      17.296   4.140  51.231  1.00  0.00    -0.050 Br
HETATM   29  C6  UNL     1      20.009   3.268  50.717  1.00  0.00     0.108 A 
ENDBRANCH   1  22
TORSDOF 3
ENDMDL
MODEL 8
REMARK VINA RESULT:      -8.0      3.790      4.402
REMARK  3 active torsions:
REMARK  status: ('A' for Active; 'I' for Inactive)
REMARK    1  A    between atoms: N1_8  and  C7_9 
REMARK    2  A    between atoms: C9_11  and  N2_12 
REMARK       I    between atoms: N2_12  and  C10_13 
REMARK    3  A    between atoms: C10_13  and  C11_15 
ROOT
HETATM    1  C7  UNL     1      22.374   2.202  50.489  1.00  0.00     0.195 A 
HETATM    2  C8  UNL     1      23.542   3.066  50.254  1.00  0.00     0.060 C 
HETATM    3  C9  UNL     1      23.622   4.291  50.779  1.00  0.00     0.016 C 
HETATM    4  C14 UNL     1      22.983   5.308  51.602  1.00  0.00     0.084 C 
HETATM    5  C15 UNL     1      21.635   4.876  52.046  1.00  0.00    -0.019 C 
HETATM    6  C16 UNL     1      20.783   3.883  51.728  1.00  0.00     0.028 C 
HETATM    7  C17 UNL     1      21.119   2.884  50.704  1.00  0.00     0.090 A 
HETATM    8  N4  UNL     1      20.222   2.513  49.805  1.00  0.00    -0.242 NA
HETATM    9  C18 UNL     1      20.881   1.570  48.972  1.00  0.00     0.230 A 
HETATM   10  N5  UNL     1      22.098   1.363  49.318  1.00  0.00    -0.240 NA
ENDROOT
BRANCH   3  11
HETATM   11  N2  UNL     1      24.851   4.901  50.392  1.00  0.00    -0.329 N 
HETATM   12  C10 UNL     1      25.242   5.734  49.316  1.00  0.00     0.247 C 
HETATM   13  O1  UNL     1      24.378   6.053  48.465  1.00  0.00    -0.271 OA
HETATM   14  H9  UNL     1      25.599   4.640  51.108  1.00  0.00     0.168 HD
BRANCH  12  15
HETATM   15  C11 UNL     1      26.666   6.167  49.293  1.00  0.00     0.203 C 
HETATM   16  C12 UNL     1      26.882   6.875  47.963  1.00  0.00     0.215 C 
HETATM   17  O2  UNL     1      28.265   6.698  47.745  1.00  0.00    -0.301 OA
HETATM   18  C13 UNL     1      28.631   5.489  48.344  1.00  0.00     0.361 C 
HETATM   19  O3  UNL     1      29.771   5.027  48.047  1.00  0.00    -0.238 OA
HETATM   20  N3  UNL     1      27.554   5.050  49.201  1.00  0.00    -0.321 N 
HETATM   21  H13 UNL     1      27.707   4.053  49.515  1.00  0.00     0.165 HD
ENDBRANCH  12  15
ENDBRANCH   3  11
BRANCH   1  22
HETATM   22  N1  UNL     1      22.763   1.272  51.545  1.00  0.00    -0.345 N 
HETATM   23  C2  UNL     1      21.915   0.179  51.960  1.00  0.00     0.106 A 
HETATM   24  C1  UNL     1      20.679   0.781  52.617  1.00  0.00     0.037 C 
HETATM   25  C3  UNL     1      22.618  -0.594  53.007  1.00  0.00    -0.001 A 
HETATM   26  C4  UNL     1      23.787  -0.467  53.602  1.00  0.00     0.018 A 
HETATM   27  C5  UNL     1      24.580   0.687  53.132  1.00  0.00     0.026 A 
HETATM   28 BR1  UNL     1      26.276   0.953  53.939  1.00  0.00    -0.050 Br
HETATM   29  C6  UNL     1      24.015   1.416  52.189  1.00  0.00     0.108 A 
ENDBRANCH   1  22
TORSDOF 3
ENDMDL
MODEL 9
REMARK VINA RESULT:      -7.9      8.336     10.131
REMARK  3 active torsions:
REMARK  status: ('A' for Active; 'I' for Inactive)
REMARK    1  A    between atoms: N1_8  and  C7_9 
REMARK    2  A    between atoms: C9_11  and  N2_12 
REMARK       I    between atoms: N2_12  and  C10_13 
REMARK    3  A    between atoms: C10_13  and  C11_15 
ROOT
HETATM    1  C7  UNL     1      27.866   8.089  48.173  1.00  0.00     0.195 A 
HETATM    2  C8  UNL     1      29.240   7.567  48.091  1.00  0.00     0.060 C 
HETATM    3  C9  UNL     1      29.498   6.262  48.192  1.00  0.00     0.016 C 
HETATM    4  C14 UNL     1      28.955   4.922  48.372  1.00  0.00     0.084 C 
HETATM    5  C15 UNL     1      27.488   4.958  48.584  1.00  0.00    -0.019 C 
HETATM    6  C16 UNL     1      26.569   5.908  48.844  1.00  0.00     0.028 C 
HETATM    7  C17 UNL     1      26.947   7.322  48.981  1.00  0.00     0.090 A 
HETATM    8  N4  UNL     1      26.444   8.062  49.955  1.00  0.00    -0.242 NA
HETATM    9  C18 UNL     1      27.034   9.346  49.804  1.00  0.00     0.230 A 
HETATM   10  N5  UNL     1      27.844   9.409  48.813  1.00  0.00    -0.240 NA
ENDROOT
BRANCH   3  11
HETATM   11  N2  UNL     1      30.902   6.039  48.080  1.00  0.00    -0.329 N 
HETATM   12  C10 UNL     1      31.936   5.775  49.010  1.00  0.00     0.247 C 
HETATM   13  O1  UNL     1      31.640   5.710  50.227  1.00  0.00    -0.271 OA
HETATM   14  H9  UNL     1      31.171   6.090  47.047  1.00  0.00     0.168 HD
BRANCH  12  15
HETATM   15  C11 UNL     1      33.304   5.593  48.451  1.00  0.00     0.203 C 
HETATM   16  C12 UNL     1      33.262   6.126  47.025  1.00  0.00     0.215 C 
HETATM   17  O2  UNL     1      34.297   5.399  46.399  1.00  0.00    -0.301 OA
HETATM   18  C13 UNL     1      34.380   4.157  47.036  1.00  0.00     0.361 C 
HETATM   19  O3  UNL     1      35.072   3.267  46.463  1.00  0.00    -0.238 OA
HETATM   20  N3  UNL     1      33.612   4.210  48.259  1.00  0.00    -0.321 N 
HETATM   21  H13 UNL     1      33.488   3.243  48.666  1.00  0.00     0.165 HD
ENDBRANCH  12  15
ENDBRANCH   3  11
BRANCH   1  22
HETATM   22  N1  UNL     1      27.437   8.323  46.797  1.00  0.00    -0.345 N 
HETATM   23  C2  UNL     1      28.376   8.576  45.730  1.00  0.00     0.106 A 
HETATM   24  C1  UNL     1      29.033   9.923  46.006  1.00  0.00     0.037 C 
HETATM   25  C3  UNL     1      27.625   8.722  44.463  1.00  0.00    -0.001 A 
HETATM   26  C4  UNL     1      26.345   8.684  44.156  1.00  0.00     0.018 A 
HETATM   27  C5  UNL     1      25.455   8.441  45.309  1.00  0.00     0.026 A 
HETATM   28 BR1  UNL     1      23.591   8.378  44.961  1.00  0.00    -0.050 Br
HETATM   29  C6  UNL     1      26.061   8.291  46.471  1.00  0.00     0.108 A 
ENDBRANCH   1  22
TORSDOF 3
ENDMDL
