MODEL 1
REMARK VINA RESULT:      -8.6      0.000      0.000
REMARK  4 active torsions:
REMARK  status: ('A' for Active; 'I' for Inactive)
REMARK    1  A    between atoms: C2_2  and  N1_3 
REMARK    2  A    between atoms: C2_2  and  C16_21 
REMARK    3  A    between atoms: N1_3  and  C3_4 
REMARK    4  A    between atoms: C6_9  and  C7_10 
ROOT
HETATM    1  C7  UNL     1      25.140   4.461  49.328  1.00  0.00    -0.021 A 
HETATM    2  C8  UNL     1      26.409   3.903  49.251  1.00  0.00     0.012 A 
HETATM    3  C9  UNL     1      27.506   4.598  48.848  1.00  0.00     0.023 A 
HETATM    4  C10 UNL     1      27.414   5.939  48.483  1.00  0.00     0.044 A 
HETATM    5  C11 UNL     1      28.576   6.629  48.072  1.00  0.00     0.099 C 
HETATM    6  N4  UNL     1      29.554   7.194  47.744  1.00  0.00    -0.191 NA
HETATM    7  C12 UNL     1      26.169   6.496  48.555  1.00  0.00     0.023 A 
HETATM    8  C13 UNL     1      25.076   5.772  48.965  1.00  0.00     0.012 A 
ENDROOT
BRANCH   1   9
HETATM    9  C6  UNL     1      24.126   3.535  49.780  1.00  0.00     0.111 A 
HETATM   10  N3  UNL     1      23.906   3.150  51.115  1.00  0.00    -0.377 N 
HETATM   11  C5  UNL     1      24.220   1.994  51.874  1.00  0.00     0.104 C 
HETATM   12  H8  UNL     1      23.412   4.008  51.436  1.00  0.00     0.160 HD
HETATM   13  C4  UNL     1      23.684   0.934  52.447  1.00  0.00     0.136 C 
HETATM   14  N2  UNL     1      22.360   0.662  52.418  1.00  0.00    -0.236 NA
HETATM   15  C3  UNL     1      21.310   0.844  51.738  1.00  0.00     0.167 C 
HETATM   16  S1  UNL     1      22.100   1.711  50.588  1.00  0.00    -0.054 SA
HETATM   17  C15 UNL     1      22.778   2.435  49.644  1.00  0.00     0.022 A 
HETATM   18  C14 UNL     1      23.458   3.137  48.738  1.00  0.00     0.032 A 
BRANCH  15  19
HETATM   19  N1  UNL     1      20.687   0.145  52.674  1.00  0.00    -0.361 N 
HETATM   20  H5  UNL     1      21.357  -0.679  52.326  1.00  0.00     0.162 HD
BRANCH  19  21
HETATM   21  C2  UNL     1      20.050  -0.577  53.636  1.00  0.00     0.113 C 
HETATM   22  C1  UNL     1      20.929  -1.679  54.263  1.00  0.00     0.037 C 
BRANCH  21  23
HETATM   23  C16 UNL     1      18.720  -1.194  53.272  1.00  0.00    -0.036 A 
HETATM   24  C17 UNL     1      18.315  -2.426  53.734  1.00  0.00     0.009 A 
HETATM   25  C18 UNL     1      17.104  -2.977  53.403  1.00  0.00     0.001 A 
HETATM   26  C19 UNL     1      16.236  -2.298  52.577  1.00  0.00     0.000 A 
HETATM   27  C20 UNL     1      16.620  -1.061  52.100  1.00  0.00     0.001 A 
HETATM   28  C21 UNL     1      17.855  -0.484  52.432  1.00  0.00     0.009 A 
ENDBRANCH  21  23
ENDBRANCH  19  21
ENDBRANCH  15  19
ENDBRANCH   1   9
TORSDOF 4
ENDMDL
MODEL 2
REMARK VINA RESULT:      -8.6      1.479      2.159
REMARK  4 active torsions:
REMARK  status: ('A' for Active; 'I' for Inactive)
REMARK    1  A    between atoms: C2_2  and  N1_3 
REMARK    2  A    between atoms: C2_2  and  C16_21 
REMARK    3  A    between atoms: N1_3  and  C3_4 
REMARK    4  A    between atoms: C6_9  and  C7_10 
ROOT
HETATM    1  C7  UNL     1      26.319   5.022  49.280  1.00  0.00    -0.021 A 
HETATM    2  C8  UNL     1      27.626   4.687  48.954  1.00  0.00     0.012 A 
HETATM    3  C9  UNL     1      28.447   5.499  48.237  1.00  0.00     0.023 A 
HETATM    4  C10 UNL     1      28.012   6.742  47.782  1.00  0.00     0.044 A 
HETATM    5  C11 UNL     1      28.895   7.560  47.043  1.00  0.00     0.099 C 
HETATM    6  N4  UNL     1      29.644   8.235  46.439  1.00  0.00    -0.191 NA
HETATM    7  C12 UNL     1      26.727   7.080  48.099  1.00  0.00     0.023 A 
HETATM    8  C13 UNL     1      25.917   6.241  48.825  1.00  0.00     0.012 A 
ENDROOT
BRANCH   1   9
HETATM    9  C6  UNL     1      25.634   4.005  50.047  1.00  0.00     0.111 A 
HETATM   10  N3  UNL     1      24.258   3.988  50.338  1.00  0.00    -0.377 N 
HETATM   11  C5  UNL     1      23.488   4.296  51.488  1.00  0.00     0.104 C 
HETATM   12  H8  UNL     1      23.915   3.664  49.410  1.00  0.00     0.160 HD
HETATM   13  C4  UNL     1      22.759   3.752  52.443  1.00  0.00     0.136 C 
HETATM   14  N2  UNL     1      22.537   2.422  52.544  1.00  0.00    -0.236 NA
HETATM   15  C3  UNL     1      23.035   1.295  52.261  1.00  0.00     0.167 C 
HETATM   16  S1  UNL     1      24.362   1.959  51.557  1.00  0.00    -0.054 SA
HETATM   17  C15 UNL     1      25.457   2.535  50.971  1.00  0.00     0.022 A 
HETATM   18  C14 UNL     1      26.514   3.117  50.404  1.00  0.00     0.032 A 
BRANCH  15  19
HETATM   19  N1  UNL     1      21.959   0.775  52.830  1.00  0.00    -0.361 N 
HETATM   20  H5  UNL     1      21.816   1.813  53.217  1.00  0.00     0.162 HD
BRANCH  19  21
HETATM   21  C2  UNL     1      20.851   0.243  53.416  1.00  0.00     0.113 C 
HETATM   22  C1  UNL     1      21.120  -1.088  54.148  1.00  0.00     0.037 C 
BRANCH  21  23
HETATM   23  C16 UNL     1      19.629   0.057  52.547  1.00  0.00    -0.036 A 
HETATM   24  C17 UNL     1      19.497   0.638  51.307  1.00  0.00     0.009 A 
HETATM   25  C18 UNL     1      18.387   0.461  50.522  1.00  0.00     0.001 A 
HETATM   26  C19 UNL     1      17.345  -0.325  50.963  1.00  0.00     0.000 A 
HETATM   27  C20 UNL     1      17.454  -0.920  52.205  1.00  0.00     0.001 A 
HETATM   28  C21 UNL     1      18.585  -0.747  53.018  1.00  0.00     0.009 A 
ENDBRANCH  21  23
ENDBRANCH  19  21
ENDBRANCH  15  19
ENDBRANCH   1   9
TORSDOF 4
ENDMDL
MODEL 3
REMARK VINA RESULT:      -8.3      4.341      6.653
REMARK  4 active torsions:
REMARK  status: ('A' for Active; 'I' for Inactive)
REMARK    1  A    between atoms: C2_2  and  N1_3 
REMARK    2  A    between atoms: C2_2  and  C16_21 
REMARK    3  A    between atoms: N1_3  and  C3_4 
REMARK    4  A    between atoms: C6_9  and  C7_10 
ROOT
HETATM    1  C7  UNL     1      22.346   0.343  52.497  1.00  0.00    -0.021 A 
HETATM    2  C8  UNL     1      22.706  -0.580  53.469  1.00  0.00     0.012 A 
HETATM    3  C9  UNL     1      23.991  -0.783  53.865  1.00  0.00     0.023 A 
HETATM    4  C10 UNL     1      25.039  -0.058  53.305  1.00  0.00     0.044 A 
HETATM    5  C11 UNL     1      26.361  -0.294  53.744  1.00  0.00     0.099 C 
HETATM    6  N4  UNL     1      27.454  -0.493  54.129  1.00  0.00    -0.191 NA
HETATM    7  C12 UNL     1      24.694   0.854  52.348  1.00  0.00     0.023 A 
HETATM    8  C13 UNL     1      23.388   1.040  51.965  1.00  0.00     0.012 A 
ENDROOT
BRANCH   1   9
HETATM    9  C6  UNL     1      20.924   0.387  52.237  1.00  0.00     0.111 A 
HETATM   10  N3  UNL     1      19.911   0.183  53.191  1.00  0.00    -0.377 N 
HETATM   11  C5  UNL     1      19.050  -0.900  53.502  1.00  0.00     0.104 C 
HETATM   12  H8  UNL     1      19.957   1.113  53.656  1.00  0.00     0.160 HD
HETATM   13  C4  UNL     1      17.795  -1.299  53.436  1.00  0.00     0.136 C 
HETATM   14  N2  UNL     1      16.800  -0.545  52.915  1.00  0.00    -0.236 NA
HETATM   15  C3  UNL     1      16.568   0.376  52.081  1.00  0.00     0.167 C 
HETATM   16  S1  UNL     1      18.146   0.498  51.642  1.00  0.00    -0.054 SA
HETATM   17  C15 UNL     1      19.468   0.585  51.297  1.00  0.00     0.022 A 
HETATM   18  C14 UNL     1      20.760   0.654  50.975  1.00  0.00     0.032 A 
BRANCH  15  19
HETATM   19  N1  UNL     1      15.300   0.266  52.446  1.00  0.00    -0.361 N 
HETATM   20  H5  UNL     1      15.258  -0.485  51.620  1.00  0.00     0.162 HD
BRANCH  19  21
HETATM   21  C2  UNL     1      13.996   0.150  52.819  1.00  0.00     0.113 C 
HETATM   22  C1  UNL     1      13.075  -0.359  51.692  1.00  0.00     0.037 C 
BRANCH  21  23
HETATM   23  C16 UNL     1      13.343   1.363  53.440  1.00  0.00    -0.036 A 
HETATM   24  C17 UNL     1      13.643   2.652  53.062  1.00  0.00     0.009 A 
HETATM   25  C18 UNL     1      13.043   3.747  53.626  1.00  0.00     0.001 A 
HETATM   26  C19 UNL     1      12.097   3.586  54.615  1.00  0.00     0.000 A 
HETATM   27  C20 UNL     1      11.778   2.303  55.013  1.00  0.00     0.001 A 
HETATM   28  C21 UNL     1      12.385   1.173  54.442  1.00  0.00     0.009 A 
ENDBRANCH  21  23
ENDBRANCH  19  21
ENDBRANCH  15  19
ENDBRANCH   1   9
TORSDOF 4
ENDMDL
MODEL 4
REMARK VINA RESULT:      -8.1      2.698      4.343
REMARK  4 active torsions:
REMARK  status: ('A' for Active; 'I' for Inactive)
REMARK    1  A    between atoms: C2_2  and  N1_3 
REMARK    2  A    between atoms: C2_2  and  C16_21 
REMARK    3  A    between atoms: N1_3  and  C3_4 
REMARK    4  A    between atoms: C6_9  and  C7_10 
ROOT
HETATM    1  C7  UNL     1      27.626   6.637  47.919  1.00  0.00    -0.021 A 
HETATM    2  C8  UNL     1      28.995   6.412  47.926  1.00  0.00     0.012 A 
HETATM    3  C9  UNL     1      29.892   7.249  47.339  1.00  0.00     0.023 A 
HETATM    4  C10 UNL     1      29.475   8.405  46.685  1.00  0.00     0.044 A 
HETATM    5  C11 UNL     1      30.435   9.252  46.090  1.00  0.00     0.099 C 
HETATM    6  N4  UNL     1      31.247   9.954  45.609  1.00  0.00    -0.191 NA
HETATM    7  C12 UNL     1      28.128   8.635  46.673  1.00  0.00     0.023 A 
HETATM    8  C13 UNL     1      27.243   7.773  47.274  1.00  0.00     0.012 A 
ENDROOT
BRANCH   1   9
HETATM    9  C6  UNL     1      26.866   5.614  48.604  1.00  0.00     0.111 A 
HETATM   10  N3  UNL     1      25.513   5.710  48.973  1.00  0.00    -0.377 N 
HETATM   11  C5  UNL     1      24.837   5.958  50.194  1.00  0.00     0.104 C 
HETATM   12  H8  UNL     1      25.092   5.539  48.036  1.00  0.00     0.160 HD
HETATM   13  C4  UNL     1      24.097   5.384  51.123  1.00  0.00     0.136 C 
HETATM   14  N2  UNL     1      23.731   4.083  51.084  1.00  0.00    -0.236 NA
HETATM   15  C3  UNL     1      24.083   2.951  50.644  1.00  0.00     0.167 C 
HETATM   16  S1  UNL     1      25.442   3.549  49.943  1.00  0.00    -0.054 SA
HETATM   17  C15 UNL     1      26.567   4.071  49.362  1.00  0.00     0.022 A 
HETATM   18  C14 UNL     1      27.656   4.600  48.803  1.00  0.00     0.032 A 
BRANCH  15  19
HETATM   19  N1  UNL     1      22.983   2.484  51.214  1.00  0.00    -0.361 N 
HETATM   20  H5  UNL     1      22.469   3.135  50.465  1.00  0.00     0.162 HD
BRANCH  19  21
HETATM   21  C2  UNL     1      21.850   2.006  51.797  1.00  0.00     0.113 C 
HETATM   22  C1  UNL     1      20.932   3.111  52.359  1.00  0.00     0.037 C 
BRANCH  21  23
HETATM   23  C16 UNL     1      22.014   0.950  52.865  1.00  0.00    -0.036 A 
HETATM   24  C17 UNL     1      21.007   0.605  53.738  1.00  0.00     0.009 A 
HETATM   25  C18 UNL     1      21.162  -0.357  54.702  1.00  0.00     0.001 A 
HETATM   26  C19 UNL     1      22.360  -1.024  54.829  1.00  0.00     0.000 A 
HETATM   27  C20 UNL     1      23.386  -0.696  53.966  1.00  0.00     0.001 A 
HETATM   28  C21 UNL     1      23.241   0.286  52.974  1.00  0.00     0.009 A 
ENDBRANCH  21  23
ENDBRANCH  19  21
ENDBRANCH  15  19
ENDBRANCH   1   9
TORSDOF 4
ENDMDL
MODEL 5
REMARK VINA RESULT:      -8.0      3.079     10.999
REMARK  4 active torsions:
REMARK  status: ('A' for Active; 'I' for Inactive)
REMARK    1  A    between atoms: C2_2  and  N1_3 
REMARK    2  A    between atoms: C2_2  and  C16_21 
REMARK    3  A    between atoms: N1_3  and  C3_4 
REMARK    4  A    between atoms: C6_9  and  C7_10 
ROOT
HETATM    1  C7  UNL     1      23.388   2.333  52.060  1.00  0.00    -0.021 A 
HETATM    2  C8  UNL     1      24.233   1.397  52.639  1.00  0.00     0.012 A 
HETATM    3  C9  UNL     1      23.786   0.332  53.357  1.00  0.00     0.023 A 
HETATM    4  C10 UNL     1      22.425   0.118  53.553  1.00  0.00     0.044 A 
HETATM    5  C11 UNL     1      21.998  -1.001  54.303  1.00  0.00     0.099 C 
HETATM    6  N4  UNL     1      21.657  -1.944  54.918  1.00  0.00    -0.191 NA
HETATM    7  C12 UNL     1      21.585   1.035  52.987  1.00  0.00     0.023 A 
HETATM    8  C13 UNL     1      22.062   2.103  52.267  1.00  0.00     0.012 A 
ENDROOT
BRANCH   1   9
HETATM    9  C6  UNL     1      24.085   3.380  51.345  1.00  0.00     0.111 A 
HETATM   10  N3  UNL     1      24.367   4.664  51.844  1.00  0.00    -0.377 N 
HETATM   11  C5  UNL     1      23.802   5.949  51.641  1.00  0.00     0.104 C 
HETATM   12  H8  UNL     1      25.168   4.411  52.459  1.00  0.00     0.160 HD
HETATM   13  C4  UNL     1      24.028   7.121  51.082  1.00  0.00     0.136 C 
HETATM   14  N2  UNL     1      25.159   7.415  50.401  1.00  0.00    -0.236 NA
HETATM   15  C3  UNL     1      26.088   6.894  49.720  1.00  0.00     0.167 C 
HETATM   16  S1  UNL     1      25.470   5.380  49.873  1.00  0.00    -0.054 SA
HETATM   17  C15 UNL     1      24.939   4.126  50.019  1.00  0.00     0.022 A 
HETATM   18  C14 UNL     1      24.405   2.915  50.174  1.00  0.00     0.032 A 
BRANCH  15  19
HETATM   19  N1  UNL     1      26.574   8.120  49.606  1.00  0.00    -0.361 N 
HETATM   20  H5  UNL     1      25.678   8.396  50.213  1.00  0.00     0.162 HD
BRANCH  19  21
HETATM   21  C2  UNL     1      27.072   9.381  49.492  1.00  0.00     0.113 C 
HETATM   22  C1  UNL     1      26.256  10.282  48.542  1.00  0.00     0.037 C 
BRANCH  21  23
HETATM   23  C16 UNL     1      28.531   9.520  49.124  1.00  0.00    -0.036 A 
HETATM   24  C17 UNL     1      29.348   8.440  48.882  1.00  0.00     0.009 A 
HETATM   25  C18 UNL     1      30.669   8.573  48.543  1.00  0.00     0.001 A 
HETATM   26  C19 UNL     1      31.233   9.825  48.434  1.00  0.00     0.000 A 
HETATM   27  C20 UNL     1      30.434  10.926  48.673  1.00  0.00     0.001 A 
HETATM   28  C21 UNL     1      29.080  10.803  49.019  1.00  0.00     0.009 A 
ENDBRANCH  21  23
ENDBRANCH  19  21
ENDBRANCH  15  19
ENDBRANCH   1   9
TORSDOF 4
ENDMDL
MODEL 6
REMARK VINA RESULT:      -7.9      3.196     11.033
REMARK  4 active torsions:
REMARK  status: ('A' for Active; 'I' for Inactive)
REMARK    1  A    between atoms: C2_2  and  N1_3 
REMARK    2  A    between atoms: C2_2  and  C16_21 
REMARK    3  A    between atoms: N1_3  and  C3_4 
REMARK    4  A    between atoms: C6_9  and  C7_10 
ROOT
HETATM    1  C7  UNL     1      24.769   1.605  52.028  1.00  0.00    -0.021 A 
HETATM    2  C8  UNL     1      23.392   1.743  52.123  1.00  0.00     0.012 A 
HETATM    3  C9  UNL     1      22.610   0.919  52.871  1.00  0.00     0.023 A 
HETATM    4  C10 UNL     1      23.162  -0.131  53.600  1.00  0.00     0.044 A 
HETATM    5  C11 UNL     1      22.319  -0.963  54.368  1.00  0.00     0.099 C 
HETATM    6  N4  UNL     1      21.606  -1.641  55.013  1.00  0.00    -0.191 NA
HETATM    7  C12 UNL     1      24.518  -0.274  53.512  1.00  0.00     0.023 A 
HETATM    8  C13 UNL     1      25.286   0.571  52.748  1.00  0.00     0.012 A 
ENDROOT
BRANCH   1   9
HETATM    9  C6  UNL     1      25.393   2.593  51.175  1.00  0.00     0.111 A 
HETATM   10  N3  UNL     1      24.972   3.925  51.022  1.00  0.00    -0.377 N 
HETATM   11  C5  UNL     1      24.252   4.625  50.021  1.00  0.00     0.104 C 
HETATM   12  H8  UNL     1      25.354   4.304  51.913  1.00  0.00     0.160 HD
HETATM   13  C4  UNL     1      24.383   5.525  49.065  1.00  0.00     0.136 C 
HETATM   14  N2  UNL     1      25.556   6.130  48.768  1.00  0.00    -0.236 NA
HETATM   15  C3  UNL     1      26.809   5.970  48.811  1.00  0.00     0.167 C 
HETATM   16  S1  UNL     1      26.684   4.476  49.480  1.00  0.00    -0.054 SA
HETATM   17  C15 UNL     1      26.556   3.234  50.043  1.00  0.00     0.022 A 
HETATM   18  C14 UNL     1      26.409   2.028  50.591  1.00  0.00     0.032 A 
BRANCH  15  19
HETATM   19  N1  UNL     1      26.893   7.177  48.272  1.00  0.00    -0.361 N 
HETATM   20  H5  UNL     1      26.237   6.733  47.484  1.00  0.00     0.162 HD
BRANCH  19  21
HETATM   21  C2  UNL     1      26.976   8.416  47.716  1.00  0.00     0.113 C 
HETATM   22  C1  UNL     1      26.687   8.432  46.201  1.00  0.00     0.037 C 
BRANCH  21  23
HETATM   23  C16 UNL     1      28.246   9.199  47.955  1.00  0.00    -0.036 A 
HETATM   24  C17 UNL     1      28.779  10.063  47.026  1.00  0.00     0.009 A 
HETATM   25  C18 UNL     1      29.929  10.774  47.252  1.00  0.00     0.001 A 
HETATM   26  C19 UNL     1      30.603  10.640  48.446  1.00  0.00     0.000 A 
HETATM   27  C20 UNL     1      30.089   9.778  49.394  1.00  0.00     0.001 A 
HETATM   28  C21 UNL     1      28.912   9.046  49.176  1.00  0.00     0.009 A 
ENDBRANCH  21  23
ENDBRANCH  19  21
ENDBRANCH  15  19
ENDBRANCH   1   9
TORSDOF 4
ENDMDL
MODEL 7
REMARK VINA RESULT:      -7.9      4.480      6.099
REMARK  4 active torsions:
REMARK  status: ('A' for Active; 'I' for Inactive)
REMARK    1  A    between atoms: C2_2  and  N1_3 
REMARK    2  A    between atoms: C2_2  and  C16_21 
REMARK    3  A    between atoms: N1_3  and  C3_4 
REMARK    4  A    between atoms: C6_9  and  C7_10 
ROOT
HETATM    1  C7  UNL     1      23.941   1.145  52.281  1.00  0.00    -0.021 A 
HETATM    2  C8  UNL     1      24.003   0.067  53.152  1.00  0.00     0.012 A 
HETATM    3  C9  UNL     1      25.155  -0.602  53.429  1.00  0.00     0.023 A 
HETATM    4  C10 UNL     1      26.361  -0.231  52.842  1.00  0.00     0.044 A 
HETATM    5  C11 UNL     1      27.537  -0.947  53.156  1.00  0.00     0.099 C 
HETATM    6  N4  UNL     1      28.510  -1.545  53.437  1.00  0.00    -0.191 NA
HETATM    7  C12 UNL     1      26.309   0.830  51.983  1.00  0.00     0.023 A 
HETATM    8  C13 UNL     1      25.133   1.489  51.719  1.00  0.00     0.012 A 
ENDROOT
BRANCH   1   9
HETATM    9  C6  UNL     1      22.612   1.699  52.139  1.00  0.00     0.111 A 
HETATM   10  N3  UNL     1      21.463   0.981  51.765  1.00  0.00    -0.377 N 
HETATM   11  C5  UNL     1      20.718   0.864  50.564  1.00  0.00     0.104 C 
HETATM   12  H8  UNL     1      21.279   0.511  52.676  1.00  0.00     0.160 HD
HETATM   13  C4  UNL     1      19.573   1.195  49.999  1.00  0.00     0.136 C 
HETATM   14  N2  UNL     1      18.612   1.910  50.628  1.00  0.00    -0.236 NA
HETATM   15  C3  UNL     1      18.430   2.770  51.537  1.00  0.00     0.167 C 
HETATM   16  S1  UNL     1      20.031   2.865  51.889  1.00  0.00    -0.054 SA
HETATM   17  C15 UNL     1      21.370   2.924  52.169  1.00  0.00     0.022 A 
HETATM   18  C14 UNL     1      22.678   2.966  52.425  1.00  0.00     0.032 A 
BRANCH  15  19
HETATM   19  N1  UNL     1      17.142   2.681  51.242  1.00  0.00    -0.361 N 
HETATM   20  H5  UNL     1      17.523   2.333  50.250  1.00  0.00     0.162 HD
BRANCH  19  21
HETATM   21  C2  UNL     1      15.820   2.587  50.936  1.00  0.00     0.113 C 
HETATM   22  C1  UNL     1      15.485   3.049  49.502  1.00  0.00     0.037 C 
BRANCH  21  23
HETATM   23  C16 UNL     1      14.842   3.250  51.878  1.00  0.00    -0.036 A 
HETATM   24  C17 UNL     1      15.233   3.913  53.018  1.00  0.00     0.009 A 
HETATM   25  C18 UNL     1      14.340   4.517  53.865  1.00  0.00     0.001 A 
HETATM   26  C19 UNL     1      12.990   4.474  53.593  1.00  0.00     0.000 A 
HETATM   27  C20 UNL     1      12.572   3.814  52.455  1.00  0.00     0.001 A 
HETATM   28  C21 UNL     1      13.475   3.193  51.579  1.00  0.00     0.009 A 
ENDBRANCH  21  23
ENDBRANCH  19  21
ENDBRANCH  15  19
ENDBRANCH   1   9
TORSDOF 4
ENDMDL
MODEL 8
REMARK VINA RESULT:      -7.7      3.291      5.212
REMARK  4 active torsions:
REMARK  status: ('A' for Active; 'I' for Inactive)
REMARK    1  A    between atoms: C2_2  and  N1_3 
REMARK    2  A    between atoms: C2_2  and  C16_21 
REMARK    3  A    between atoms: N1_3  and  C3_4 
REMARK    4  A    between atoms: C6_9  and  C7_10 
ROOT
HETATM    1  C7  UNL     1      28.814   6.811  48.130  1.00  0.00    -0.021 A 
HETATM    2  C8  UNL     1      29.794   5.832  48.217  1.00  0.00     0.012 A 
HETATM    3  C9  UNL     1      31.092   6.044  47.872  1.00  0.00     0.023 A 
HETATM    4  C10 UNL     1      31.519   7.285  47.405  1.00  0.00     0.044 A 
HETATM    5  C11 UNL     1      32.876   7.468  47.060  1.00  0.00     0.099 C 
HETATM    6  N4  UNL     1      34.012   7.610  46.788  1.00  0.00    -0.191 NA
HETATM    7  C12 UNL     1      30.561   8.255  47.317  1.00  0.00     0.023 A 
HETATM    8  C13 UNL     1      29.255   8.014  47.670  1.00  0.00     0.012 A 
ENDROOT
BRANCH   1   9
HETATM    9  C6  UNL     1      27.505   6.360  48.548  1.00  0.00     0.111 A 
HETATM   10  N3  UNL     1      27.249   5.288  49.421  1.00  0.00    -0.377 N 
HETATM   11  C5  UNL     1      26.816   3.950  49.242  1.00  0.00     0.104 C 
HETATM   12  H8  UNL     1      27.481   5.767  50.315  1.00  0.00     0.160 HD
HETATM   13  C4  UNL     1      25.790   3.142  49.427  1.00  0.00     0.136 C 
HETATM   14  N2  UNL     1      24.621   3.538  49.980  1.00  0.00    -0.236 NA
HETATM   15  C3  UNL     1      23.876   4.547  50.144  1.00  0.00     0.167 C 
HETATM   16  S1  UNL     1      24.895   5.542  49.326  1.00  0.00    -0.054 SA
HETATM   17  C15 UNL     1      25.763   6.353  48.645  1.00  0.00     0.022 A 
HETATM   18  C14 UNL     1      26.621   7.126  47.980  1.00  0.00     0.032 A 
BRANCH  15  19
HETATM   19  N1  UNL     1      23.066   3.732  50.801  1.00  0.00    -0.361 N 
HETATM   20  H5  UNL     1      22.891   3.293  49.789  1.00  0.00     0.162 HD
BRANCH  19  21
HETATM   21  C2  UNL     1      22.233   2.892  51.474  1.00  0.00     0.113 C 
HETATM   22  C1  UNL     1      21.252   3.621  52.417  1.00  0.00     0.037 C 
BRANCH  21  23
HETATM   23  C16 UNL     1      22.868   1.761  52.250  1.00  0.00    -0.036 A 
HETATM   24  C17 UNL     1      22.242   0.554  52.462  1.00  0.00     0.009 A 
HETATM   25  C18 UNL     1      22.826  -0.469  53.162  1.00  0.00     0.001 A 
HETATM   26  C19 UNL     1      24.090  -0.315  53.688  1.00  0.00     0.000 A 
HETATM   27  C20 UNL     1      24.740   0.887  53.489  1.00  0.00     0.001 A 
HETATM   28  C21 UNL     1      24.153   1.941  52.773  1.00  0.00     0.009 A 
ENDBRANCH  21  23
ENDBRANCH  19  21
ENDBRANCH  15  19
ENDBRANCH   1   9
TORSDOF 4
ENDMDL
MODEL 9
REMARK VINA RESULT:      -7.6      3.786      5.479
REMARK  4 active torsions:
REMARK  status: ('A' for Active; 'I' for Inactive)
REMARK    1  A    between atoms: C2_2  and  N1_3 
REMARK    2  A    between atoms: C2_2  and  C16_21 
REMARK    3  A    between atoms: N1_3  and  C3_4 
REMARK    4  A    between atoms: C6_9  and  C7_10 
ROOT
HETATM    1  C7  UNL     1      23.725   0.340  52.997  1.00  0.00    -0.021 A 
HETATM    2  C8  UNL     1      24.569  -0.272  53.912  1.00  0.00     0.012 A 
HETATM    3  C9  UNL     1      25.911  -0.056  53.948  1.00  0.00     0.023 A 
HETATM    4  C10 UNL     1      26.525   0.812  53.048  1.00  0.00     0.044 A 
HETATM    5  C11 UNL     1      27.921   1.013  53.118  1.00  0.00     0.099 C 
HETATM    6  N4  UNL     1      29.083   1.180  53.196  1.00  0.00    -0.191 NA
HETATM    7  C12 UNL     1      25.701   1.418  52.143  1.00  0.00     0.023 A 
HETATM    8  C13 UNL     1      24.347   1.183  52.127  1.00  0.00     0.012 A 
ENDROOT
BRANCH   1   9
HETATM    9  C6  UNL     1      22.337  -0.040  53.144  1.00  0.00     0.111 A 
HETATM   10  N3  UNL     1      21.407  -0.166  52.097  1.00  0.00    -0.377 N 
HETATM   11  C5  UNL     1      20.345   0.642  51.617  1.00  0.00     0.104 C 
HETATM   12  H8  UNL     1      21.725  -1.085  51.727  1.00  0.00     0.160 HD
HETATM   13  C4  UNL     1      19.030   0.718  51.543  1.00  0.00     0.136 C 
HETATM   14  N2  UNL     1      18.201  -0.222  52.052  1.00  0.00    -0.236 NA
HETATM   15  C3  UNL     1      18.116  -1.110  52.948  1.00  0.00     0.167 C 
HETATM   16  S1  UNL     1      19.623  -0.800  53.521  1.00  0.00    -0.054 SA
HETATM   17  C15 UNL     1      20.885  -0.529  53.979  1.00  0.00     0.022 A 
HETATM   18  C14 UNL     1      22.115  -0.249  54.409  1.00  0.00     0.032 A 
BRANCH  15  19
HETATM   19  N1  UNL     1      16.903  -1.347  52.473  1.00  0.00    -0.361 N 
HETATM   20  H5  UNL     1      17.401  -2.222  51.988  1.00  0.00     0.162 HD
BRANCH  19  21
HETATM   21  C2  UNL     1      15.657  -1.595  51.985  1.00  0.00     0.113 C 
HETATM   22  C1  UNL     1      14.572  -0.664  52.564  1.00  0.00     0.037 C 
BRANCH  21  23
HETATM   23  C16 UNL     1      15.147  -3.015  52.074  1.00  0.00    -0.036 A 
HETATM   24  C17 UNL     1      14.121  -3.493  51.292  1.00  0.00     0.009 A 
HETATM   25  C18 UNL     1      13.667  -4.783  51.376  1.00  0.00     0.001 A 
HETATM   26  C19 UNL     1      14.239  -5.662  52.269  1.00  0.00     0.000 A 
HETATM   27  C20 UNL     1      15.270  -5.206  53.066  1.00  0.00     0.001 A 
HETATM   28  C21 UNL     1      15.745  -3.888  52.990  1.00  0.00     0.009 A 
ENDBRANCH  21  23
ENDBRANCH  19  21
ENDBRANCH  15  19
ENDBRANCH   1   9
TORSDOF 4
ENDMDL
