MODEL 1
REMARK VINA RESULT:      -9.5      0.000      0.000
REMARK  5 active torsions:
REMARK  status: ('A' for Active; 'I' for Inactive)
REMARK    1  A    between atoms: O1_2  and  C2_3 
REMARK    2  A    between atoms: C6_7  and  N1_8 
REMARK    3  A    between atoms: C7_9  and  C8_10 
REMARK    4  A    between atoms: C9_11  and  C10_12 
REMARK       I    between atoms: C10_12  and  N2_14 
REMARK    5  A    between atoms: C16_22  and  C17_23 
ROOT
HETATM    1  C10 UNL     1      24.674   1.535  51.915  1.00  0.00     0.341 C 
HETATM    2  O2  UNL     1      24.619   2.003  50.727  1.00  0.00    -0.261 OA
HETATM    3  N2  UNL     1      23.456   1.818  52.571  1.00  0.00     0.016 N 
HETATM    4  C11 UNL     1      22.514   2.554  51.692  1.00  0.00     0.208 A 
HETATM    5  C12 UNL     1      22.808   3.365  52.591  1.00  0.00     0.245 A 
HETATM    6  C13 UNL     1      21.973   4.567  52.130  1.00  0.00     0.108 C 
HETATM    7  C14 UNL     1      21.099   4.987  51.115  1.00  0.00     0.096 C 
HETATM    8  N3  UNL     1      20.382   4.669  49.854  1.00  0.00    -0.282 NA
HETATM    9  C15 UNL     1      19.973   3.411  49.848  1.00  0.00     0.226 C 
HETATM   10  N4  UNL     1      19.845   2.145  50.425  1.00  0.00    -0.246 NA
HETATM   11  C16 UNL     1      20.751   1.341  50.711  1.00  0.00     0.048 C 
HETATM   12  C23 UNL     1      22.194   1.512  50.627  1.00  0.00     0.105 C 
HETATM   13  H11 UNL     1      23.726   1.333  53.515  1.00  0.00     0.292 HD
ENDROOT
BRANCH   1  14
HETATM   14  C9  UNL     1      26.030   0.935  51.949  1.00  0.00     0.083 C 
HETATM   15  C8  UNL     1      26.177   0.180  52.996  1.00  0.00     0.021 C 
BRANCH  15  16
HETATM   16  C7  UNL     1      27.440  -0.498  53.213  1.00  0.00     0.018 A 
HETATM   17  C2  UNL     1      28.433   0.188  53.914  1.00  0.00     0.080 A 
HETATM   18  C3  UNL     1      29.584  -0.451  54.129  1.00  0.00     0.038 A 
HETATM   19  C4  UNL     1      29.995  -1.708  53.771  1.00  0.00     0.005 A 
HETATM   20  C5  UNL     1      28.965  -2.344  53.070  1.00  0.00     0.024 A 
HETATM   21  C6  UNL     1      27.710  -1.798  52.775  1.00  0.00     0.019 A 
BRANCH  17  22
HETATM   22  O1  UNL     1      28.192   1.492  54.351  1.00  0.00    -0.355 OA
HETATM   23  C1  UNL     1      28.871   2.545  53.660  1.00  0.00     0.210 C 
ENDBRANCH  17  22
BRANCH  21  24
HETATM   24  N1  UNL     1      26.728  -2.505  52.028  1.00  0.00    -0.302 NA
HETATM   25  H7  UNL     1      26.696  -1.808  51.218  1.00  0.00     0.124 HD
HETATM   26  H8  UNL     1      26.602  -1.919  51.194  1.00  0.00     0.124 HD
ENDBRANCH  21  24
ENDBRANCH  15  16
ENDBRANCH   1  14
BRANCH  11  27
HETATM   27  C17 UNL     1      19.542   0.594  51.153  1.00  0.00    -0.010 A 
HETATM   28  C18 UNL     1      20.398   0.156  52.312  1.00  0.00     0.013 A 
HETATM   29  C19 UNL     1      20.016  -0.695  53.391  1.00  0.00     0.002 A 
HETATM   30  C20 UNL     1      18.713  -1.214  53.430  1.00  0.00     0.019 A 
HETATM   31  C21 UNL     1      17.945  -0.818  52.385  1.00  0.00     0.011 A 
HETATM   32 BR1  UNL     1      16.114  -1.230  51.987  1.00  0.00    -0.051 Br
HETATM   33  C22 UNL     1      18.498  -0.002  51.461  1.00  0.00     0.032 A 
ENDBRANCH  11  27
TORSDOF 5
ENDMDL
MODEL 2
REMARK VINA RESULT:      -9.4      2.661      4.558
REMARK  5 active torsions:
REMARK  status: ('A' for Active; 'I' for Inactive)
REMARK    1  A    between atoms: O1_2  and  C2_3 
REMARK    2  A    between atoms: C6_7  and  N1_8 
REMARK    3  A    between atoms: C7_9  and  C8_10 
REMARK    4  A    between atoms: C9_11  and  C10_12 
REMARK       I    between atoms: C10_12  and  N2_14 
REMARK    5  A    between atoms: C16_22  and  C17_23 
ROOT
HETATM    1  C10 UNL     1      23.954   0.809  52.386  1.00  0.00     0.341 C 
HETATM    2  O2  UNL     1      23.037   0.719  53.271  1.00  0.00    -0.261 OA
HETATM    3  N2  UNL     1      23.420   1.441  51.241  1.00  0.00     0.016 N 
HETATM    4  C11 UNL     1      21.990   1.794  51.422  1.00  0.00     0.208 A 
HETATM    5  C12 UNL     1      21.990   0.917  50.537  1.00  0.00     0.245 A 
HETATM    6  C13 UNL     1      20.481   0.829  50.270  1.00  0.00     0.108 C 
HETATM    7  C14 UNL     1      19.248   1.357  50.684  1.00  0.00     0.096 C 
HETATM    8  N3  UNL     1      18.507   2.282  51.578  1.00  0.00    -0.282 NA
HETATM    9  C15 UNL     1      19.182   3.404  51.761  1.00  0.00     0.226 C 
HETATM   10  N4  UNL     1      20.284   4.238  51.553  1.00  0.00    -0.246 NA
HETATM   11  C16 UNL     1      21.465   4.040  51.892  1.00  0.00     0.048 C 
HETATM   12  C23 UNL     1      22.063   2.864  52.506  1.00  0.00     0.105 C 
HETATM   13  H11 UNL     1      24.348   1.416  50.661  1.00  0.00     0.292 HD
ENDROOT
BRANCH   1  14
HETATM   14  C9  UNL     1      25.108   0.181  53.073  1.00  0.00     0.083 C 
HETATM   15  C8  UNL     1      26.125   0.079  52.270  1.00  0.00     0.021 C 
BRANCH  15  16
HETATM   16  C7  UNL     1      27.357  -0.514  52.754  1.00  0.00     0.018 A 
HETATM   17  C2  UNL     1      28.283   0.328  53.373  1.00  0.00     0.080 A 
HETATM   18  C3  UNL     1      29.404  -0.229  53.835  1.00  0.00     0.038 A 
HETATM   19  C4  UNL     1      29.838  -1.528  53.812  1.00  0.00     0.005 A 
HETATM   20  C5  UNL     1      28.876  -2.321  53.178  1.00  0.00     0.024 A 
HETATM   21  C6  UNL     1      27.659  -1.875  52.649  1.00  0.00     0.019 A 
BRANCH  17  22
HETATM   22  O1  UNL     1      28.010   1.693  53.479  1.00  0.00    -0.355 OA
HETATM   23  C1  UNL     1      29.121   2.560  53.731  1.00  0.00     0.210 C 
ENDBRANCH  17  22
BRANCH  21  24
HETATM   24  N1  UNL     1      26.748  -2.746  51.991  1.00  0.00    -0.302 NA
HETATM   25  H7  UNL     1      25.892  -2.443  52.555  1.00  0.00     0.124 HD
HETATM   26  H8  UNL     1      25.855  -2.547  52.456  1.00  0.00     0.124 HD
ENDBRANCH  21  24
ENDBRANCH  15  16
ENDBRANCH   1  14
BRANCH  11  27
HETATM   27  C17 UNL     1      21.567   5.364  51.219  1.00  0.00    -0.010 A 
HETATM   28  C18 UNL     1      23.009   5.326  51.653  1.00  0.00     0.013 A 
HETATM   29  C19 UNL     1      24.007   6.317  51.412  1.00  0.00     0.002 A 
HETATM   30  C20 UNL     1      23.667   7.477  50.700  1.00  0.00     0.019 A 
HETATM   31  C21 UNL     1      22.368   7.508  50.311  1.00  0.00     0.011 A 
HETATM   32 BR1  UNL     1      21.422   8.846  49.314  1.00  0.00    -0.051 Br
HETATM   33  C22 UNL     1      21.579   6.462  50.640  1.00  0.00     0.032 A 
ENDBRANCH  11  27
TORSDOF 5
ENDMDL
MODEL 3
REMARK VINA RESULT:      -9.2      1.509      2.066
REMARK  5 active torsions:
REMARK  status: ('A' for Active; 'I' for Inactive)
REMARK    1  A    between atoms: O1_2  and  C2_3 
REMARK    2  A    between atoms: C6_7  and  N1_8 
REMARK    3  A    between atoms: C7_9  and  C8_10 
REMARK    4  A    between atoms: C9_11  and  C10_12 
REMARK       I    between atoms: C10_12  and  N2_14 
REMARK    5  A    between atoms: C16_22  and  C17_23 
ROOT
HETATM    1  C10 UNL     1      24.222   2.154  52.701  1.00  0.00     0.341 C 
HETATM    2  O2  UNL     1      24.537   2.077  51.465  1.00  0.00    -0.261 OA
HETATM    3  N2  UNL     1      22.870   2.550  52.801  1.00  0.00     0.016 N 
HETATM    4  C11 UNL     1      22.252   2.747  51.467  1.00  0.00     0.208 A 
HETATM    5  C12 UNL     1      22.282   3.885  51.973  1.00  0.00     0.245 A 
HETATM    6  C13 UNL     1      21.651   4.688  50.828  1.00  0.00     0.108 C 
HETATM    7  C14 UNL     1      21.132   4.550  49.531  1.00  0.00     0.096 C 
HETATM    8  N3  UNL     1      20.818   3.661  48.384  1.00  0.00    -0.282 NA
HETATM    9  C15 UNL     1      20.401   2.478  48.803  1.00  0.00     0.226 C 
HETATM   10  N4  UNL     1      20.077   1.560  49.806  1.00  0.00    -0.246 NA
HETATM   11  C16 UNL     1      20.837   1.052  50.651  1.00  0.00     0.048 C 
HETATM   12  C23 UNL     1      22.242   1.328  50.909  1.00  0.00     0.105 C 
HETATM   13  H11 UNL     1      22.834   2.534  53.896  1.00  0.00     0.292 HD
ENDROOT
BRANCH   1  14
HETATM   14  C9  UNL     1      25.492   1.774  53.367  1.00  0.00     0.083 C 
HETATM   15  C8  UNL     1      26.254   1.100  52.559  1.00  0.00     0.021 C 
BRANCH  15  16
HETATM   16  C7  UNL     1      27.545   0.632  53.024  1.00  0.00     0.018 A 
HETATM   17  C2  UNL     1      27.684  -0.732  53.290  1.00  0.00     0.080 A 
HETATM   18  C3  UNL     1      28.881  -1.158  53.696  1.00  0.00     0.038 A 
HETATM   19  C4  UNL     1      30.051  -0.480  53.916  1.00  0.00     0.005 A 
HETATM   20  C5  UNL     1      29.851   0.877  53.639  1.00  0.00     0.024 A 
HETATM   21  C6  UNL     1      28.656   1.462  53.205  1.00  0.00     0.019 A 
BRANCH  17  22
HETATM   22  O1  UNL     1      26.587  -1.580  53.129  1.00  0.00    -0.355 OA
HETATM   23  C1  UNL     1      26.607  -2.460  51.999  1.00  0.00     0.210 C 
ENDBRANCH  17  22
BRANCH  21  24
HETATM   24  N1  UNL     1      28.530   2.860  52.975  1.00  0.00    -0.302 NA
HETATM   25  H7  UNL     1      27.517   2.927  53.309  1.00  0.00     0.124 HD
HETATM   26  H8  UNL     1      27.566   3.059  53.266  1.00  0.00     0.124 HD
ENDBRANCH  21  24
ENDBRANCH  15  16
ENDBRANCH   1  14
BRANCH  11  27
HETATM   27  C17 UNL     1      19.534   0.430  51.012  1.00  0.00    -0.010 A 
HETATM   28  C18 UNL     1      20.222   0.047  52.296  1.00  0.00     0.013 A 
HETATM   29  C19 UNL     1      19.662  -0.673  53.393  1.00  0.00     0.002 A 
HETATM   30  C20 UNL     1      18.327  -1.100  53.324  1.00  0.00     0.019 A 
HETATM   31  C21 UNL     1      17.710  -0.754  52.167  1.00  0.00     0.011 A 
HETATM   32 BR1  UNL     1      15.908  -1.082  51.596  1.00  0.00    -0.051 Br
HETATM   33  C22 UNL     1      18.421  -0.066  51.247  1.00  0.00     0.032 A 
ENDBRANCH  11  27
TORSDOF 5
ENDMDL
MODEL 4
REMARK VINA RESULT:      -9.1      4.898      7.406
REMARK  5 active torsions:
REMARK  status: ('A' for Active; 'I' for Inactive)
REMARK    1  A    between atoms: O1_2  and  C2_3 
REMARK    2  A    between atoms: C6_7  and  N1_8 
REMARK    3  A    between atoms: C7_9  and  C8_10 
REMARK    4  A    between atoms: C9_11  and  C10_12 
REMARK       I    between atoms: C10_12  and  N2_14 
REMARK    5  A    between atoms: C16_22  and  C17_23 
ROOT
HETATM    1  C10 UNL     1      22.766   2.522  49.896  1.00  0.00     0.341 C 
HETATM    2  O2  UNL     1      22.092   3.427  50.495  1.00  0.00    -0.261 OA
HETATM    3  N2  UNL     1      23.301   3.066  48.709  1.00  0.00     0.016 N 
HETATM    4  C11 UNL     1      22.920   4.489  48.532  1.00  0.00     0.208 A 
HETATM    5  C12 UNL     1      22.339   3.889  47.608  1.00  0.00     0.245 A 
HETATM    6  C13 UNL     1      21.629   5.076  46.944  1.00  0.00     0.108 C 
HETATM    7  C14 UNL     1      21.442   6.463  47.058  1.00  0.00     0.096 C 
HETATM    8  N3  UNL     1      21.726   7.719  47.797  1.00  0.00    -0.282 NA
HETATM    9  C15 UNL     1      22.970   7.731  48.247  1.00  0.00     0.226 C 
HETATM   10  N4  UNL     1      24.236   7.164  48.410  1.00  0.00    -0.246 NA
HETATM   11  C16 UNL     1      24.535   6.128  49.033  1.00  0.00     0.048 C 
HETATM   12  C23 UNL     1      23.663   5.160  49.682  1.00  0.00     0.105 C 
HETATM   13  H11 UNL     1      23.820   2.153  48.396  1.00  0.00     0.292 HD
ENDROOT
BRANCH   1  14
HETATM   14  C9  UNL     1      22.608   1.364  50.810  1.00  0.00     0.083 C 
HETATM   15  C8  UNL     1      22.875   1.702  52.036  1.00  0.00     0.021 C 
BRANCH  15  16
HETATM   16  C7  UNL     1      22.780   0.705  53.085  1.00  0.00     0.018 A 
HETATM   17  C2  UNL     1      23.948   0.029  53.444  1.00  0.00     0.080 A 
HETATM   18  C3  UNL     1      23.857  -0.871  54.426  1.00  0.00     0.038 A 
HETATM   19  C4  UNL     1      22.786  -1.277  55.177  1.00  0.00     0.005 A 
HETATM   20  C5  UNL     1      21.648  -0.572  54.770  1.00  0.00     0.024 A 
HETATM   21  C6  UNL     1      21.596   0.397  53.762  1.00  0.00     0.019 A 
BRANCH  17  22
HETATM   22  O1  UNL     1      25.140   0.309  52.776  1.00  0.00    -0.355 OA
HETATM   23  C1  UNL     1      26.141  -0.714  52.775  1.00  0.00     0.210 C 
ENDBRANCH  17  22
BRANCH  21  24
HETATM   24  N1  UNL     1      20.387   1.047  53.389  1.00  0.00    -0.302 NA
HETATM   25  H7  UNL     1      20.625   1.115  52.349  1.00  0.00     0.124 HD
HETATM   26  H8  UNL     1      20.492   1.175  52.376  1.00  0.00     0.124 HD
ENDBRANCH  21  24
ENDBRANCH  15  16
ENDBRANCH   1  14
BRANCH  11  27
HETATM   27  C17 UNL     1      25.865   6.562  48.526  1.00  0.00    -0.010 A 
HETATM   28  C18 UNL     1      26.327   5.193  48.949  1.00  0.00     0.013 A 
HETATM   29  C19 UNL     1      27.641   4.651  48.829  1.00  0.00     0.002 A 
HETATM   30  C20 UNL     1      28.658   5.435  48.263  1.00  0.00     0.019 A 
HETATM   31  C21 UNL     1      28.239   6.667  47.883  1.00  0.00     0.011 A 
HETATM   32 BR1  UNL     1      29.222   8.093  47.057  1.00  0.00    -0.051 Br
HETATM   33  C22 UNL     1      26.943   6.990  48.084  1.00  0.00     0.032 A 
ENDBRANCH  11  27
TORSDOF 5
ENDMDL
MODEL 5
REMARK VINA RESULT:      -8.9      5.162      7.139
REMARK  5 active torsions:
REMARK  status: ('A' for Active; 'I' for Inactive)
REMARK    1  A    between atoms: O1_2  and  C2_3 
REMARK    2  A    between atoms: C6_7  and  N1_8 
REMARK    3  A    between atoms: C7_9  and  C8_10 
REMARK    4  A    between atoms: C9_11  and  C10_12 
REMARK       I    between atoms: C10_12  and  N2_14 
REMARK    5  A    between atoms: C16_22  and  C17_23 
ROOT
HETATM    1  C10 UNL     1      25.236   5.756  50.168  1.00  0.00     0.341 C 
HETATM    2  O2  UNL     1      24.777   5.190  49.119  1.00  0.00    -0.261 OA
HETATM    3  N2  UNL     1      24.534   5.268  51.292  1.00  0.00     0.016 N 
HETATM    4  C11 UNL     1      23.504   4.271  50.909  1.00  0.00     0.208 A 
HETATM    5  C12 UNL     1      22.857   5.246  51.337  1.00  0.00     0.245 A 
HETATM    6  C13 UNL     1      21.433   4.705  51.151  1.00  0.00     0.108 C 
HETATM    7  C14 UNL     1      20.722   3.589  50.683  1.00  0.00     0.096 C 
HETATM    8  N3  UNL     1      20.756   2.234  50.078  1.00  0.00    -0.282 NA
HETATM    9  C15 UNL     1      21.780   1.535  50.538  1.00  0.00     0.226 C 
HETATM   10  N4  UNL     1      22.916   1.378  51.336  1.00  0.00    -0.246 NA
HETATM   11  C16 UNL     1      23.994   1.995  51.261  1.00  0.00     0.048 C 
HETATM   12  C23 UNL     1      24.357   3.114  50.402  1.00  0.00     0.105 C 
HETATM   13  H11 UNL     1      25.086   5.860  52.030  1.00  0.00     0.292 HD
ENDROOT
BRANCH   1  14
HETATM   14  C9  UNL     1      26.286   6.641  49.607  1.00  0.00     0.083 C 
HETATM   15  C8  UNL     1      26.861   6.085  48.583  1.00  0.00     0.021 C 
BRANCH  15  16
HETATM   16  C7  UNL     1      27.921   6.793  47.891  1.00  0.00     0.018 A 
HETATM   17  C2  UNL     1      27.553   7.801  46.998  1.00  0.00     0.080 A 
HETATM   18  C3  UNL     1      28.535   8.462  46.383  1.00  0.00     0.038 A 
HETATM   19  C4  UNL     1      29.896   8.330  46.462  1.00  0.00     0.005 A 
HETATM   20  C5  UNL     1      30.204   7.306  47.365  1.00  0.00     0.024 A 
HETATM   21  C6  UNL     1      29.282   6.533  48.080  1.00  0.00     0.019 A 
BRANCH  17  22
HETATM   22  O1  UNL     1      26.201   8.070  46.783  1.00  0.00    -0.355 OA
HETATM   23  C1  UNL     1      25.743   9.389  47.100  1.00  0.00     0.210 C 
ENDBRANCH  17  22
BRANCH  21  24
HETATM   24  N1  UNL     1      29.681   5.488  48.958  1.00  0.00    -0.302 NA
HETATM   25  H7  UNL     1      30.345   6.091  49.539  1.00  0.00     0.124 HD
HETATM   26  H8  UNL     1      30.344   5.952  49.589  1.00  0.00     0.124 HD
ENDBRANCH  21  24
ENDBRANCH  15  16
ENDBRANCH   1  14
BRANCH  11  27
HETATM   27  C17 UNL     1      24.254   1.085  52.408  1.00  0.00    -0.010 A 
HETATM   28  C18 UNL     1      25.646   0.982  51.842  1.00  0.00     0.013 A 
HETATM   29  C19 UNL     1      26.734   0.220  52.361  1.00  0.00     0.002 A 
HETATM   30  C20 UNL     1      26.547  -0.541  53.526  1.00  0.00     0.019 A 
HETATM   31  C21 UNL     1      25.293  -0.447  54.033  1.00  0.00     0.011 A 
HETATM   32 BR1  UNL     1      24.541  -1.268  55.596  1.00  0.00    -0.051 Br
HETATM   33  C22 UNL     1      24.400   0.336  53.387  1.00  0.00     0.032 A 
ENDBRANCH  11  27
TORSDOF 5
ENDMDL
MODEL 6
REMARK VINA RESULT:      -8.9      7.862      9.246
REMARK  5 active torsions:
REMARK  status: ('A' for Active; 'I' for Inactive)
REMARK    1  A    between atoms: O1_2  and  C2_3 
REMARK    2  A    between atoms: C6_7  and  N1_8 
REMARK    3  A    between atoms: C7_9  and  C8_10 
REMARK    4  A    between atoms: C9_11  and  C10_12 
REMARK       I    between atoms: C10_12  and  N2_14 
REMARK    5  A    between atoms: C16_22  and  C17_23 
ROOT
HETATM    1  C10 UNL     1      30.532   7.141  48.088  1.00  0.00     0.341 C 
HETATM    2  O2  UNL     1      29.976   7.426  46.974  1.00  0.00    -0.261 OA
HETATM    3  N2  UNL     1      29.637   7.454  49.135  1.00  0.00     0.016 N 
HETATM    4  C11 UNL     1      28.358   8.004  48.622  1.00  0.00     0.208 A 
HETATM    5  C12 UNL     1      28.889   8.952  49.232  1.00  0.00     0.245 A 
HETATM    6  C13 UNL     1      27.819  10.028  49.004  1.00  0.00     0.108 C 
HETATM    7  C14 UNL     1      26.583  10.249  48.376  1.00  0.00     0.096 C 
HETATM    8  N3  UNL     1      25.474   9.714  47.548  1.00  0.00    -0.282 NA
HETATM    9  C15 UNL     1      25.228   8.449  47.847  1.00  0.00     0.226 C 
HETATM   10  N4  UNL     1      25.466   7.276  48.569  1.00  0.00    -0.246 NA
HETATM   11  C16 UNL     1      26.491   6.571  48.564  1.00  0.00     0.048 C 
HETATM   12  C23 UNL     1      27.765   6.801  47.897  1.00  0.00     0.105 C 
HETATM   13  H11 UNL     1      30.299   7.127  49.945  1.00  0.00     0.292 HD
ENDROOT
BRANCH   1  14
HETATM   14  C9  UNL     1      31.852   6.623  47.652  1.00  0.00     0.083 C 
HETATM   15  C8  UNL     1      31.718   5.508  46.999  1.00  0.00     0.021 C 
BRANCH  15  16
HETATM   16  C7  UNL     1      32.898   4.838  46.487  1.00  0.00     0.018 A 
HETATM   17  C2  UNL     1      33.397   5.256  45.252  1.00  0.00     0.080 A 
HETATM   18  C3  UNL     1      34.496   4.649  44.798  1.00  0.00     0.038 A 
HETATM   19  C4  UNL     1      35.257   3.647  45.338  1.00  0.00     0.005 A 
HETATM   20  C5  UNL     1      34.709   3.267  46.567  1.00  0.00     0.024 A 
HETATM   21  C6  UNL     1      33.567   3.814  47.165  1.00  0.00     0.019 A 
BRANCH  17  22
HETATM   22  O1  UNL     1      32.740   6.267  44.550  1.00  0.00    -0.355 OA
HETATM   23  C1  UNL     1      33.491   7.451  44.259  1.00  0.00     0.210 C 
ENDBRANCH  17  22
BRANCH  21  24
HETATM   24  N1  UNL     1      33.058   3.347  48.407  1.00  0.00    -0.302 NA
HETATM   25  H7  UNL     1      33.739   3.905  49.013  1.00  0.00     0.124 HD
HETATM   26  H8  UNL     1      33.648   3.825  49.097  1.00  0.00     0.124 HD
ENDBRANCH  21  24
ENDBRANCH  15  16
ENDBRANCH   1  14
BRANCH  11  27
HETATM   27  C17 UNL     1      25.631   5.835  49.530  1.00  0.00    -0.010 A 
HETATM   28  C18 UNL     1      26.479   4.642  49.176  1.00  0.00     0.013 A 
HETATM   29  C19 UNL     1      26.362   3.317  49.691  1.00  0.00     0.002 A 
HETATM   30  C20 UNL     1      25.362   3.033  50.635  1.00  0.00     0.019 A 
HETATM   31  C21 UNL     1      24.600   4.109  50.952  1.00  0.00     0.011 A 
HETATM   32 BR1  UNL     1      23.134   4.250  52.181  1.00  0.00    -0.051 Br
HETATM   33  C22 UNL     1      24.876   5.286  50.348  1.00  0.00     0.032 A 
ENDBRANCH  11  27
TORSDOF 5
ENDMDL
MODEL 7
REMARK VINA RESULT:      -8.7      5.112      7.854
REMARK  5 active torsions:
REMARK  status: ('A' for Active; 'I' for Inactive)
REMARK    1  A    between atoms: O1_2  and  C2_3 
REMARK    2  A    between atoms: C6_7  and  N1_8 
REMARK    3  A    between atoms: C7_9  and  C8_10 
REMARK    4  A    between atoms: C9_11  and  C10_12 
REMARK       I    between atoms: C10_12  and  N2_14 
REMARK    5  A    between atoms: C16_22  and  C17_23 
ROOT
HETATM    1  C10 UNL     1      23.153   2.951  50.067  1.00  0.00     0.341 C 
HETATM    2  O2  UNL     1      22.623   3.830  50.827  1.00  0.00    -0.261 OA
HETATM    3  N2  UNL     1      23.623   3.587  48.897  1.00  0.00     0.016 N 
HETATM    4  C11 UNL     1      23.358   5.047  48.918  1.00  0.00     0.208 A 
HETATM    5  C12 UNL     1      22.642   4.608  47.998  1.00  0.00     0.245 A 
HETATM    6  C13 UNL     1      21.984   5.918  47.544  1.00  0.00     0.108 C 
HETATM    7  C14 UNL     1      21.935   7.292  47.828  1.00  0.00     0.096 C 
HETATM    8  N3  UNL     1      22.399   8.425  48.667  1.00  0.00    -0.282 NA
HETATM    9  C15 UNL     1      23.675   8.286  48.986  1.00  0.00     0.226 C 
HETATM   10  N4  UNL     1      24.895   7.604  48.955  1.00  0.00    -0.246 NA
HETATM   11  C16 UNL     1      25.154   6.482  49.427  1.00  0.00     0.048 C 
HETATM   12  C23 UNL     1      24.262   5.516  50.052  1.00  0.00     0.105 C 
HETATM   13  H11 UNL     1      24.026   2.679  48.435  1.00  0.00     0.292 HD
ENDROOT
BRANCH   1  14
HETATM   14  C9  UNL     1      22.976   1.710  50.860  1.00  0.00     0.083 C 
HETATM   15  C8  UNL     1      22.962   1.971  52.132  1.00  0.00     0.021 C 
BRANCH  15  16
HETATM   16  C7  UNL     1      22.800   0.886  53.080  1.00  0.00     0.018 A 
HETATM   17  C2  UNL     1      21.504   0.580  53.501  1.00  0.00     0.080 A 
HETATM   18  C3  UNL     1      21.362  -0.435  54.355  1.00  0.00     0.038 A 
HETATM   19  C4  UNL     1      22.288  -1.267  54.926  1.00  0.00     0.005 A 
HETATM   20  C5  UNL     1      23.563  -0.911  54.473  1.00  0.00     0.024 A 
HETATM   21  C6  UNL     1      23.861   0.124  53.579  1.00  0.00     0.019 A 
BRANCH  17  22
HETATM   22  O1  UNL     1      20.430   1.333  53.026  1.00  0.00    -0.355 OA
HETATM   23  C1  UNL     1      19.420   0.633  52.291  1.00  0.00     0.210 C 
ENDBRANCH  17  22
BRANCH  21  24
HETATM   24  N1  UNL     1      25.193   0.439  53.193  1.00  0.00    -0.302 NA
HETATM   25  H7  UNL     1      25.476  -0.568  52.975  1.00  0.00     0.124 HD
HETATM   26  H8  UNL     1      25.589  -0.476  52.951  1.00  0.00     0.124 HD
ENDBRANCH  21  24
ENDBRANCH  15  16
ENDBRANCH   1  14
BRANCH  11  27
HETATM   27  C17 UNL     1      26.465   6.865  48.836  1.00  0.00    -0.010 A 
HETATM   28  C18 UNL     1      26.800   5.402  48.958  1.00  0.00     0.013 A 
HETATM   29  C19 UNL     1      28.018   4.762  48.582  1.00  0.00     0.002 A 
HETATM   30  C20 UNL     1      29.057   5.530  48.033  1.00  0.00     0.019 A 
HETATM   31  C21 UNL     1      28.753   6.847  47.925  1.00  0.00     0.011 A 
HETATM   32 BR1  UNL     1      29.807   8.293  47.235  1.00  0.00    -0.051 Br
HETATM   33  C22 UNL     1      27.534   7.256  48.340  1.00  0.00     0.032 A 
ENDBRANCH  11  27
TORSDOF 5
ENDMDL
MODEL 8
REMARK VINA RESULT:      -8.7      6.223      8.241
REMARK  5 active torsions:
REMARK  status: ('A' for Active; 'I' for Inactive)
REMARK    1  A    between atoms: O1_2  and  C2_3 
REMARK    2  A    between atoms: C6_7  and  N1_8 
REMARK    3  A    between atoms: C7_9  and  C8_10 
REMARK    4  A    between atoms: C9_11  and  C10_12 
REMARK       I    between atoms: C10_12  and  N2_14 
REMARK    5  A    between atoms: C16_22  and  C17_23 
ROOT
HETATM    1  C10 UNL     1      26.105   7.247  49.491  1.00  0.00     0.341 C 
HETATM    2  O2  UNL     1      25.366   7.048  48.468  1.00  0.00    -0.261 OA
HETATM    3  N2  UNL     1      25.463   6.709  50.628  1.00  0.00     0.016 N 
HETATM    4  C11 UNL     1      24.157   6.094  50.284  1.00  0.00     0.208 A 
HETATM    5  C12 UNL     1      23.867   7.078  50.991  1.00  0.00     0.245 A 
HETATM    6  C13 UNL     1      22.339   6.947  50.993  1.00  0.00     0.108 C 
HETATM    7  C14 UNL     1      21.292   6.161  50.485  1.00  0.00     0.096 C 
HETATM    8  N3  UNL     1      20.868   5.002  49.659  1.00  0.00    -0.282 NA
HETATM    9  C15 UNL     1      21.718   3.996  49.785  1.00  0.00     0.226 C 
HETATM   10  N4  UNL     1      22.870   3.403  50.310  1.00  0.00    -0.246 NA
HETATM   11  C16 UNL     1      24.053   3.747  50.136  1.00  0.00     0.048 C 
HETATM   12  C23 UNL     1      24.582   4.905  49.430  1.00  0.00     0.105 C 
HETATM   13  H11 UNL     1      26.254   6.976  51.336  1.00  0.00     0.292 HD
ENDROOT
BRANCH   1  14
HETATM   14  C9  UNL     1      27.266   7.955  48.900  1.00  0.00     0.083 C 
HETATM   15  C8  UNL     1      27.701   8.881  49.700  1.00  0.00     0.021 C 
BRANCH  15  16
HETATM   16  C7  UNL     1      28.835   9.693  49.301  1.00  0.00     0.018 A 
HETATM   17  C2  UNL     1      28.596  11.033  48.991  1.00  0.00     0.080 A 
HETATM   18  C3  UNL     1      29.648  11.778  48.646  1.00  0.00     0.038 A 
HETATM   19  C4  UNL     1      30.975  11.461  48.530  1.00  0.00     0.005 A 
HETATM   20  C5  UNL     1      31.153  10.110  48.847  1.00  0.00     0.024 A 
HETATM   21  C6  UNL     1      30.146   9.214  49.226  1.00  0.00     0.019 A 
BRANCH  17  22
HETATM   22  O1  UNL     1      27.294  11.531  49.046  1.00  0.00    -0.355 OA
HETATM   23  C1  UNL     1      26.732  12.019  47.823  1.00  0.00     0.210 C 
ENDBRANCH  17  22
BRANCH  21  24
HETATM   24  N1  UNL     1      30.409   7.845  49.503  1.00  0.00    -0.302 NA
HETATM   25  H7  UNL     1      31.235   7.762  48.830  1.00  0.00     0.124 HD
HETATM   26  H8  UNL     1      31.211   7.632  48.898  1.00  0.00     0.124 HD
ENDBRANCH  21  24
ENDBRANCH  15  16
ENDBRANCH   1  14
BRANCH  11  27
HETATM   27  C17 UNL     1      24.215   2.573  51.037  1.00  0.00    -0.010 A 
HETATM   28  C18 UNL     1      25.690   2.757  50.795  1.00  0.00     0.013 A 
HETATM   29  C19 UNL     1      26.756   1.975  51.333  1.00  0.00     0.002 A 
HETATM   30  C20 UNL     1      26.458   0.902  52.186  1.00  0.00     0.019 A 
HETATM   31  C21 UNL     1      25.129   0.739  52.402  1.00  0.00     0.011 A 
HETATM   32 BR1  UNL     1      24.215  -0.554  53.486  1.00  0.00    -0.051 Br
HETATM   33  C22 UNL     1      24.275   1.593  51.796  1.00  0.00     0.032 A 
ENDBRANCH  11  27
TORSDOF 5
ENDMDL
MODEL 9
REMARK VINA RESULT:      -8.6      5.748      7.395
REMARK  5 active torsions:
REMARK  status: ('A' for Active; 'I' for Inactive)
REMARK    1  A    between atoms: O1_2  and  C2_3 
REMARK    2  A    between atoms: C6_7  and  N1_8 
REMARK    3  A    between atoms: C7_9  and  C8_10 
REMARK    4  A    between atoms: C9_11  and  C10_12 
REMARK       I    between atoms: C10_12  and  N2_14 
REMARK    5  A    between atoms: C16_22  and  C17_23 
ROOT
HETATM    1  C10 UNL     1      26.199   6.930  49.457  1.00  0.00     0.341 C 
HETATM    2  O2  UNL     1      25.496   6.766  48.402  1.00  0.00    -0.261 OA
HETATM    3  N2  UNL     1      25.450   6.499  50.574  1.00  0.00     0.016 N 
HETATM    4  C11 UNL     1      24.109   6.000  50.180  1.00  0.00     0.208 A 
HETATM    5  C12 UNL     1      23.882   7.033  50.838  1.00  0.00     0.245 A 
HETATM    6  C13 UNL     1      22.349   7.049  50.761  1.00  0.00     0.108 C 
HETATM    7  C14 UNL     1      21.258   6.350  50.222  1.00  0.00     0.096 C 
HETATM    8  N3  UNL     1      20.766   5.207  49.412  1.00  0.00    -0.282 NA
HETATM    9  C15 UNL     1      21.506   4.130  49.616  1.00  0.00     0.226 C 
HETATM   10  N4  UNL     1      22.565   3.448  50.221  1.00  0.00    -0.246 NA
HETATM   11  C16 UNL     1      23.784   3.670  50.100  1.00  0.00     0.048 C 
HETATM   12  C23 UNL     1      24.458   4.745  49.388  1.00  0.00     0.105 C 
HETATM   13  H11 UNL     1      26.227   6.715  51.315  1.00  0.00     0.292 HD
ENDROOT
BRANCH   1  14
HETATM   14  C9  UNL     1      27.452   7.502  48.907  1.00  0.00     0.083 C 
HETATM   15  C8  UNL     1      28.108   6.610  48.227  1.00  0.00     0.021 C 
BRANCH  15  16
HETATM   16  C7  UNL     1      29.368   6.973  47.607  1.00  0.00     0.018 A 
HETATM   17  C2  UNL     1      29.319   7.704  46.418  1.00  0.00     0.080 A 
HETATM   18  C3  UNL     1      30.483   8.053  45.866  1.00  0.00     0.038 A 
HETATM   19  C4  UNL     1      31.773   7.815  46.260  1.00  0.00     0.005 A 
HETATM   20  C5  UNL     1      31.759   7.078  47.449  1.00  0.00     0.024 A 
HETATM   21  C6  UNL     1      30.620   6.647  48.138  1.00  0.00     0.019 A 
BRANCH  17  22
HETATM   22  O1  UNL     1      28.082   8.031  45.861  1.00  0.00    -0.355 OA
HETATM   23  C1  UNL     1      27.806   9.422  45.662  1.00  0.00     0.210 C 
ENDBRANCH  17  22
BRANCH  21  24
HETATM   24  N1  UNL     1      30.695   5.873  49.329  1.00  0.00    -0.302 NA
HETATM   25  H7  UNL     1      31.610   5.383  49.073  1.00  0.00     0.124 HD
HETATM   26  H8  UNL     1      31.562   5.337  49.205  1.00  0.00     0.124 HD
ENDBRANCH  21  24
ENDBRANCH  15  16
ENDBRANCH   1  14
BRANCH  11  27
HETATM   27  C17 UNL     1      23.784   2.521  51.045  1.00  0.00    -0.010 A 
HETATM   28  C18 UNL     1      25.284   2.592  50.927  1.00  0.00     0.013 A 
HETATM   29  C19 UNL     1      26.241   1.758  51.576  1.00  0.00     0.002 A 
HETATM   30  C20 UNL     1      25.795   0.738  52.432  1.00  0.00     0.019 A 
HETATM   31  C21 UNL     1      24.445   0.676  52.537  1.00  0.00     0.011 A 
HETATM   32 BR1  UNL     1      23.352  -0.511  53.574  1.00  0.00    -0.051 Br
HETATM   33  C22 UNL     1      23.709   1.565  51.835  1.00  0.00     0.032 A 
ENDBRANCH  11  27
TORSDOF 5
ENDMDL
