MODEL 1
REMARK VINA RESULT:      -8.2      0.000      0.000
REMARK  6 active torsions:
REMARK  status: ('A' for Active; 'I' for Inactive)
REMARK    1  A    between atoms: N1_1  and  C1_2 
REMARK    2  A    between atoms: C1_2  and  P1_4 
REMARK    3  A    between atoms: P1_4  and  N2_5 
REMARK    4  A    between atoms: C2_6  and  C3_7 
REMARK    5  A    between atoms: C2_6  and  C11_16 
REMARK    6  A    between atoms: C4_8  and  C5_9 
ROOT
HETATM    1  N2  UNL     1      23.586   2.278  52.402  1.00  0.00    -0.257 NA
HETATM    2  C2  UNL     1      23.565   1.175  52.927  1.00  0.00     0.066 C 
ENDROOT
BRANCH   2   3
HETATM    3  C3  UNL     1      24.980   0.985  53.065  1.00  0.00     0.033 C 
HETATM    4  C4  UNL     1      26.004   0.191  53.149  1.00  0.00     0.017 C 
BRANCH   4   5
HETATM    5  C5  UNL     1      27.400  -0.149  53.283  1.00  0.00     0.003 A 
HETATM    6  C6  UNL     1      28.321   0.786  53.681  1.00  0.00     0.014 A 
HETATM    7  C7  UNL     1      29.600   0.335  53.768  1.00  0.00     0.001 A 
HETATM    8  C8  UNL     1      29.899  -0.966  53.467  1.00  0.00     0.003 A 
HETATM    9  C9  UNL     1      28.988  -1.916  53.066  1.00  0.00     0.043 A 
HETATM   10  C10 UNL     1      27.682  -1.482  52.971  1.00  0.00     0.126 A 
HETATM   11  F1  UNL     1      26.847  -2.467  52.573  1.00  0.00    -0.205 F 
ENDBRANCH   4   5
ENDBRANCH   2   3
BRANCH   2  12
HETATM   12  C11 UNL     1      22.461   0.328  53.291  1.00  0.00    -0.007 A 
HETATM   13  C12 UNL     1      22.768  -0.707  54.141  1.00  0.00     0.014 A 
HETATM   14  C13 UNL     1      21.867  -1.630  54.611  1.00  0.00     0.001 A 
HETATM   15  C14 UNL     1      20.556  -1.513  54.202  1.00  0.00     0.000 A 
HETATM   16  C15 UNL     1      20.165  -0.503  53.351  1.00  0.00     0.001 A 
HETATM   17  C16 UNL     1      21.141   0.371  52.936  1.00  0.00     0.014 A 
ENDBRANCH   2  12
BRANCH   1  18
HETATM   18  P1  UNL     1      22.655   3.556  51.762  1.00  0.00     0.062 P 
HETATM   19  H3  UNL     1      21.277   3.680  52.221  1.00  0.00     0.089 HD
BRANCH  18  20
HETATM   20  C1  UNL     1      23.499   5.159  52.148  1.00  0.00     0.117 C 
HETATM   21  S1  UNL     1      23.659   6.161  50.872  1.00  0.00    -0.059 SA
BRANCH  20  22
HETATM   22  N1  UNL     1      23.926   5.376  53.488  1.00  0.00    -0.388 N 
HETATM   23  H1  UNL     1      24.550   5.283  54.306  1.00  0.00     0.157 HD
HETATM   24  H2  UNL     1      23.426   5.948  54.210  1.00  0.00     0.157 HD
ENDBRANCH  20  22
ENDBRANCH  18  20
ENDBRANCH   1  18
TORSDOF 6
ENDMDL
MODEL 2
REMARK VINA RESULT:      -8.1      1.134      1.554
REMARK  6 active torsions:
REMARK  status: ('A' for Active; 'I' for Inactive)
REMARK    1  A    between atoms: N1_1  and  C1_2 
REMARK    2  A    between atoms: C1_2  and  P1_4 
REMARK    3  A    between atoms: P1_4  and  N2_5 
REMARK    4  A    between atoms: C2_6  and  C3_7 
REMARK    5  A    between atoms: C2_6  and  C11_16 
REMARK    6  A    between atoms: C4_8  and  C5_9 
ROOT
HETATM    1  N2  UNL     1      23.631   2.127  52.353  1.00  0.00    -0.257 NA
HETATM    2  C2  UNL     1      23.495   1.066  52.945  1.00  0.00     0.066 C 
ENDROOT
BRANCH   2   3
HETATM    3  C3  UNL     1      24.874   0.826  53.258  1.00  0.00     0.033 C 
HETATM    4  C4  UNL     1      26.004   0.248  52.985  1.00  0.00     0.017 C 
BRANCH   4   5
HETATM    5  C5  UNL     1      27.395  -0.084  53.178  1.00  0.00     0.003 A 
HETATM    6  C6  UNL     1      27.837  -1.377  53.055  1.00  0.00     0.014 A 
HETATM    7  C7  UNL     1      29.169  -1.553  53.260  1.00  0.00     0.001 A 
HETATM    8  C8  UNL     1      29.970  -0.487  53.567  1.00  0.00     0.003 A 
HETATM    9  C9  UNL     1      29.543   0.815  53.694  1.00  0.00     0.043 A 
HETATM   10  C10 UNL     1      28.194   1.019  53.490  1.00  0.00     0.126 A 
HETATM   11  F1  UNL     1      27.849   2.317  53.631  1.00  0.00    -0.205 F 
ENDBRANCH   4   5
ENDBRANCH   2   3
BRANCH   2  12
HETATM   12  C11 UNL     1      22.316   0.297  53.236  1.00  0.00    -0.007 A 
HETATM   13  C12 UNL     1      22.516  -0.816  54.016  1.00  0.00     0.014 A 
HETATM   14  C13 UNL     1      21.530  -1.686  54.411  1.00  0.00     0.001 A 
HETATM   15  C14 UNL     1      20.243  -1.428  53.994  1.00  0.00     0.000 A 
HETATM   16  C15 UNL     1      19.956  -0.333  53.209  1.00  0.00     0.001 A 
HETATM   17  C16 UNL     1      21.011   0.479  52.868  1.00  0.00     0.014 A 
ENDBRANCH   2  12
BRANCH   1  18
HETATM   18  P1  UNL     1      22.844   3.394  51.526  1.00  0.00     0.062 P 
HETATM   19  H3  UNL     1      21.411   3.554  51.747  1.00  0.00     0.089 HD
BRANCH  18  20
HETATM   20  C1  UNL     1      23.645   4.997  51.992  1.00  0.00     0.117 C 
HETATM   21  S1  UNL     1      24.073   5.930  50.724  1.00  0.00    -0.059 SA
BRANCH  20  22
HETATM   22  N1  UNL     1      23.816   5.274  53.377  1.00  0.00    -0.388 N 
HETATM   23  H1  UNL     1      24.193   5.131  54.328  1.00  0.00     0.157 HD
HETATM   24  H2  UNL     1      23.362   6.053  53.911  1.00  0.00     0.157 HD
ENDBRANCH  20  22
ENDBRANCH  18  20
ENDBRANCH   1  18
TORSDOF 6
ENDMDL
MODEL 3
REMARK VINA RESULT:      -7.9      4.057      5.734
REMARK  6 active torsions:
REMARK  status: ('A' for Active; 'I' for Inactive)
REMARK    1  A    between atoms: N1_1  and  C1_2 
REMARK    2  A    between atoms: C1_2  and  P1_4 
REMARK    3  A    between atoms: P1_4  and  N2_5 
REMARK    4  A    between atoms: C2_6  and  C3_7 
REMARK    5  A    between atoms: C2_6  and  C11_16 
REMARK    6  A    between atoms: C4_8  and  C5_9 
ROOT
HETATM    1  N2  UNL     1      25.797   0.327  52.355  1.00  0.00    -0.257 NA
HETATM    2  C2  UNL     1      24.673   0.787  52.487  1.00  0.00     0.066 C 
ENDROOT
BRANCH   2   3
HETATM    3  C3  UNL     1      24.833   1.960  51.676  1.00  0.00     0.033 C 
HETATM    4  C4  UNL     1      25.597   2.765  51.004  1.00  0.00     0.017 C 
BRANCH   4   5
HETATM    5  C5  UNL     1      25.906   3.913  50.185  1.00  0.00     0.003 A 
HETATM    6  C6  UNL     1      27.006   3.920  49.365  1.00  0.00     0.014 A 
HETATM    7  C7  UNL     1      27.182   5.061  48.647  1.00  0.00     0.001 A 
HETATM    8  C8  UNL     1      26.299   6.100  48.768  1.00  0.00     0.003 A 
HETATM    9  C9  UNL     1      25.193   6.108  49.585  1.00  0.00     0.043 A 
HETATM   10  C10 UNL     1      24.993   4.960  50.325  1.00  0.00     0.126 A 
HETATM   11  F1  UNL     1      23.890   5.042  51.100  1.00  0.00    -0.205 F 
ENDBRANCH   4   5
ENDBRANCH   2   3
BRANCH   2  12
HETATM   12  C11 UNL     1      23.540   0.302  53.228  1.00  0.00    -0.007 A 
HETATM   13  C12 UNL     1      22.358   0.966  53.000  1.00  0.00     0.014 A 
HETATM   14  C13 UNL     1      21.161   0.667  53.601  1.00  0.00     0.001 A 
HETATM   15  C14 UNL     1      21.138  -0.376  54.500  1.00  0.00     0.000 A 
HETATM   16  C15 UNL     1      22.278  -1.093  54.786  1.00  0.00     0.001 A 
HETATM   17  C16 UNL     1      23.428  -0.718  54.132  1.00  0.00     0.014 A 
ENDBRANCH   2  12
BRANCH   1  18
HETATM   18  P1  UNL     1      26.861  -0.942  52.763  1.00  0.00     0.062 P 
HETATM   19  H3  UNL     1      27.547  -1.622  51.671  1.00  0.00     0.089 HD
BRANCH  18  20
HETATM   20  C1  UNL     1      28.169  -0.282  53.896  1.00  0.00     0.117 C 
HETATM   21  S1  UNL     1      29.664  -0.867  53.612  1.00  0.00    -0.059 SA
BRANCH  20  22
HETATM   22  N1  UNL     1      27.771   0.655  54.891  1.00  0.00    -0.388 N 
HETATM   23  H1  UNL     1      27.281   1.484  55.264  1.00  0.00     0.157 HD
HETATM   24  H2  UNL     1      28.055   0.641  55.899  1.00  0.00     0.157 HD
ENDBRANCH  20  22
ENDBRANCH  18  20
ENDBRANCH   1  18
TORSDOF 6
ENDMDL
MODEL 4
REMARK VINA RESULT:      -7.9      1.868      6.165
REMARK  6 active torsions:
REMARK  status: ('A' for Active; 'I' for Inactive)
REMARK    1  A    between atoms: N1_1  and  C1_2 
REMARK    2  A    between atoms: C1_2  and  P1_4 
REMARK    3  A    between atoms: P1_4  and  N2_5 
REMARK    4  A    between atoms: C2_6  and  C3_7 
REMARK    5  A    between atoms: C2_6  and  C11_16 
REMARK    6  A    between atoms: C4_8  and  C5_9 
ROOT
HETATM    1  N2  UNL     1      25.860   1.616  51.652  1.00  0.00    -0.257 NA
HETATM    2  C2  UNL     1      26.171   0.704  52.404  1.00  0.00     0.066 C 
ENDROOT
BRANCH   2   3
HETATM    3  C3  UNL     1      24.857   0.191  52.663  1.00  0.00     0.033 C 
HETATM    4  C4  UNL     1      23.574   0.376  52.741  1.00  0.00     0.017 C 
BRANCH   4   5
HETATM    5  C5  UNL     1      22.200  -0.001  52.972  1.00  0.00     0.003 A 
HETATM    6  C6  UNL     1      21.189   0.504  52.195  1.00  0.00     0.014 A 
HETATM    7  C7  UNL     1      19.942   0.069  52.517  1.00  0.00     0.001 A 
HETATM    8  C8  UNL     1      19.760  -0.810  53.550  1.00  0.00     0.003 A 
HETATM    9  C9  UNL     1      20.762  -1.326  54.339  1.00  0.00     0.043 A 
HETATM   10  C10 UNL     1      22.038  -0.898  54.031  1.00  0.00     0.126 A 
HETATM   11  F1  UNL     1      22.967  -1.445  54.844  1.00  0.00    -0.205 F 
ENDBRANCH   4   5
ENDBRANCH   2   3
BRANCH   2  12
HETATM   12  C11 UNL     1      27.459   0.279  52.881  1.00  0.00    -0.007 A 
HETATM   13  C12 UNL     1      27.681  -1.077  52.849  1.00  0.00     0.014 A 
HETATM   14  C13 UNL     1      28.838  -1.693  53.258  1.00  0.00     0.001 A 
HETATM   15  C14 UNL     1      29.854  -0.896  53.737  1.00  0.00     0.000 A 
HETATM   16  C15 UNL     1      29.712   0.472  53.803  1.00  0.00     0.001 A 
HETATM   17  C16 UNL     1      28.517   0.995  53.370  1.00  0.00     0.014 A 
ENDBRANCH   2  12
BRANCH   1  18
HETATM   18  P1  UNL     1      26.420   2.912  50.695  1.00  0.00     0.062 P 
HETATM   19  H3  UNL     1      26.834   2.610  49.330  1.00  0.00     0.089 HD
BRANCH  18  20
HETATM   20  C1  UNL     1      25.085   4.191  50.584  1.00  0.00     0.117 C 
HETATM   21  S1  UNL     1      23.570   3.587  50.599  1.00  0.00    -0.059 SA
BRANCH  20  22
HETATM   22  N1  UNL     1      25.481   5.555  50.498  1.00  0.00    -0.388 N 
HETATM   23  H1  UNL     1      26.131   6.355  50.566  1.00  0.00     0.157 HD
HETATM   24  H2  UNL     1      24.872   6.357  50.207  1.00  0.00     0.157 HD
ENDBRANCH  20  22
ENDBRANCH  18  20
ENDBRANCH   1  18
TORSDOF 6
ENDMDL
MODEL 5
REMARK VINA RESULT:      -7.7      3.724      7.024
REMARK  6 active torsions:
REMARK  status: ('A' for Active; 'I' for Inactive)
REMARK    1  A    between atoms: N1_1  and  C1_2 
REMARK    2  A    between atoms: C1_2  and  P1_4 
REMARK    3  A    between atoms: P1_4  and  N2_5 
REMARK    4  A    between atoms: C2_6  and  C3_7 
REMARK    5  A    between atoms: C2_6  and  C11_16 
REMARK    6  A    between atoms: C4_8  and  C5_9 
ROOT
HETATM    1  N2  UNL     1      26.318   1.716  52.511  1.00  0.00    -0.257 NA
HETATM    2  C2  UNL     1      25.554   2.200  51.688  1.00  0.00     0.066 C 
ENDROOT
BRANCH   2   3
HETATM    3  C3  UNL     1      24.410   1.377  51.959  1.00  0.00     0.033 C 
HETATM    4  C4  UNL     1      23.533   0.913  52.795  1.00  0.00     0.017 C 
BRANCH   4   5
HETATM    5  C5  UNL     1      22.394   0.131  53.212  1.00  0.00     0.003 A 
HETATM    6  C6  UNL     1      22.538  -0.923  54.077  1.00  0.00     0.014 A 
HETATM    7  C7  UNL     1      21.386  -1.574  54.389  1.00  0.00     0.001 A 
HETATM    8  C8  UNL     1      20.194  -1.170  53.853  1.00  0.00     0.003 A 
HETATM    9  C9  UNL     1      20.032  -0.116  52.985  1.00  0.00     0.043 A 
HETATM   10  C10 UNL     1      21.188   0.562  52.652  1.00  0.00     0.126 A 
HETATM   11  F1  UNL     1      20.951   1.582  51.799  1.00  0.00    -0.205 F 
ENDBRANCH   4   5
ENDBRANCH   2   3
BRANCH   2  12
HETATM   12  C11 UNL     1      25.745   3.264  50.740  1.00  0.00    -0.007 A 
HETATM   13  C12 UNL     1      24.750   4.211  50.709  1.00  0.00     0.014 A 
HETATM   14  C13 UNL     1      24.735   5.306  49.881  1.00  0.00     0.001 A 
HETATM   15  C14 UNL     1      25.794   5.471  49.016  1.00  0.00     0.000 A 
HETATM   16  C15 UNL     1      26.832   4.567  48.983  1.00  0.00     0.001 A 
HETATM   17  C16 UNL     1      26.757   3.504  49.851  1.00  0.00     0.014 A 
ENDBRANCH   2  12
BRANCH   1  18
HETATM   18  P1  UNL     1      27.883   1.767  53.187  1.00  0.00     0.062 P 
HETATM   19  H3  UNL     1      28.180   2.849  54.117  1.00  0.00     0.089 HD
BRANCH  18  20
HETATM   20  C1  UNL     1      28.193   0.179  54.088  1.00  0.00     0.117 C 
HETATM   21  S1  UNL     1      29.597  -0.554  53.697  1.00  0.00    -0.059 SA
BRANCH  20  22
HETATM   22  N1  UNL     1      27.210  -0.257  55.019  1.00  0.00    -0.388 N 
HETATM   23  H1  UNL     1      26.837  -0.810  55.808  1.00  0.00     0.157 HD
HETATM   24  H2  UNL     1      26.221   0.086  55.078  1.00  0.00     0.157 HD
ENDBRANCH  20  22
ENDBRANCH  18  20
ENDBRANCH   1  18
TORSDOF 6
ENDMDL
MODEL 6
REMARK VINA RESULT:      -7.6      2.946      3.668
REMARK  6 active torsions:
REMARK  status: ('A' for Active; 'I' for Inactive)
REMARK    1  A    between atoms: N1_1  and  C1_2 
REMARK    2  A    between atoms: C1_2  and  P1_4 
REMARK    3  A    between atoms: P1_4  and  N2_5 
REMARK    4  A    between atoms: C2_6  and  C3_7 
REMARK    5  A    between atoms: C2_6  and  C11_16 
REMARK    6  A    between atoms: C4_8  and  C5_9 
ROOT
HETATM    1  N2  UNL     1      24.729   4.416  50.791  1.00  0.00    -0.257 NA
HETATM    2  C2  UNL     1      24.523   3.221  50.638  1.00  0.00     0.066 C 
ENDROOT
BRANCH   2   3
HETATM    3  C3  UNL     1      25.709   2.723  51.273  1.00  0.00     0.033 C 
HETATM    4  C4  UNL     1      26.282   1.896  52.093  1.00  0.00     0.017 C 
BRANCH   4   5
HETATM    5  C5  UNL     1      27.385   1.297  52.804  1.00  0.00     0.003 A 
HETATM    6  C6  UNL     1      28.251   2.063  53.542  1.00  0.00     0.014 A 
HETATM    7  C7  UNL     1      29.245   1.375  54.162  1.00  0.00     0.001 A 
HETATM    8  C8  UNL     1      29.335   0.016  54.030  1.00  0.00     0.003 A 
HETATM    9  C9  UNL     1      28.476  -0.767  53.295  1.00  0.00     0.043 A 
HETATM   10  C10 UNL     1      27.457  -0.091  52.655  1.00  0.00     0.126 A 
HETATM   11  F1  UNL     1      26.656  -0.923  51.955  1.00  0.00    -0.205 F 
ENDBRANCH   4   5
ENDBRANCH   2   3
BRANCH   2  12
HETATM   12  C11 UNL     1      23.429   2.529  50.013  1.00  0.00    -0.007 A 
HETATM   13  C12 UNL     1      23.244   2.800  48.679  1.00  0.00     0.014 A 
HETATM   14  C13 UNL     1      22.262   2.249  47.894  1.00  0.00     0.001 A 
HETATM   15  C14 UNL     1      21.394   1.358  48.485  1.00  0.00     0.000 A 
HETATM   16  C15 UNL     1      21.509   1.031  49.817  1.00  0.00     0.001 A 
HETATM   17  C16 UNL     1      22.525   1.634  50.519  1.00  0.00     0.014 A 
ENDBRANCH   2  12
BRANCH   1  18
HETATM   18  P1  UNL     1      24.145   5.996  50.524  1.00  0.00     0.062 P 
HETATM   19  H3  UNL     1      23.562   6.699  51.660  1.00  0.00     0.089 HD
BRANCH  18  20
HETATM   20  C1  UNL     1      25.535   7.045  49.894  1.00  0.00     0.117 C 
HETATM   21  S1  UNL     1      25.713   7.026  48.273  1.00  0.00    -0.059 SA
BRANCH  20  22
HETATM   22  N1  UNL     1      26.311   7.760  50.849  1.00  0.00    -0.388 N 
HETATM   23  H1  UNL     1      26.708   8.597  51.306  1.00  0.00     0.157 HD
HETATM   24  H2  UNL     1      26.881   7.338  51.621  1.00  0.00     0.157 HD
ENDBRANCH  20  22
ENDBRANCH  18  20
ENDBRANCH   1  18
TORSDOF 6
ENDMDL
MODEL 7
REMARK VINA RESULT:      -7.6      2.813      3.571
REMARK  6 active torsions:
REMARK  status: ('A' for Active; 'I' for Inactive)
REMARK    1  A    between atoms: N1_1  and  C1_2 
REMARK    2  A    between atoms: C1_2  and  P1_4 
REMARK    3  A    between atoms: P1_4  and  N2_5 
REMARK    4  A    between atoms: C2_6  and  C3_7 
REMARK    5  A    between atoms: C2_6  and  C11_16 
REMARK    6  A    between atoms: C4_8  and  C5_9 
ROOT
HETATM    1  N2  UNL     1      24.284   3.451  51.997  1.00  0.00    -0.257 NA
HETATM    2  C2  UNL     1      24.260   2.581  51.140  1.00  0.00     0.066 C 
ENDROOT
BRANCH   2   3
HETATM    3  C3  UNL     1      25.468   1.898  51.504  1.00  0.00     0.033 C 
HETATM    4  C4  UNL     1      26.189   1.291  52.396  1.00  0.00     0.017 C 
BRANCH   4   5
HETATM    5  C5  UNL     1      27.346   0.591  52.902  1.00  0.00     0.003 A 
HETATM    6  C6  UNL     1      27.472  -0.767  52.753  1.00  0.00     0.014 A 
HETATM    7  C7  UNL     1      28.608  -1.300  53.274  1.00  0.00     0.001 A 
HETATM    8  C8  UNL     1      29.530  -0.501  53.893  1.00  0.00     0.003 A 
HETATM    9  C9  UNL     1      29.419   0.861  54.051  1.00  0.00     0.043 A 
HETATM   10  C10 UNL     1      28.273   1.427  53.530  1.00  0.00     0.126 A 
HETATM   11  F1  UNL     1      28.234   2.764  53.721  1.00  0.00    -0.205 F 
ENDBRANCH   4   5
ENDBRANCH   2   3
BRANCH   2  12
HETATM   12  C11 UNL     1      23.313   2.323  50.089  1.00  0.00    -0.007 A 
HETATM   13  C12 UNL     1      22.344   1.394  50.382  1.00  0.00     0.014 A 
HETATM   14  C13 UNL     1      21.347   1.001  49.524  1.00  0.00     0.001 A 
HETATM   15  C14 UNL     1      21.313   1.579  48.274  1.00  0.00     0.000 A 
HETATM   16  C15 UNL     1      22.247   2.519  47.900  1.00  0.00     0.001 A 
HETATM   17  C16 UNL     1      23.205   2.847  48.829  1.00  0.00     0.014 A 
ENDBRANCH   2  12
BRANCH   1  18
HETATM   18  P1  UNL     1      23.495   4.818  52.646  1.00  0.00     0.062 P 
HETATM   19  H3  UNL     1      23.968   5.321  53.930  1.00  0.00     0.089 HD
BRANCH  18  20
HETATM   20  C1  UNL     1      23.630   6.213  51.436  1.00  0.00     0.117 C 
HETATM   21  S1  UNL     1      22.269   6.500  50.584  1.00  0.00    -0.059 SA
BRANCH  20  22
HETATM   22  N1  UNL     1      24.874   6.898  51.351  1.00  0.00    -0.388 N 
HETATM   23  H1  UNL     1      25.624   7.535  51.667  1.00  0.00     0.157 HD
HETATM   24  H2  UNL     1      25.565   6.828  50.566  1.00  0.00     0.157 HD
ENDBRANCH  20  22
ENDBRANCH  18  20
ENDBRANCH   1  18
TORSDOF 6
ENDMDL
MODEL 8
REMARK VINA RESULT:      -7.5      3.726      5.625
REMARK  6 active torsions:
REMARK  status: ('A' for Active; 'I' for Inactive)
REMARK    1  A    between atoms: N1_1  and  C1_2 
REMARK    2  A    between atoms: C1_2  and  P1_4 
REMARK    3  A    between atoms: P1_4  and  N2_5 
REMARK    4  A    between atoms: C2_6  and  C3_7 
REMARK    5  A    between atoms: C2_6  and  C11_16 
REMARK    6  A    between atoms: C4_8  and  C5_9 
ROOT
HETATM    1  N2  UNL     1      25.785   0.045  52.442  1.00  0.00    -0.257 NA
HETATM    2  C2  UNL     1      24.686   0.549  52.618  1.00  0.00     0.066 C 
ENDROOT
BRANCH   2   3
HETATM    3  C3  UNL     1      24.977   1.861  52.114  1.00  0.00     0.033 C 
HETATM    4  C4  UNL     1      24.996   2.707  51.130  1.00  0.00     0.017 C 
BRANCH   4   5
HETATM    5  C5  UNL     1      25.239   3.976  50.488  1.00  0.00     0.003 A 
HETATM    6  C6  UNL     1      24.488   5.081  50.799  1.00  0.00     0.014 A 
HETATM    7  C7  UNL     1      24.820   6.213  50.124  1.00  0.00     0.001 A 
HETATM    8  C8  UNL     1      25.837   6.201  49.208  1.00  0.00     0.003 A 
HETATM    9  C9  UNL     1      26.599   5.103  48.884  1.00  0.00     0.043 A 
HETATM   10  C10 UNL     1      26.281   3.941  49.557  1.00  0.00     0.126 A 
HETATM   11  F1  UNL     1      27.069   2.908  49.188  1.00  0.00    -0.205 F 
ENDBRANCH   4   5
ENDBRANCH   2   3
BRANCH   2  12
HETATM   12  C11 UNL     1      23.476  -0.002  53.164  1.00  0.00    -0.007 A 
HETATM   13  C12 UNL     1      23.616  -0.663  54.361  1.00  0.00     0.014 A 
HETATM   14  C13 UNL     1      22.591  -1.261  55.052  1.00  0.00     0.001 A 
HETATM   15  C14 UNL     1      21.328  -1.197  54.508  1.00  0.00     0.000 A 
HETATM   16  C15 UNL     1      21.101  -0.554  53.311  1.00  0.00     0.001 A 
HETATM   17  C16 UNL     1      22.190   0.015  52.696  1.00  0.00     0.014 A 
ENDBRANCH   2  12
BRANCH   1  18
HETATM   18  P1  UNL     1      26.735  -1.363  52.598  1.00  0.00     0.062 P 
HETATM   19  H3  UNL     1      27.171  -2.019  51.371  1.00  0.00     0.089 HD
BRANCH  18  20
HETATM   20  C1  UNL     1      28.261  -0.948  53.562  1.00  0.00     0.117 C 
HETATM   21  S1  UNL     1      28.176   0.456  54.387  1.00  0.00    -0.059 SA
BRANCH  20  22
HETATM   22  N1  UNL     1      29.349  -1.863  53.503  1.00  0.00    -0.388 N 
HETATM   23  H1  UNL     1      29.834  -2.763  53.649  1.00  0.00     0.157 HD
HETATM   24  H2  UNL     1      30.299  -1.667  53.105  1.00  0.00     0.157 HD
ENDBRANCH  20  22
ENDBRANCH  18  20
ENDBRANCH   1  18
TORSDOF 6
ENDMDL
MODEL 9
REMARK VINA RESULT:      -7.4      4.690      6.231
REMARK  6 active torsions:
REMARK  status: ('A' for Active; 'I' for Inactive)
REMARK    1  A    between atoms: N1_1  and  C1_2 
REMARK    2  A    between atoms: C1_2  and  P1_4 
REMARK    3  A    between atoms: P1_4  and  N2_5 
REMARK    4  A    between atoms: C2_6  and  C3_7 
REMARK    5  A    between atoms: C2_6  and  C11_16 
REMARK    6  A    between atoms: C4_8  and  C5_9 
ROOT
HETATM    1  N2  UNL     1      26.028   1.787  51.382  1.00  0.00    -0.257 NA
HETATM    2  C2  UNL     1      24.936   2.218  51.043  1.00  0.00     0.066 C 
ENDROOT
BRANCH   2   3
HETATM    3  C3  UNL     1      25.385   3.373  50.321  1.00  0.00     0.033 C 
HETATM    4  C4  UNL     1      26.327   4.012  49.697  1.00  0.00     0.017 C 
BRANCH   4   5
HETATM    5  C5  UNL     1      26.914   5.106  48.962  1.00  0.00     0.003 A 
HETATM    6  C6  UNL     1      28.225   5.065  48.559  1.00  0.00     0.014 A 
HETATM    7  C7  UNL     1      28.652   6.158  47.874  1.00  0.00     0.001 A 
HETATM    8  C8  UNL     1      27.800   7.201  47.629  1.00  0.00     0.003 A 
HETATM    9  C9  UNL     1      26.484   7.258  48.026  1.00  0.00     0.043 A 
HETATM   10  C10 UNL     1      26.026   6.158  48.723  1.00  0.00     0.126 A 
HETATM   11  F1  UNL     1      24.729   6.285  49.078  1.00  0.00    -0.205 F 
ENDBRANCH   4   5
ENDBRANCH   2   3
BRANCH   2  12
HETATM   12  C11 UNL     1      23.611   1.721  51.293  1.00  0.00    -0.007 A 
HETATM   13  C12 UNL     1      23.321   1.449  52.609  1.00  0.00     0.014 A 
HETATM   14  C13 UNL     1      22.118   0.968  53.065  1.00  0.00     0.001 A 
HETATM   15  C14 UNL     1      21.126   0.739  52.137  1.00  0.00     0.000 A 
HETATM   16  C15 UNL     1      21.334   0.985  50.798  1.00  0.00     0.001 A 
HETATM   17  C16 UNL     1      22.571   1.467  50.441  1.00  0.00     0.014 A 
ENDBRANCH   2  12
BRANCH   1  18
HETATM   18  P1  UNL     1      26.864   0.559  52.221  1.00  0.00     0.062 P 
HETATM   19  H3  UNL     1      27.887  -0.179  51.491  1.00  0.00     0.089 HD
BRANCH  18  20
HETATM   20  C1  UNL     1      27.689   1.306  53.701  1.00  0.00     0.117 C 
HETATM   21  S1  UNL     1      28.594   0.261  54.568  1.00  0.00    -0.059 SA
BRANCH  20  22
HETATM   22  N1  UNL     1      27.472   2.690  53.953  1.00  0.00    -0.388 N 
HETATM   23  H1  UNL     1      27.148   3.647  53.742  1.00  0.00     0.157 HD
HETATM   24  H2  UNL     1      27.741   3.208  54.823  1.00  0.00     0.157 HD
ENDBRANCH  20  22
ENDBRANCH  18  20
ENDBRANCH   1  18
TORSDOF 6
ENDMDL
