MODEL 1
REMARK VINA RESULT:      -7.3      0.000      0.000
REMARK  10 active torsions:
REMARK  status: ('A' for Active; 'I' for Inactive)
REMARK    1  A    between atoms: O1_2  and  C2_3 
REMARK    2  A    between atoms: C2_3  and  C3_4 
REMARK    3  A    between atoms: C5_7  and  N2_8 
REMARK    4  A    between atoms: N2_8  and  C6_9 
REMARK    5  A    between atoms: C6_9  and  C7_10 
REMARK    6  A    between atoms: C8_11  and  C9_13 
REMARK    7  A    between atoms: C13_19  and  C15_21 
REMARK    8  A    between atoms: C16_22  and  C17_23 
REMARK    9  A    between atoms: C17_23  and  C18_24 
REMARK   10  A    between atoms: C18_24  and  N4_25 
ROOT
HETATM    1  C3  UNL     1      21.926   0.149  53.888  1.00  0.00     0.030 C 
HETATM    2  C4  UNL     1      21.422   0.474  52.712  1.00  0.00     0.075 C 
HETATM    3  N1  UNL     1      20.115  -0.105  52.553  1.00  0.00    -0.233 NA
HETATM    4  C5  UNL     1      19.228   0.110  51.605  1.00  0.00     0.123 C 
HETATM    5  C10 UNL     1      19.164   0.955  50.386  1.00  0.00     0.047 C 
HETATM    6  C11 UNL     1      20.144   1.436  49.611  1.00  0.00    -0.004 C 
HETATM    7  C12 UNL     1      21.588   1.432  49.498  1.00  0.00     0.143 C 
HETATM    8  N3  UNL     1      22.364   0.909  50.520  1.00  0.00    -0.395 N 
HETATM    9  C13 UNL     1      22.298   1.338  51.850  1.00  0.00     0.131 C 
HETATM   10  C14 UNL     1      21.901   2.809  52.035  1.00  0.00     0.060 C 
HETATM   11  H17 UNL     1      23.332   0.677  50.228  1.00  0.00     0.155 HD
ENDROOT
BRANCH   9  12
HETATM   12  C15 UNL     1      23.649   1.224  52.428  1.00  0.00    -0.069 C 
HETATM   13  C16 UNL     1      24.777   1.113  52.897  1.00  0.00    -0.102 C 
BRANCH  13  14
HETATM   14  C17 UNL     1      26.125   0.955  53.450  1.00  0.00     0.111 C 
BRANCH  14  15
HETATM   15  C18 UNL     1      26.681  -0.428  53.157  1.00  0.00     0.133 C 
BRANCH  15  16
HETATM   16  N4  UNL     1      27.837  -0.617  53.996  1.00  0.00    -0.194 NA
HETATM   17  C19 UNL     1      28.853   0.386  53.901  1.00  0.00     0.149 C 
HETATM   18  C20 UNL     1      29.723  -0.822  53.743  1.00  0.00     0.210 C 
HETATM   19  O2  UNL     1      28.617  -1.674  53.668  1.00  0.00    -0.302 OA
ENDBRANCH  15  16
ENDBRANCH  14  15
ENDBRANCH  13  14
ENDBRANCH   9  12
BRANCH   1  20
HETATM   20  C2  UNL     1      21.350  -0.662  54.950  1.00  0.00     0.196 C 
BRANCH  20  21
HETATM   21  O1  UNL     1      22.199  -1.744  55.218  1.00  0.00    -0.392 OA
HETATM   22  C1  UNL     1      23.515  -1.329  55.384  1.00  0.00     0.201 C 
ENDBRANCH  20  21
ENDBRANCH   1  20
BRANCH   4  23
HETATM   23  N2  UNL     1      18.026  -0.619  51.733  1.00  0.00    -0.371 N 
HETATM   24  H7  UNL     1      17.482  -0.928  50.877  1.00  0.00     0.161 HD
BRANCH  23  25
HETATM   25  C6  UNL     1      17.588  -0.911  53.105  1.00  0.00     0.150 C 
BRANCH  25  26
HETATM   26  C7  UNL     1      17.651  -2.349  53.398  1.00  0.00     0.014 C 
HETATM   27  C8  UNL     1      16.710  -3.254  53.144  1.00  0.00     0.038 C 
HETATM   28 CL1  UNL     1      16.879  -4.956  53.533  1.00  0.00    -0.087 Cl
BRANCH  27  29
HETATM   29  C9  UNL     1      15.390  -3.040  52.511  1.00  0.00     0.273 C 
HETATM   30  F1  UNL     1      14.485  -3.983  52.979  1.00  0.00    -0.250 F 
ENDBRANCH  27  29
ENDBRANCH  25  26
ENDBRANCH  23  25
ENDBRANCH   4  23
TORSDOF 10
ENDMDL
MODEL 2
REMARK VINA RESULT:      -7.1      2.966      3.274
REMARK  10 active torsions:
REMARK  status: ('A' for Active; 'I' for Inactive)
REMARK    1  A    between atoms: O1_2  and  C2_3 
REMARK    2  A    between atoms: C2_3  and  C3_4 
REMARK    3  A    between atoms: C5_7  and  N2_8 
REMARK    4  A    between atoms: N2_8  and  C6_9 
REMARK    5  A    between atoms: C6_9  and  C7_10 
REMARK    6  A    between atoms: C8_11  and  C9_13 
REMARK    7  A    between atoms: C13_19  and  C15_21 
REMARK    8  A    between atoms: C16_22  and  C17_23 
REMARK    9  A    between atoms: C17_23  and  C18_24 
REMARK   10  A    between atoms: C18_24  and  N4_25 
ROOT
HETATM    1  C3  UNL     1      21.801   0.574  53.712  1.00  0.00     0.030 C 
HETATM    2  C4  UNL     1      21.530   1.292  52.637  1.00  0.00     0.075 C 
HETATM    3  N1  UNL     1      20.106   1.410  52.464  1.00  0.00    -0.233 NA
HETATM    4  C5  UNL     1      19.439   2.166  51.619  1.00  0.00     0.123 C 
HETATM    5  C10 UNL     1      19.798   3.145  50.562  1.00  0.00     0.047 C 
HETATM    6  C11 UNL     1      20.907   3.254  49.820  1.00  0.00    -0.004 C 
HETATM    7  C12 UNL     1      22.190   2.612  49.622  1.00  0.00     0.143 C 
HETATM    8  N3  UNL     1      22.616   1.624  50.496  1.00  0.00    -0.395 N 
HETATM    9  C13 UNL     1      22.724   1.797  51.880  1.00  0.00     0.131 C 
HETATM   10  C14 UNL     1      23.042   3.231  52.327  1.00  0.00     0.060 C 
HETATM   11  H17 UNL     1      23.376   1.031  50.112  1.00  0.00     0.155 HD
ENDROOT
BRANCH   9  12
HETATM   12  C15 UNL     1      23.858   0.982  52.349  1.00  0.00    -0.069 C 
HETATM   13  C16 UNL     1      24.798   0.310  52.761  1.00  0.00    -0.102 C 
BRANCH  13  14
HETATM   14  C17 UNL     1      25.921  -0.481  53.273  1.00  0.00     0.111 C 
BRANCH  14  15
HETATM   15  C18 UNL     1      26.660   0.264  54.372  1.00  0.00     0.133 C 
BRANCH  15  16
HETATM   16  N4  UNL     1      27.884  -0.451  54.632  1.00  0.00    -0.194 NA
HETATM   17  C19 UNL     1      29.090   0.317  54.549  1.00  0.00     0.149 C 
HETATM   18  C20 UNL     1      29.502  -0.833  53.685  1.00  0.00     0.210 C 
HETATM   19  O2  UNL     1      28.215  -1.378  53.703  1.00  0.00    -0.302 OA
ENDBRANCH  15  16
ENDBRANCH  14  15
ENDBRANCH  13  14
ENDBRANCH   9  12
BRANCH   1  20
HETATM   20  C2  UNL     1      20.893  -0.056  54.658  1.00  0.00     0.196 C 
BRANCH  20  21
HETATM   21  O1  UNL     1      21.373  -1.332  54.980  1.00  0.00    -0.392 OA
HETATM   22  C1  UNL     1      22.740  -1.314  55.230  1.00  0.00     0.201 C 
ENDBRANCH  20  21
ENDBRANCH   1  20
BRANCH   4  23
HETATM   23  N2  UNL     1      18.034   2.056  51.696  1.00  0.00    -0.371 N 
HETATM   24  H7  UNL     1      17.577   1.238  52.193  1.00  0.00     0.161 HD
BRANCH  23  25
HETATM   25  C6  UNL     1      17.263   3.130  51.054  1.00  0.00     0.150 C 
BRANCH  25  26
HETATM   26  C7  UNL     1      16.472   3.888  52.032  1.00  0.00     0.014 C 
HETATM   27  C8  UNL     1      15.302   3.533  52.555  1.00  0.00     0.038 C 
HETATM   28 CL1  UNL     1      14.431   4.510  53.721  1.00  0.00    -0.087 Cl
BRANCH  27  29
HETATM   29  C9  UNL     1      14.523   2.304  52.286  1.00  0.00     0.273 C 
HETATM   30  F1  UNL     1      15.066   1.238  52.992  1.00  0.00    -0.250 F 
ENDBRANCH  27  29
ENDBRANCH  25  26
ENDBRANCH  23  25
ENDBRANCH   4  23
TORSDOF 10
ENDMDL
MODEL 3
REMARK VINA RESULT:      -7.0      4.273      8.528
REMARK  10 active torsions:
REMARK  status: ('A' for Active; 'I' for Inactive)
REMARK    1  A    between atoms: O1_2  and  C2_3 
REMARK    2  A    between atoms: C2_3  and  C3_4 
REMARK    3  A    between atoms: C5_7  and  N2_8 
REMARK    4  A    between atoms: N2_8  and  C6_9 
REMARK    5  A    between atoms: C6_9  and  C7_10 
REMARK    6  A    between atoms: C8_11  and  C9_13 
REMARK    7  A    between atoms: C13_19  and  C15_21 
REMARK    8  A    between atoms: C16_22  and  C17_23 
REMARK    9  A    between atoms: C17_23  and  C18_24 
REMARK   10  A    between atoms: C18_24  and  N4_25 
ROOT
HETATM    1  C3  UNL     1      22.321   0.010  52.495  1.00  0.00     0.030 C 
HETATM    2  C4  UNL     1      22.579   1.099  51.796  1.00  0.00     0.075 C 
HETATM    3  N1  UNL     1      23.886   1.603  52.125  1.00  0.00    -0.233 NA
HETATM    4  C5  UNL     1      24.570   2.564  51.541  1.00  0.00     0.123 C 
HETATM    5  C10 UNL     1      24.341   3.480  50.395  1.00  0.00     0.047 C 
HETATM    6  C11 UNL     1      23.201   3.934  49.860  1.00  0.00    -0.004 C 
HETATM    7  C12 UNL     1      21.766   3.837  50.031  1.00  0.00     0.143 C 
HETATM    8  N3  UNL     1      21.233   2.912  50.914  1.00  0.00    -0.395 N 
HETATM    9  C13 UNL     1      21.491   1.538  50.859  1.00  0.00     0.131 C 
HETATM   10  C14 UNL     1      21.778   0.992  49.453  1.00  0.00     0.060 C 
HETATM   11  H17 UNL     1      20.253   3.119  51.189  1.00  0.00     0.155 HD
ENDROOT
BRANCH   9  12
HETATM   12  C15 UNL     1      20.278   0.833  51.310  1.00  0.00    -0.069 C 
HETATM   13  C16 UNL     1      19.257   0.259  51.673  1.00  0.00    -0.102 C 
BRANCH  13  14
HETATM   14  C17 UNL     1      18.023  -0.407  52.102  1.00  0.00     0.111 C 
BRANCH  14  15
HETATM   15  C18 UNL     1      16.867  -0.071  51.175  1.00  0.00     0.133 C 
BRANCH  15  16
HETATM   16  N4  UNL     1      15.646  -0.364  51.882  1.00  0.00    -0.194 NA
HETATM   17  C19 UNL     1      14.506   0.421  51.518  1.00  0.00     0.149 C 
HETATM   18  C20 UNL     1      14.422   0.589  53.002  1.00  0.00     0.210 C 
HETATM   19  O2  UNL     1      15.654  -0.044  53.197  1.00  0.00    -0.302 OA
ENDBRANCH  15  16
ENDBRANCH  14  15
ENDBRANCH  13  14
ENDBRANCH   9  12
BRANCH   1  20
HETATM   20  C2  UNL     1      23.146  -0.678  53.478  1.00  0.00     0.196 C 
BRANCH  20  21
HETATM   21  O1  UNL     1      22.406  -0.864  54.653  1.00  0.00    -0.392 OA
HETATM   22  C1  UNL     1      21.206  -1.518  54.401  1.00  0.00     0.201 C 
ENDBRANCH  20  21
ENDBRANCH   1  20
BRANCH   4  23
HETATM   23  N2  UNL     1      25.837   2.826  52.104  1.00  0.00    -0.371 N 
HETATM   24  H7  UNL     1      26.566   3.383  51.572  1.00  0.00     0.161 HD
BRANCH  23  25
HETATM   25  C6  UNL     1      26.072   2.285  53.450  1.00  0.00     0.150 C 
BRANCH  25  26
HETATM   26  C7  UNL     1      27.451   1.807  53.608  1.00  0.00     0.014 C 
HETATM   27  C8  UNL     1      27.910   0.592  53.322  1.00  0.00     0.038 C 
HETATM   28 CL1  UNL     1      29.583   0.116  53.547  1.00  0.00    -0.087 Cl
BRANCH  27  29
HETATM   29  C9  UNL     1      27.156  -0.560  52.779  1.00  0.00     0.273 C 
HETATM   30  F1  UNL     1      26.759  -0.291  51.476  1.00  0.00    -0.250 F 
ENDBRANCH  27  29
ENDBRANCH  25  26
ENDBRANCH  23  25
ENDBRANCH   4  23
TORSDOF 10
ENDMDL
MODEL 4
REMARK VINA RESULT:      -7.0      5.547      9.034
REMARK  10 active torsions:
REMARK  status: ('A' for Active; 'I' for Inactive)
REMARK    1  A    between atoms: O1_2  and  C2_3 
REMARK    2  A    between atoms: C2_3  and  C3_4 
REMARK    3  A    between atoms: C5_7  and  N2_8 
REMARK    4  A    between atoms: N2_8  and  C6_9 
REMARK    5  A    between atoms: C6_9  and  C7_10 
REMARK    6  A    between atoms: C8_11  and  C9_13 
REMARK    7  A    between atoms: C13_19  and  C15_21 
REMARK    8  A    between atoms: C16_22  and  C17_23 
REMARK    9  A    between atoms: C17_23  and  C18_24 
REMARK   10  A    between atoms: C18_24  and  N4_25 
ROOT
HETATM    1  C3  UNL     1      25.032   2.365  50.851  1.00  0.00     0.030 C 
HETATM    2  C4  UNL     1      24.178   1.651  51.560  1.00  0.00     0.075 C 
HETATM    3  N1  UNL     1      24.885   0.805  52.486  1.00  0.00    -0.233 NA
HETATM    4  C5  UNL     1      24.403   0.071  53.466  1.00  0.00     0.123 C 
HETATM    5  C10 UNL     1      23.052  -0.203  54.017  1.00  0.00     0.047 C 
HETATM    6  C11 UNL     1      21.848  -0.149  53.434  1.00  0.00    -0.004 C 
HETATM    7  C12 UNL     1      21.235   0.149  52.156  1.00  0.00     0.143 C 
HETATM    8  N3  UNL     1      21.992   0.695  51.131  1.00  0.00    -0.395 N 
HETATM    9  C13 UNL     1      22.727   1.879  51.247  1.00  0.00     0.131 C 
HETATM   10  C14 UNL     1      22.149   2.903  52.234  1.00  0.00     0.060 C 
HETATM   11  H17 UNL     1      21.557   0.590  50.194  1.00  0.00     0.155 HD
ENDROOT
BRANCH   9  12
HETATM   12  C15 UNL     1      22.711   2.550  49.936  1.00  0.00    -0.069 C 
HETATM   13  C16 UNL     1      22.676   3.108  48.844  1.00  0.00    -0.102 C 
BRANCH  13  14
HETATM   14  C17 UNL     1      22.612   3.764  47.534  1.00  0.00     0.111 C 
BRANCH  14  15
HETATM   15  C18 UNL     1      21.196   3.758  46.986  1.00  0.00     0.133 C 
BRANCH  15  16
HETATM   16  N4  UNL     1      21.238   4.344  45.669  1.00  0.00    -0.194 NA
HETATM   17  C19 UNL     1      19.970   4.604  45.057  1.00  0.00     0.149 C 
HETATM   18  C20 UNL     1      20.619   3.881  43.919  1.00  0.00     0.210 C 
HETATM   19  O2  UNL     1      21.728   3.537  44.699  1.00  0.00    -0.302 OA
ENDBRANCH  15  16
ENDBRANCH  14  15
ENDBRANCH  13  14
ENDBRANCH   9  12
BRANCH   1  20
HETATM   20  C2  UNL     1      26.486   2.388  50.900  1.00  0.00     0.196 C 
BRANCH  20  21
HETATM   21  O1  UNL     1      26.946   3.609  50.391  1.00  0.00    -0.392 OA
HETATM   22  C1  UNL     1      26.158   4.050  49.334  1.00  0.00     0.201 C 
ENDBRANCH  20  21
ENDBRANCH   1  20
BRANCH   4  23
HETATM   23  N2  UNL     1      25.364  -0.652  54.202  1.00  0.00    -0.371 N 
HETATM   24  H7  UNL     1      25.299  -1.706  54.298  1.00  0.00     0.161 HD
BRANCH  23  25
HETATM   25  C6  UNL     1      26.441   0.140  54.815  1.00  0.00     0.150 C 
BRANCH  25  26
HETATM   26  C7  UNL     1      27.765  -0.313  54.372  1.00  0.00     0.014 C 
HETATM   27  C8  UNL     1      28.765   0.451  53.943  1.00  0.00     0.038 C 
HETATM   28 CL1  UNL     1      30.317  -0.187  53.433  1.00  0.00    -0.087 Cl
BRANCH  27  29
HETATM   29  C9  UNL     1      28.790   1.925  53.811  1.00  0.00     0.273 C 
HETATM   30  F1  UNL     1      29.701   2.463  54.711  1.00  0.00    -0.250 F 
ENDBRANCH  27  29
ENDBRANCH  25  26
ENDBRANCH  23  25
ENDBRANCH   4  23
TORSDOF 10
ENDMDL
MODEL 5
REMARK VINA RESULT:      -6.9      1.633      1.720
REMARK  10 active torsions:
REMARK  status: ('A' for Active; 'I' for Inactive)
REMARK    1  A    between atoms: O1_2  and  C2_3 
REMARK    2  A    between atoms: C2_3  and  C3_4 
REMARK    3  A    between atoms: C5_7  and  N2_8 
REMARK    4  A    between atoms: N2_8  and  C6_9 
REMARK    5  A    between atoms: C6_9  and  C7_10 
REMARK    6  A    between atoms: C8_11  and  C9_13 
REMARK    7  A    between atoms: C13_19  and  C15_21 
REMARK    8  A    between atoms: C16_22  and  C17_23 
REMARK    9  A    between atoms: C17_23  and  C18_24 
REMARK   10  A    between atoms: C18_24  and  N4_25 
ROOT
HETATM    1  C3  UNL     1      22.390  -0.386  53.227  1.00  0.00     0.030 C 
HETATM    2  C4  UNL     1      21.820   0.347  52.288  1.00  0.00     0.075 C 
HETATM    3  N1  UNL     1      20.462  -0.081  52.080  1.00  0.00    -0.233 NA
HETATM    4  C5  UNL     1      19.521   0.487  51.357  1.00  0.00     0.123 C 
HETATM    5  C10 UNL     1      19.425   1.702  50.508  1.00  0.00     0.047 C 
HETATM    6  C11 UNL     1      20.374   2.373  49.843  1.00  0.00    -0.004 C 
HETATM    7  C12 UNL     1      21.799   2.340  49.587  1.00  0.00     0.143 C 
HETATM    8  N3  UNL     1      22.611   1.463  50.287  1.00  0.00    -0.395 N 
HETATM    9  C13 UNL     1      22.689   1.412  51.683  1.00  0.00     0.131 C 
HETATM   10  C14 UNL     1      22.426   2.747  52.392  1.00  0.00     0.060 C 
HETATM   11  H17 UNL     1      23.532   1.300  49.835  1.00  0.00     0.155 HD
ENDROOT
BRANCH   9  12
HETATM   12  C15 UNL     1      24.068   1.044  52.045  1.00  0.00    -0.069 C 
HETATM   13  C16 UNL     1      25.218   0.756  52.360  1.00  0.00    -0.102 C 
BRANCH  13  14
HETATM   14  C17 UNL     1      26.597   0.435  52.740  1.00  0.00     0.111 C 
BRANCH  14  15
HETATM   15  C18 UNL     1      26.748  -1.042  53.062  1.00  0.00     0.133 C 
BRANCH  15  16
HETATM   16  N4  UNL     1      27.924  -1.189  53.882  1.00  0.00    -0.194 NA
HETATM   17  C19 UNL     1      28.790  -0.051  53.949  1.00  0.00     0.149 C 
HETATM   18  C20 UNL     1      29.819  -1.091  53.631  1.00  0.00     0.210 C 
HETATM   19  O2  UNL     1      28.842  -2.068  53.416  1.00  0.00    -0.302 OA
ENDBRANCH  15  16
ENDBRANCH  14  15
ENDBRANCH  13  14
ENDBRANCH   9  12
BRANCH   1  20
HETATM   20  C2  UNL     1      21.840  -1.484  54.007  1.00  0.00     0.196 C 
BRANCH  20  21
HETATM   21  O1  UNL     1      22.253  -1.358  55.339  1.00  0.00    -0.392 OA
HETATM   22  C1  UNL     1      23.637  -1.274  55.438  1.00  0.00     0.201 C 
ENDBRANCH  20  21
ENDBRANCH   1  20
BRANCH   4  23
HETATM   23  N2  UNL     1      18.279  -0.184  51.355  1.00  0.00    -0.371 N 
HETATM   24  H7  UNL     1      17.678  -0.217  50.482  1.00  0.00     0.161 HD
BRANCH  23  25
HETATM   25  C6  UNL     1      17.884  -0.819  52.620  1.00  0.00     0.150 C 
BRANCH  25  26
HETATM   26  C7  UNL     1      16.590  -1.502  52.502  1.00  0.00     0.014 C 
HETATM   27  C8  UNL     1      15.386  -0.940  52.551  1.00  0.00     0.038 C 
HETATM   28 CL1  UNL     1      13.891  -1.845  52.399  1.00  0.00    -0.087 Cl
BRANCH  27  29
HETATM   29  C9  UNL     1      15.059   0.492  52.733  1.00  0.00     0.273 C 
HETATM   30  F1  UNL     1      15.080   1.139  51.504  1.00  0.00    -0.250 F 
ENDBRANCH  27  29
ENDBRANCH  25  26
ENDBRANCH  23  25
ENDBRANCH   4  23
TORSDOF 10
ENDMDL
MODEL 6
REMARK VINA RESULT:      -6.8      3.442      4.313
REMARK  10 active torsions:
REMARK  status: ('A' for Active; 'I' for Inactive)
REMARK    1  A    between atoms: O1_2  and  C2_3 
REMARK    2  A    between atoms: C2_3  and  C3_4 
REMARK    3  A    between atoms: C5_7  and  N2_8 
REMARK    4  A    between atoms: N2_8  and  C6_9 
REMARK    5  A    between atoms: C6_9  and  C7_10 
REMARK    6  A    between atoms: C8_11  and  C9_13 
REMARK    7  A    between atoms: C13_19  and  C15_21 
REMARK    8  A    between atoms: C16_22  and  C17_23 
REMARK    9  A    between atoms: C17_23  and  C18_24 
REMARK   10  A    between atoms: C18_24  and  N4_25 
ROOT
HETATM    1  C3  UNL     1      22.656   2.564  52.430  1.00  0.00     0.030 C 
HETATM    2  C4  UNL     1      21.477   1.985  52.294  1.00  0.00     0.075 C 
HETATM    3  N1  UNL     1      20.462   2.976  52.053  1.00  0.00    -0.233 NA
HETATM    4  C5  UNL     1      19.204   2.801  51.710  1.00  0.00     0.123 C 
HETATM    5  C10 UNL     1      18.333   1.628  51.442  1.00  0.00     0.047 C 
HETATM    6  C11 UNL     1      18.413   0.367  51.885  1.00  0.00    -0.004 C 
HETATM    7  C12 UNL     1      19.232  -0.471  52.735  1.00  0.00     0.143 C 
HETATM    8  N3  UNL     1      20.439   0.002  53.225  1.00  0.00    -0.395 N 
HETATM    9  C13 UNL     1      21.474   0.489  52.419  1.00  0.00     0.131 C 
HETATM   10  C14 UNL     1      21.550  -0.139  51.020  1.00  0.00     0.060 C 
HETATM   11  H17 UNL     1      20.793  -0.532  54.042  1.00  0.00     0.155 HD
ENDROOT
BRANCH   9  12
HETATM   12  C15 UNL     1      22.751   0.147  53.069  1.00  0.00    -0.069 C 
HETATM   13  C16 UNL     1      23.807  -0.128  53.628  1.00  0.00    -0.102 C 
BRANCH  13  14
HETATM   14  C17 UNL     1      25.065  -0.439  54.314  1.00  0.00     0.111 C 
BRANCH  14  15
HETATM   15  C18 UNL     1      26.231  -0.455  53.339  1.00  0.00     0.133 C 
BRANCH  15  16
HETATM   16  N4  UNL     1      27.404  -0.859  54.074  1.00  0.00    -0.194 NA
HETATM   17  C19 UNL     1      28.299   0.191  54.455  1.00  0.00     0.149 C 
HETATM   18  C20 UNL     1      29.300  -0.740  53.845  1.00  0.00     0.210 C 
HETATM   19  O2  UNL     1      28.298  -1.591  53.368  1.00  0.00    -0.302 OA
ENDBRANCH  15  16
ENDBRANCH  14  15
ENDBRANCH  13  14
ENDBRANCH   9  12
BRANCH   1  20
HETATM   20  C2  UNL     1      23.010   3.974  52.367  1.00  0.00     0.196 C 
BRANCH  20  21
HETATM   21  O1  UNL     1      24.102   4.139  51.505  1.00  0.00    -0.392 OA
HETATM   22  C1  UNL     1      24.951   3.039  51.543  1.00  0.00     0.201 C 
ENDBRANCH  20  21
ENDBRANCH   1  20
BRANCH   4  23
HETATM   23  N2  UNL     1      18.457   3.986  51.546  1.00  0.00    -0.371 N 
HETATM   24  H7  UNL     1      18.901   4.937  51.695  1.00  0.00     0.161 HD
BRANCH  23  25
HETATM   25  C6  UNL     1      17.048   3.815  51.162  1.00  0.00     0.150 C 
BRANCH  25  26
HETATM   26  C7  UNL     1      16.140   4.362  52.179  1.00  0.00     0.014 C 
HETATM   27  C8  UNL     1      15.042   3.784  52.658  1.00  0.00     0.038 C 
HETATM   28 CL1  UNL     1      14.019   4.521  53.877  1.00  0.00    -0.087 Cl
BRANCH  27  29
HETATM   29  C9  UNL     1      14.474   2.468  52.292  1.00  0.00     0.273 C 
HETATM   30  F1  UNL     1      15.220   1.454  52.878  1.00  0.00    -0.250 F 
ENDBRANCH  27  29
ENDBRANCH  25  26
ENDBRANCH  23  25
ENDBRANCH   4  23
TORSDOF 10
ENDMDL
MODEL 7
REMARK VINA RESULT:      -6.8      5.735      9.276
REMARK  10 active torsions:
REMARK  status: ('A' for Active; 'I' for Inactive)
REMARK    1  A    between atoms: O1_2  and  C2_3 
REMARK    2  A    between atoms: C2_3  and  C3_4 
REMARK    3  A    between atoms: C5_7  and  N2_8 
REMARK    4  A    between atoms: N2_8  and  C6_9 
REMARK    5  A    between atoms: C6_9  and  C7_10 
REMARK    6  A    between atoms: C8_11  and  C9_13 
REMARK    7  A    between atoms: C13_19  and  C15_21 
REMARK    8  A    between atoms: C16_22  and  C17_23 
REMARK    9  A    between atoms: C17_23  and  C18_24 
REMARK   10  A    between atoms: C18_24  and  N4_25 
ROOT
HETATM    1  C3  UNL     1      24.358   4.892  49.827  1.00  0.00     0.030 C 
HETATM    2  C4  UNL     1      24.017   3.836  50.542  1.00  0.00     0.075 C 
HETATM    3  N1  UNL     1      25.066   3.506  51.471  1.00  0.00    -0.233 NA
HETATM    4  C5  UNL     1      25.050   2.633  52.456  1.00  0.00     0.123 C 
HETATM    5  C10 UNL     1      24.054   1.682  53.011  1.00  0.00     0.047 C 
HETATM    6  C11 UNL     1      23.009   1.080  52.430  1.00  0.00    -0.004 C 
HETATM    7  C12 UNL     1      22.333   0.997  51.151  1.00  0.00     0.143 C 
HETATM    8  N3  UNL     1      22.682   1.857  50.123  1.00  0.00    -0.395 N 
HETATM    9  C13 UNL     1      22.670   3.252  50.230  1.00  0.00     0.131 C 
HETATM   10  C14 UNL     1      21.632   3.813  51.212  1.00  0.00     0.060 C 
HETATM   11  H17 UNL     1      22.373   1.531  49.187  1.00  0.00     0.155 HD
ENDROOT
BRANCH   9  12
HETATM   12  C15 UNL     1      22.299   3.803  48.915  1.00  0.00    -0.069 C 
HETATM   13  C16 UNL     1      21.970   4.253  47.823  1.00  0.00    -0.102 C 
BRANCH  13  14
HETATM   14  C17 UNL     1      21.560   4.775  46.516  1.00  0.00     0.111 C 
BRANCH  14  15
HETATM   15  C18 UNL     1      21.936   3.816  45.399  1.00  0.00     0.133 C 
BRANCH  15  16
HETATM   16  N4  UNL     1      21.373   4.332  44.177  1.00  0.00    -0.194 NA
HETATM   17  C19 UNL     1      20.277   5.240  44.325  1.00  0.00     0.149 C 
HETATM   18  C20 UNL     1      19.664   4.319  43.317  1.00  0.00     0.210 C 
HETATM   19  O2  UNL     1      20.730   3.419  43.412  1.00  0.00    -0.302 OA
ENDBRANCH  15  16
ENDBRANCH  14  15
ENDBRANCH  13  14
ENDBRANCH   9  12
BRANCH   1  20
HETATM   20  C2  UNL     1      25.574   5.690  49.873  1.00  0.00     0.196 C 
BRANCH  20  21
HETATM   21  O1  UNL     1      26.266   5.550  48.663  1.00  0.00    -0.392 OA
HETATM   22  C1  UNL     1      27.314   4.644  48.778  1.00  0.00     0.201 C 
ENDBRANCH  20  21
ENDBRANCH   1  20
BRANCH   4  23
HETATM   23  N2  UNL     1      26.248   2.541  53.194  1.00  0.00    -0.371 N 
HETATM   24  H7  UNL     1      27.047   3.217  53.026  1.00  0.00     0.161 HD
BRANCH  23  25
HETATM   25  C6  UNL     1      26.312   1.463  54.192  1.00  0.00     0.150 C 
BRANCH  25  26
HETATM   26  C7  UNL     1      27.607   0.771  54.159  1.00  0.00     0.014 C 
HETATM   27  C8  UNL     1      27.898  -0.339  53.486  1.00  0.00     0.038 C 
HETATM   28 CL1  UNL     1      29.481  -1.093  53.510  1.00  0.00    -0.087 Cl
BRANCH  27  29
HETATM   29  C9  UNL     1      27.004  -1.136  52.618  1.00  0.00     0.273 C 
HETATM   30  F1  UNL     1      26.644  -0.391  51.503  1.00  0.00    -0.250 F 
ENDBRANCH  27  29
ENDBRANCH  25  26
ENDBRANCH  23  25
ENDBRANCH   4  23
TORSDOF 10
ENDMDL
MODEL 8
REMARK VINA RESULT:      -6.7      4.926      6.641
REMARK  10 active torsions:
REMARK  status: ('A' for Active; 'I' for Inactive)
REMARK    1  A    between atoms: O1_2  and  C2_3 
REMARK    2  A    between atoms: C2_3  and  C3_4 
REMARK    3  A    between atoms: C5_7  and  N2_8 
REMARK    4  A    between atoms: N2_8  and  C6_9 
REMARK    5  A    between atoms: C6_9  and  C7_10 
REMARK    6  A    between atoms: C8_11  and  C9_13 
REMARK    7  A    between atoms: C13_19  and  C15_21 
REMARK    8  A    between atoms: C16_22  and  C17_23 
REMARK    9  A    between atoms: C17_23  and  C18_24 
REMARK   10  A    between atoms: C18_24  and  N4_25 
ROOT
HETATM    1  C3  UNL     1      23.532   2.358  50.258  1.00  0.00     0.030 C 
HETATM    2  C4  UNL     1      24.174   1.926  51.328  1.00  0.00     0.075 C 
HETATM    3  N1  UNL     1      23.436   0.860  51.953  1.00  0.00    -0.233 NA
HETATM    4  C5  UNL     1      23.807   0.067  52.934  1.00  0.00     0.123 C 
HETATM    5  C10 UNL     1      25.026  -0.086  53.770  1.00  0.00     0.047 C 
HETATM    6  C11 UNL     1      25.969   0.804  54.101  1.00  0.00    -0.004 C 
HETATM    7  C12 UNL     1      26.319   2.194  53.897  1.00  0.00     0.143 C 
HETATM    8  N3  UNL     1      25.618   2.960  52.978  1.00  0.00    -0.395 N 
HETATM    9  C13 UNL     1      25.471   2.621  51.628  1.00  0.00     0.131 C 
HETATM   10  C14 UNL     1      26.632   1.810  51.036  1.00  0.00     0.060 C 
HETATM   11  H17 UNL     1      25.732   3.982  53.118  1.00  0.00     0.155 HD
ENDROOT
BRANCH   9  12
HETATM   12  C15 UNL     1      25.434   3.872  50.851  1.00  0.00    -0.069 C 
HETATM   13  C16 UNL     1      25.423   4.908  50.195  1.00  0.00    -0.102 C 
BRANCH  13  14
HETATM   14  C17 UNL     1      25.434   6.147  49.411  1.00  0.00     0.111 C 
BRANCH  14  15
HETATM   15  C18 UNL     1      25.490   7.368  50.314  1.00  0.00     0.133 C 
BRANCH  15  16
HETATM   16  N4  UNL     1      26.194   8.403  49.600  1.00  0.00    -0.194 NA
HETATM   17  C19 UNL     1      27.515   8.074  49.157  1.00  0.00     0.149 C 
HETATM   18  C20 UNL     1      27.824   9.382  49.816  1.00  0.00     0.210 C 
HETATM   19  O2  UNL     1      26.533   9.483  50.343  1.00  0.00    -0.302 OA
ENDBRANCH  15  16
ENDBRANCH  14  15
ENDBRANCH  13  14
ENDBRANCH   9  12
BRANCH   1  20
HETATM   20  C2  UNL     1      22.269   1.911  49.691  1.00  0.00     0.196 C 
BRANCH  20  21
HETATM   21  O1  UNL     1      22.185   2.332  48.358  1.00  0.00    -0.392 OA
HETATM   22  C1  UNL     1      22.525   3.673  48.225  1.00  0.00     0.201 C 
ENDBRANCH  20  21
ENDBRANCH   1  20
BRANCH   4  23
HETATM   23  N2  UNL     1      22.848  -0.890  53.327  1.00  0.00    -0.371 N 
HETATM   24  H7  UNL     1      22.819  -1.850  52.878  1.00  0.00     0.161 HD
BRANCH  23  25
HETATM   25  C6  UNL     1      21.910  -0.473  54.380  1.00  0.00     0.150 C 
BRANCH  25  26
HETATM   26  C7  UNL     1      20.549  -0.954  54.114  1.00  0.00     0.014 C 
HETATM   27  C8  UNL     1      19.667  -0.421  53.273  1.00  0.00     0.038 C 
HETATM   28 CL1  UNL     1      18.058  -1.071  53.023  1.00  0.00    -0.087 Cl
BRANCH  27  29
HETATM   29  C9  UNL     1      19.838   0.770  52.411  1.00  0.00     0.273 C 
HETATM   30  F1  UNL     1      20.220   1.859  53.183  1.00  0.00    -0.250 F 
ENDBRANCH  27  29
ENDBRANCH  25  26
ENDBRANCH  23  25
ENDBRANCH   4  23
TORSDOF 10
ENDMDL
MODEL 9
REMARK VINA RESULT:      -6.7      2.388      3.093
REMARK  10 active torsions:
REMARK  status: ('A' for Active; 'I' for Inactive)
REMARK    1  A    between atoms: O1_2  and  C2_3 
REMARK    2  A    between atoms: C2_3  and  C3_4 
REMARK    3  A    between atoms: C5_7  and  N2_8 
REMARK    4  A    between atoms: N2_8  and  C6_9 
REMARK    5  A    between atoms: C6_9  and  C7_10 
REMARK    6  A    between atoms: C8_11  and  C9_13 
REMARK    7  A    between atoms: C13_19  and  C15_21 
REMARK    8  A    between atoms: C16_22  and  C17_23 
REMARK    9  A    between atoms: C17_23  and  C18_24 
REMARK   10  A    between atoms: C18_24  and  N4_25 
ROOT
HETATM    1  C3  UNL     1      23.434   0.837  52.529  1.00  0.00     0.030 C 
HETATM    2  C4  UNL     1      23.268   1.659  51.509  1.00  0.00     0.075 C 
HETATM    3  N1  UNL     1      22.156   1.230  50.702  1.00  0.00    -0.233 NA
HETATM    4  C5  UNL     1      21.574   1.857  49.702  1.00  0.00     0.123 C 
HETATM    5  C10 UNL     1      21.769   3.156  49.010  1.00  0.00     0.047 C 
HETATM    6  C11 UNL     1      22.863   3.916  48.879  1.00  0.00    -0.004 C 
HETATM    7  C12 UNL     1      24.262   3.939  49.254  1.00  0.00     0.143 C 
HETATM    8  N3  UNL     1      24.757   3.005  50.150  1.00  0.00    -0.395 N 
HETATM    9  C13 UNL     1      24.241   2.801  51.434  1.00  0.00     0.131 C 
HETATM   10  C14 UNL     1      23.616   4.044  52.083  1.00  0.00     0.060 C 
HETATM   11  H17 UNL     1      25.791   2.911  50.121  1.00  0.00     0.155 HD
ENDROOT
BRANCH   9  12
HETATM   12  C15 UNL     1      25.358   2.421  52.315  1.00  0.00    -0.069 C 
HETATM   13  C16 UNL     1      26.297   2.093  53.033  1.00  0.00    -0.102 C 
BRANCH  13  14
HETATM   14  C17 UNL     1      27.423   1.681  53.878  1.00  0.00     0.111 C 
BRANCH  14  15
HETATM   15  C18 UNL     1      27.163   0.327  54.516  1.00  0.00     0.133 C 
BRANCH  15  16
HETATM   16  N4  UNL     1      28.424  -0.367  54.587  1.00  0.00    -0.194 NA
HETATM   17  C19 UNL     1      29.527   0.266  53.930  1.00  0.00     0.149 C 
HETATM   18  C20 UNL     1      29.680  -1.103  53.345  1.00  0.00     0.210 C 
HETATM   19  O2  UNL     1      28.474  -1.535  53.905  1.00  0.00    -0.302 OA
ENDBRANCH  15  16
ENDBRANCH  14  15
ENDBRANCH  13  14
ENDBRANCH   9  12
BRANCH   1  20
HETATM   20  C2  UNL     1      22.679  -0.351  52.895  1.00  0.00     0.196 C 
BRANCH  20  21
HETATM   21  O1  UNL     1      21.885  -0.069  54.014  1.00  0.00    -0.392 OA
HETATM   22  C1  UNL     1      20.573  -0.488  53.827  1.00  0.00     0.201 C 
ENDBRANCH  20  21
ENDBRANCH   1  20
BRANCH   4  23
HETATM   23  N2  UNL     1      20.496   1.167  49.108  1.00  0.00    -0.371 N 
HETATM   24  H7  UNL     1      20.661   0.456  48.340  1.00  0.00     0.161 HD
BRANCH  23  25
HETATM   25  C6  UNL     1      19.157   1.496  49.617  1.00  0.00     0.150 C 
BRANCH  25  26
HETATM   26  C7  UNL     1      18.786   0.645  50.754  1.00  0.00     0.014 C 
HETATM   27  C8  UNL     1      17.697  -0.111  50.860  1.00  0.00     0.038 C 
HETATM   28 CL1  UNL     1      17.340  -1.098  52.265  1.00  0.00    -0.087 Cl
BRANCH  27  29
HETATM   29  C9  UNL     1      16.608  -0.280  49.871  1.00  0.00     0.273 C 
HETATM   30  F1  UNL     1      15.775   0.830  49.896  1.00  0.00    -0.250 F 
ENDBRANCH  27  29
ENDBRANCH  25  26
ENDBRANCH  23  25
ENDBRANCH   4  23
TORSDOF 10
ENDMDL
