MODEL 1
REMARK VINA RESULT:      -8.4      0.000      0.000
REMARK  7 active torsions:
REMARK  status: ('A' for Active; 'I' for Inactive)
REMARK    1  A    between atoms: N1_7  and  C7_8 
REMARK    2  A    between atoms: C7_8  and  N2_10 
REMARK    3  A    between atoms: N2_10  and  C8_11 
REMARK    4  A    between atoms: N2_10  and  C14_18 
REMARK    5  A    between atoms: C8_11  and  C9_12 
REMARK    6  A    between atoms: C14_18  and  C15_19 
REMARK    7  A    between atoms: C20_25  and  O1_26 
ROOT
HETATM    1  N2  UNL     1      24.431   1.733  51.640  1.00  0.00    -0.350 N 
ENDROOT
BRANCH   1   2
HETATM    2  C7  UNL     1      24.213   2.615  50.519  1.00  0.00     0.177 C 
HETATM    3  S1  UNL     1      22.751   2.357  49.796  1.00  0.00    -0.040 SA
BRANCH   2   4
HETATM    4  N1  UNL     1      24.967   3.679  49.955  1.00  0.00    -0.326 N 
HETATM    5  C2  UNL     1      24.485   5.044  49.698  1.00  0.00     0.110 A 
HETATM    6  C1  UNL     1      24.162   5.726  51.028  1.00  0.00     0.037 C 
HETATM    7  C3  UNL     1      25.558   5.873  49.097  1.00  0.00    -0.002 A 
HETATM    8  C4  UNL     1      26.802   5.640  48.774  1.00  0.00    -0.001 A 
HETATM    9  C5  UNL     1      27.206   4.281  49.069  1.00  0.00     0.017 A 
HETATM   10  C6  UNL     1      26.325   3.487  49.591  1.00  0.00     0.094 A 
ENDBRANCH   2   4
ENDBRANCH   1   2
BRANCH   1  11
HETATM   11  C8  UNL     1      23.602   2.058  52.830  1.00  0.00     0.160 C 
BRANCH  11  12
HETATM   12  C9  UNL     1      22.880   0.832  53.326  1.00  0.00    -0.056 A 
HETATM   13  C10 UNL     1      21.555   0.864  53.045  1.00  0.00     0.007 A 
HETATM   14  C11 UNL     1      20.788  -0.286  53.495  1.00  0.00     0.038 A 
HETATM   15  C12 UNL     1      21.695  -1.043  54.071  1.00  0.00     0.098 A 
HETATM   16  F1  UNL     1      21.574  -2.267  54.689  1.00  0.00    -0.211 F 
HETATM   17  C13 UNL     1      23.078  -0.454  54.029  1.00  0.00     0.105 A 
ENDBRANCH  11  12
ENDBRANCH   1  11
BRANCH   1  18
HETATM   18  C14 UNL     1      25.219   0.600  52.030  1.00  0.00     0.167 C 
BRANCH  18  19
HETATM   19  C15 UNL     1      26.529   0.841  52.621  1.00  0.00    -0.005 A 
HETATM   20  C16 UNL     1      27.082   2.073  52.932  1.00  0.00     0.012 A 
HETATM   21  C17 UNL     1      28.323   2.370  53.448  1.00  0.00     0.002 A 
HETATM   22  C18 UNL     1      29.151   1.297  53.695  1.00  0.00     0.026 A 
HETATM   23  C19 UNL     1      28.713   0.012  53.425  1.00  0.00     0.067 A 
HETATM   24 CL1  UNL     1      29.834  -1.267  53.773  1.00  0.00    -0.081 Cl
HETATM   25  C20 UNL     1      27.454  -0.165  52.912  1.00  0.00     0.095 A 
BRANCH  25  26
HETATM   26  O1  UNL     1      27.155  -1.492  52.695  1.00  0.00    -0.358 OA
HETATM   27  H20 UNL     1      26.900  -1.734  51.727  1.00  0.00     0.217 HD
ENDBRANCH  25  26
ENDBRANCH  18  19
ENDBRANCH   1  18
TORSDOF 7
ENDMDL
MODEL 2
REMARK VINA RESULT:      -8.3      3.416      5.868
REMARK  7 active torsions:
REMARK  status: ('A' for Active; 'I' for Inactive)
REMARK    1  A    between atoms: N1_7  and  C7_8 
REMARK    2  A    between atoms: C7_8  and  N2_10 
REMARK    3  A    between atoms: N2_10  and  C8_11 
REMARK    4  A    between atoms: N2_10  and  C14_18 
REMARK    5  A    between atoms: C8_11  and  C9_12 
REMARK    6  A    between atoms: C14_18  and  C15_19 
REMARK    7  A    between atoms: C20_25  and  O1_26 
ROOT
HETATM    1  N2  UNL     1      24.414   2.451  52.305  1.00  0.00    -0.350 N 
ENDROOT
BRANCH   1   2
HETATM    2  C7  UNL     1      25.829   2.234  52.117  1.00  0.00     0.177 C 
HETATM    3  S1  UNL     1      26.382   2.906  50.714  1.00  0.00    -0.040 SA
BRANCH   2   4
HETATM    4  N1  UNL     1      26.834   1.616  52.909  1.00  0.00    -0.326 N 
HETATM    5  C2  UNL     1      26.793   0.251  53.451  1.00  0.00     0.110 A 
HETATM    6  C1  UNL     1      26.816  -0.754  52.298  1.00  0.00     0.037 C 
HETATM    7  C3  UNL     1      28.021  -0.038  54.231  1.00  0.00    -0.002 A 
HETATM    8  C4  UNL     1      29.094   0.652  54.510  1.00  0.00    -0.001 A 
HETATM    9  C5  UNL     1      29.066   1.979  53.930  1.00  0.00     0.017 A 
HETATM   10  C6  UNL     1      28.023   2.315  53.238  1.00  0.00     0.094 A 
ENDBRANCH   2   4
ENDBRANCH   1   2
BRANCH   1  11
HETATM   11  C8  UNL     1      23.555   1.484  51.572  1.00  0.00     0.160 C 
BRANCH  11  12
HETATM   12  C9  UNL     1      22.949   0.485  52.522  1.00  0.00    -0.056 A 
HETATM   13  C10 UNL     1      21.604   0.389  52.382  1.00  0.00     0.007 A 
HETATM   14  C11 UNL     1      20.944  -0.556  53.268  1.00  0.00     0.038 A 
HETATM   15  C12 UNL     1      21.939  -1.050  53.971  1.00  0.00     0.098 A 
HETATM   16  F1  UNL     1      21.941  -1.992  54.975  1.00  0.00    -0.211 F 
HETATM   17  C13 UNL     1      23.278  -0.479  53.594  1.00  0.00     0.105 A 
ENDBRANCH  11  12
ENDBRANCH   1  11
BRANCH   1  18
HETATM   18  C14 UNL     1      23.501   3.328  52.979  1.00  0.00     0.167 C 
BRANCH  18  19
HETATM   19  C15 UNL     1      22.714   4.254  52.176  1.00  0.00    -0.005 A 
HETATM   20  C16 UNL     1      21.407   4.074  51.749  1.00  0.00     0.012 A 
HETATM   21  C17 UNL     1      20.626   4.884  50.956  1.00  0.00     0.002 A 
HETATM   22  C18 UNL     1      21.215   6.049  50.512  1.00  0.00     0.026 A 
HETATM   23  C19 UNL     1      22.518   6.343  50.872  1.00  0.00     0.067 A 
HETATM   24 CL1  UNL     1      23.162   7.835  50.259  1.00  0.00    -0.081 Cl
HETATM   25  C20 UNL     1      23.202   5.460  51.668  1.00  0.00     0.095 A 
BRANCH  25  26
HETATM   26  O1  UNL     1      24.483   5.883  51.944  1.00  0.00    -0.358 OA
HETATM   27  H20 UNL     1      24.559   6.638  52.640  1.00  0.00     0.217 HD
ENDBRANCH  25  26
ENDBRANCH  18  19
ENDBRANCH   1  18
TORSDOF 7
ENDMDL
MODEL 3
REMARK VINA RESULT:      -8.3      2.994      5.983
REMARK  7 active torsions:
REMARK  status: ('A' for Active; 'I' for Inactive)
REMARK    1  A    between atoms: N1_7  and  C7_8 
REMARK    2  A    between atoms: C7_8  and  N2_10 
REMARK    3  A    between atoms: N2_10  and  C8_11 
REMARK    4  A    between atoms: N2_10  and  C14_18 
REMARK    5  A    between atoms: C8_11  and  C9_12 
REMARK    6  A    between atoms: C14_18  and  C15_19 
REMARK    7  A    between atoms: C20_25  and  O1_26 
ROOT
HETATM    1  N2  UNL     1      24.794   2.972  51.095  1.00  0.00    -0.350 N 
ENDROOT
BRANCH   1   2
HETATM    2  C7  UNL     1      23.504   2.905  51.738  1.00  0.00     0.177 C 
HETATM    3  S1  UNL     1      22.845   4.401  51.973  1.00  0.00    -0.040 SA
BRANCH   2   4
HETATM    4  N1  UNL     1      22.678   1.827  52.155  1.00  0.00    -0.326 N 
HETATM    5  C2  UNL     1      21.355   1.488  51.611  1.00  0.00     0.110 A 
HETATM    6  C1  UNL     1      21.502   1.059  50.150  1.00  0.00     0.037 C 
HETATM    7  C3  UNL     1      20.795   0.300  52.301  1.00  0.00    -0.002 A 
HETATM    8  C4  UNL     1      21.236  -0.480  53.251  1.00  0.00    -0.001 A 
HETATM    9  C5  UNL     1      22.548  -0.090  53.725  1.00  0.00     0.017 A 
HETATM   10  C6  UNL     1      23.106   0.944  53.179  1.00  0.00     0.094 A 
ENDBRANCH   2   4
ENDBRANCH   1   2
BRANCH   1  11
HETATM   11  C8  UNL     1      24.723   3.221  49.631  1.00  0.00     0.160 C 
BRANCH  11  12
HETATM   12  C9  UNL     1      25.746   4.246  49.216  1.00  0.00    -0.056 A 
HETATM   13  C10 UNL     1      25.203   5.474  49.031  1.00  0.00     0.007 A 
HETATM   14  C11 UNL     1      26.129   6.519  48.627  1.00  0.00     0.038 A 
HETATM   15  C12 UNL     1      27.281   5.889  48.566  1.00  0.00     0.098 A 
HETATM   16  F1  UNL     1      28.535   6.351  48.236  1.00  0.00    -0.211 F 
HETATM   17  C13 UNL     1      27.184   4.431  48.926  1.00  0.00     0.105 A 
ENDBRANCH  11  12
ENDBRANCH   1  11
BRANCH   1  18
HETATM   18  C14 UNL     1      26.194   2.864  51.389  1.00  0.00     0.167 C 
BRANCH  18  19
HETATM   19  C15 UNL     1      26.677   1.635  52.003  1.00  0.00    -0.005 A 
HETATM   20  C16 UNL     1      26.417   0.341  51.579  1.00  0.00     0.012 A 
HETATM   21  C17 UNL     1      26.803  -0.857  52.137  1.00  0.00     0.002 A 
HETATM   22  C18 UNL     1      27.560  -0.776  53.286  1.00  0.00     0.026 A 
HETATM   23  C19 UNL     1      27.887   0.462  53.810  1.00  0.00     0.067 A 
HETATM   24 CL1  UNL     1      28.843   0.450  55.259  1.00  0.00    -0.081 Cl
HETATM   25  C20 UNL     1      27.447   1.591  53.168  1.00  0.00     0.095 A 
BRANCH  25  26
HETATM   26  O1  UNL     1      27.848   2.747  53.801  1.00  0.00    -0.358 OA
HETATM   27  H20 UNL     1      27.280   3.025  54.614  1.00  0.00     0.217 HD
ENDBRANCH  25  26
ENDBRANCH  18  19
ENDBRANCH   1  18
TORSDOF 7
ENDMDL
MODEL 4
REMARK VINA RESULT:      -8.2      3.735      6.282
REMARK  7 active torsions:
REMARK  status: ('A' for Active; 'I' for Inactive)
REMARK    1  A    between atoms: N1_7  and  C7_8 
REMARK    2  A    between atoms: C7_8  and  N2_10 
REMARK    3  A    between atoms: N2_10  and  C8_11 
REMARK    4  A    between atoms: N2_10  and  C14_18 
REMARK    5  A    between atoms: C8_11  and  C9_12 
REMARK    6  A    between atoms: C14_18  and  C15_19 
REMARK    7  A    between atoms: C20_25  and  O1_26 
ROOT
HETATM    1  N2  UNL     1      24.364   2.157  52.175  1.00  0.00    -0.350 N 
ENDROOT
BRANCH   1   2
HETATM    2  C7  UNL     1      25.801   2.076  52.077  1.00  0.00     0.177 C 
HETATM    3  S1  UNL     1      26.378   2.824  50.723  1.00  0.00    -0.040 SA
BRANCH   2   4
HETATM    4  N1  UNL     1      26.807   1.537  52.924  1.00  0.00    -0.326 N 
HETATM    5  C2  UNL     1      26.773   0.225  53.585  1.00  0.00     0.110 A 
HETATM    6  C1  UNL     1      26.808  -0.878  52.526  1.00  0.00     0.037 C 
HETATM    7  C3  UNL     1      28.000   0.016  54.392  1.00  0.00    -0.002 A 
HETATM    8  C4  UNL     1      29.068   0.735  54.612  1.00  0.00    -0.001 A 
HETATM    9  C5  UNL     1      29.033   2.005  53.917  1.00  0.00     0.017 A 
HETATM   10  C6  UNL     1      27.991   2.271  53.193  1.00  0.00     0.094 A 
ENDBRANCH   2   4
ENDBRANCH   1   2
BRANCH   1  11
HETATM   11  C8  UNL     1      23.882   3.273  53.030  1.00  0.00     0.160 C 
BRANCH  11  12
HETATM   12  C9  UNL     1      22.989   4.197  52.245  1.00  0.00    -0.056 A 
HETATM   13  C10 UNL     1      23.676   5.213  51.668  1.00  0.00     0.007 A 
HETATM   14  C11 UNL     1      22.881   6.151  50.893  1.00  0.00     0.038 A 
HETATM   15  C12 UNL     1      21.660   5.676  51.009  1.00  0.00     0.098 A 
HETATM   16  F1  UNL     1      20.470   6.136  50.493  1.00  0.00    -0.211 F 
HETATM   17  C13 UNL     1      21.584   4.424  51.840  1.00  0.00     0.105 A 
ENDBRANCH  11  12
ENDBRANCH   1  11
BRANCH   1  18
HETATM   18  C14 UNL     1      23.176   1.493  51.720  1.00  0.00     0.167 C 
BRANCH  18  19
HETATM   19  C15 UNL     1      22.505   0.577  52.632  1.00  0.00    -0.005 A 
HETATM   20  C16 UNL     1      23.100  -0.182  53.628  1.00  0.00     0.012 A 
HETATM   21  C17 UNL     1      22.533  -1.095  54.489  1.00  0.00     0.002 A 
HETATM   22  C18 UNL     1      21.176  -1.295  54.355  1.00  0.00     0.026 A 
HETATM   23  C19 UNL     1      20.468  -0.594  53.394  1.00  0.00     0.067 A 
HETATM   24 CL1  UNL     1      18.765  -0.923  53.310  1.00  0.00    -0.081 Cl
HETATM   25  C20 UNL     1      21.138   0.291  52.590  1.00  0.00     0.095 A 
BRANCH  25  26
HETATM   26  O1  UNL     1      20.308   0.914  51.685  1.00  0.00    -0.358 OA
HETATM   27  H20 UNL     1      20.732   1.128  50.771  1.00  0.00     0.217 HD
ENDBRANCH  25  26
ENDBRANCH  18  19
ENDBRANCH   1  18
TORSDOF 7
ENDMDL
MODEL 5
REMARK VINA RESULT:      -8.2      3.079      6.169
REMARK  7 active torsions:
REMARK  status: ('A' for Active; 'I' for Inactive)
REMARK    1  A    between atoms: N1_7  and  C7_8 
REMARK    2  A    between atoms: C7_8  and  N2_10 
REMARK    3  A    between atoms: N2_10  and  C8_11 
REMARK    4  A    between atoms: N2_10  and  C14_18 
REMARK    5  A    between atoms: C8_11  and  C9_12 
REMARK    6  A    between atoms: C14_18  and  C15_19 
REMARK    7  A    between atoms: C20_25  and  O1_26 
ROOT
HETATM    1  N2  UNL     1      25.479   2.700  51.472  1.00  0.00    -0.350 N 
ENDROOT
BRANCH   1   2
HETATM    2  C7  UNL     1      24.242   2.658  52.215  1.00  0.00     0.177 C 
HETATM    3  S1  UNL     1      23.903   4.100  52.944  1.00  0.00    -0.040 SA
BRANCH   2   4
HETATM    4  N1  UNL     1      23.249   1.659  52.398  1.00  0.00    -0.326 N 
HETATM    5  C2  UNL     1      21.958   1.581  51.699  1.00  0.00     0.110 A 
HETATM    6  C1  UNL     1      22.201   1.334  50.210  1.00  0.00     0.037 C 
HETATM    7  C3  UNL     1      21.186   0.401  52.159  1.00  0.00    -0.002 A 
HETATM    8  C4  UNL     1      21.424  -0.552  53.020  1.00  0.00    -0.001 A 
HETATM    9  C5  UNL     1      22.718  -0.414  53.655  1.00  0.00     0.017 A 
HETATM   10  C6  UNL     1      23.455   0.597  53.315  1.00  0.00     0.094 A 
ENDBRANCH   2   4
ENDBRANCH   1   2
BRANCH   1  11
HETATM   11  C8  UNL     1      26.687   2.454  52.302  1.00  0.00     0.160 C 
BRANCH  11  12
HETATM   12  C9  UNL     1      26.945   0.976  52.441  1.00  0.00    -0.056 A 
HETATM   13  C10 UNL     1      27.977   0.708  53.278  1.00  0.00     0.007 A 
HETATM   14  C11 UNL     1      28.289  -0.700  53.462  1.00  0.00     0.038 A 
HETATM   15  C12 UNL     1      27.404  -1.304  52.701  1.00  0.00     0.098 A 
HETATM   16  F1  UNL     1      27.199  -2.644  52.460  1.00  0.00    -0.211 F 
HETATM   17  C13 UNL     1      26.476  -0.353  51.995  1.00  0.00     0.105 A 
ENDBRANCH  11  12
ENDBRANCH   1  11
BRANCH   1  18
HETATM   18  C14 UNL     1      25.974   2.920  50.144  1.00  0.00     0.167 C 
BRANCH  18  19
HETATM   19  C15 UNL     1      25.728   4.214  49.522  1.00  0.00    -0.005 A 
HETATM   20  C16 UNL     1      24.495   4.741  49.168  1.00  0.00     0.012 A 
HETATM   21  C17 UNL     1      24.200   5.930  48.540  1.00  0.00     0.002 A 
HETATM   22  C18 UNL     1      25.275   6.725  48.207  1.00  0.00     0.026 A 
HETATM   23  C19 UNL     1      26.559   6.308  48.508  1.00  0.00     0.067 A 
HETATM   24 CL1  UNL     1      27.841   7.384  48.044  1.00  0.00    -0.081 Cl
HETATM   25  C20 UNL     1      26.735   5.102  49.136  1.00  0.00     0.095 A 
BRANCH  25  26
HETATM   26  O1  UNL     1      28.063   4.819  49.372  1.00  0.00    -0.358 OA
HETATM   27  H20 UNL     1      28.717   5.129  48.640  1.00  0.00     0.217 HD
ENDBRANCH  25  26
ENDBRANCH  18  19
ENDBRANCH   1  18
TORSDOF 7
ENDMDL
MODEL 6
REMARK VINA RESULT:      -8.2      1.576      2.231
REMARK  7 active torsions:
REMARK  status: ('A' for Active; 'I' for Inactive)
REMARK    1  A    between atoms: N1_7  and  C7_8 
REMARK    2  A    between atoms: C7_8  and  N2_10 
REMARK    3  A    between atoms: N2_10  and  C8_11 
REMARK    4  A    between atoms: N2_10  and  C14_18 
REMARK    5  A    between atoms: C8_11  and  C9_12 
REMARK    6  A    between atoms: C14_18  and  C15_19 
REMARK    7  A    between atoms: C20_25  and  O1_26 
ROOT
HETATM    1  N2  UNL     1      24.000   2.180  52.235  1.00  0.00    -0.350 N 
ENDROOT
BRANCH   1   2
HETATM    2  C7  UNL     1      24.177   3.506  51.692  1.00  0.00     0.177 C 
HETATM    3  S1  UNL     1      23.169   4.608  52.395  1.00  0.00    -0.040 SA
BRANCH   2   4
HETATM    4  N1  UNL     1      25.065   4.053  50.728  1.00  0.00    -0.326 N 
HETATM    5  C2  UNL     1      26.438   3.601  50.458  1.00  0.00     0.110 A 
HETATM    6  C1  UNL     1      26.402   2.180  49.896  1.00  0.00     0.037 C 
HETATM    7  C3  UNL     1      27.055   4.419  49.386  1.00  0.00    -0.002 A 
HETATM    8  C4  UNL     1      26.631   5.414  48.654  1.00  0.00    -0.001 A 
HETATM    9  C5  UNL     1      25.268   5.792  48.969  1.00  0.00     0.017 A 
HETATM   10  C6  UNL     1      24.657   5.131  49.902  1.00  0.00     0.094 A 
ENDBRANCH   2   4
ENDBRANCH   1   2
BRANCH   1  11
HETATM   11  C8  UNL     1      23.063   1.331  51.453  1.00  0.00     0.160 C 
BRANCH  11  12
HETATM   12  C9  UNL     1      22.243   0.461  52.370  1.00  0.00    -0.056 A 
HETATM   13  C10 UNL     1      21.090   1.059  52.756  1.00  0.00     0.007 A 
HETATM   14  C11 UNL     1      20.243   0.281  53.645  1.00  0.00     0.038 A 
HETATM   15  C12 UNL     1      20.920  -0.836  53.800  1.00  0.00     0.098 A 
HETATM   16  F1  UNL     1      20.627  -1.962  54.536  1.00  0.00    -0.211 F 
HETATM   17  C13 UNL     1      22.214  -0.860  53.035  1.00  0.00     0.105 A 
ENDBRANCH  11  12
ENDBRANCH   1  11
BRANCH   1  18
HETATM   18  C14 UNL     1      24.426   1.359  53.331  1.00  0.00     0.167 C 
BRANCH  18  19
HETATM   19  C15 UNL     1      25.770   0.798  53.291  1.00  0.00    -0.005 A 
HETATM   20  C16 UNL     1      26.120  -0.485  52.899  1.00  0.00     0.012 A 
HETATM   21  C17 UNL     1      27.358  -1.087  52.881  1.00  0.00     0.002 A 
HETATM   22  C18 UNL     1      28.415  -0.316  53.314  1.00  0.00     0.026 A 
HETATM   23  C19 UNL     1      28.193   0.984  53.732  1.00  0.00     0.067 A 
HETATM   24 CL1  UNL     1      29.594   1.866  54.258  1.00  0.00    -0.081 Cl
HETATM   25  C20 UNL     1      26.916   1.481  53.707  1.00  0.00     0.095 A 
BRANCH  25  26
HETATM   26  O1  UNL     1      26.848   2.783  54.149  1.00  0.00    -0.358 OA
HETATM   27  H20 UNL     1      27.755   3.249  54.292  1.00  0.00     0.217 HD
ENDBRANCH  25  26
ENDBRANCH  18  19
ENDBRANCH   1  18
TORSDOF 7
ENDMDL
MODEL 7
REMARK VINA RESULT:      -8.1      3.198      5.131
REMARK  7 active torsions:
REMARK  status: ('A' for Active; 'I' for Inactive)
REMARK    1  A    between atoms: N1_7  and  C7_8 
REMARK    2  A    between atoms: C7_8  and  N2_10 
REMARK    3  A    between atoms: N2_10  and  C8_11 
REMARK    4  A    between atoms: N2_10  and  C14_18 
REMARK    5  A    between atoms: C8_11  and  C9_12 
REMARK    6  A    between atoms: C14_18  and  C15_19 
REMARK    7  A    between atoms: C20_25  and  O1_26 
ROOT
HETATM    1  N2  UNL     1      24.392   2.295  52.225  1.00  0.00    -0.350 N 
ENDROOT
BRANCH   1   2
HETATM    2  C7  UNL     1      24.161   3.512  51.484  1.00  0.00     0.177 C 
HETATM    3  S1  UNL     1      22.709   4.203  51.858  1.00  0.00    -0.040 SA
BRANCH   2   4
HETATM    4  N1  UNL     1      24.942   4.251  50.555  1.00  0.00    -0.326 N 
HETATM    5  C2  UNL     1      24.620   5.579  50.015  1.00  0.00     0.110 A 
HETATM    6  C1  UNL     1      24.650   6.608  51.147  1.00  0.00     0.037 C 
HETATM    7  C3  UNL     1      25.670   6.026  49.068  1.00  0.00    -0.002 A 
HETATM    8  C4  UNL     1      26.787   5.497  48.645  1.00  0.00    -0.001 A 
HETATM    9  C5  UNL     1      27.040   4.196  49.231  1.00  0.00     0.017 A 
HETATM   10  C6  UNL     1      26.166   3.728  50.066  1.00  0.00     0.094 A 
ENDBRANCH   2   4
ENDBRANCH   1   2
BRANCH   1  11
HETATM   11  C8  UNL     1      25.053   2.507  53.539  1.00  0.00     0.160 C 
BRANCH  11  12
HETATM   12  C9  UNL     1      26.413   1.860  53.562  1.00  0.00    -0.056 A 
HETATM   13  C10 UNL     1      26.532   0.942  54.552  1.00  0.00     0.007 A 
HETATM   14  C11 UNL     1      27.820   0.274  54.640  1.00  0.00     0.038 A 
HETATM   15  C12 UNL     1      28.505   0.815  53.656  1.00  0.00     0.098 A 
HETATM   16  F1  UNL     1      29.796   0.588  53.237  1.00  0.00    -0.211 F 
HETATM   17  C13 UNL     1      27.725   1.840  52.879  1.00  0.00     0.105 A 
ENDBRANCH  11  12
ENDBRANCH   1  11
BRANCH   1  18
HETATM   18  C14 UNL     1      24.207   0.876  52.123  1.00  0.00     0.167 C 
BRANCH  18  19
HETATM   19  C15 UNL     1      23.076   0.275  52.817  1.00  0.00    -0.005 A 
HETATM   20  C16 UNL     1      23.120  -0.448  53.999  1.00  0.00     0.012 A 
HETATM   21  C17 UNL     1      22.101  -1.075  54.679  1.00  0.00     0.002 A 
HETATM   22  C18 UNL     1      20.847  -0.982  54.116  1.00  0.00     0.026 A 
HETATM   23  C19 UNL     1      20.673  -0.284  52.933  1.00  0.00     0.067 A 
HETATM   24 CL1  UNL     1      19.053  -0.229  52.310  1.00  0.00    -0.081 Cl
HETATM   25  C20 UNL     1      21.762   0.302  52.343  1.00  0.00     0.095 A 
BRANCH  25  26
HETATM   26  O1  UNL     1      21.439   0.959  51.176  1.00  0.00    -0.358 OA
HETATM   27  H20 UNL     1      21.636   1.970  51.170  1.00  0.00     0.217 HD
ENDBRANCH  25  26
ENDBRANCH  18  19
ENDBRANCH   1  18
TORSDOF 7
ENDMDL
MODEL 8
REMARK VINA RESULT:      -8.1      3.214      5.951
REMARK  7 active torsions:
REMARK  status: ('A' for Active; 'I' for Inactive)
REMARK    1  A    between atoms: N1_7  and  C7_8 
REMARK    2  A    between atoms: C7_8  and  N2_10 
REMARK    3  A    between atoms: N2_10  and  C8_11 
REMARK    4  A    between atoms: N2_10  and  C14_18 
REMARK    5  A    between atoms: C8_11  and  C9_12 
REMARK    6  A    between atoms: C14_18  and  C15_19 
REMARK    7  A    between atoms: C20_25  and  O1_26 
ROOT
HETATM    1  N2  UNL     1      23.518   2.940  51.656  1.00  0.00    -0.350 N 
ENDROOT
BRANCH   1   2
HETATM    2  C7  UNL     1      22.092   3.105  51.508  1.00  0.00     0.177 C 
HETATM    3  S1  UNL     1      21.648   4.694  51.471  1.00  0.00    -0.040 SA
BRANCH   2   4
HETATM    4  N1  UNL     1      21.018   2.190  51.338  1.00  0.00    -0.326 N 
HETATM    5  C2  UNL     1      20.232   1.994  50.111  1.00  0.00     0.110 A 
HETATM    6  C1  UNL     1      21.135   1.430  49.014  1.00  0.00     0.037 C 
HETATM    7  C3  UNL     1      19.192   0.957  50.318  1.00  0.00    -0.002 A 
HETATM    8  C4  UNL     1      18.858   0.205  51.332  1.00  0.00    -0.001 A 
HETATM    9  C5  UNL     1      19.686   0.446  52.497  1.00  0.00     0.017 A 
HETATM   10  C6  UNL     1      20.616   1.344  52.403  1.00  0.00     0.094 A 
ENDBRANCH   2   4
ENDBRANCH   1   2
BRANCH   1  11
HETATM   11  C8  UNL     1      24.209   2.540  50.402  1.00  0.00     0.160 C 
BRANCH  11  12
HETATM   12  C9  UNL     1      25.002   3.691  49.841  1.00  0.00    -0.056 A 
HETATM   13  C10 UNL     1      26.286   3.351  49.571  1.00  0.00     0.007 A 
HETATM   14  C11 UNL     1      27.118   4.412  49.028  1.00  0.00     0.038 A 
HETATM   15  C12 UNL     1      26.295   5.436  48.968  1.00  0.00     0.098 A 
HETATM   16  F1  UNL     1      26.505   6.727  48.537  1.00  0.00    -0.211 F 
HETATM   17  C13 UNL     1      24.907   5.114  49.450  1.00  0.00     0.105 A 
ENDBRANCH  11  12
ENDBRANCH   1  11
BRANCH   1  18
HETATM   18  C14 UNL     1      24.553   3.021  52.645  1.00  0.00     0.167 C 
BRANCH  18  19
HETATM   19  C15 UNL     1      25.079   1.779  53.197  1.00  0.00    -0.005 A 
HETATM   20  C16 UNL     1      24.412   0.567  53.289  1.00  0.00     0.012 A 
HETATM   21  C17 UNL     1      24.834  -0.624  53.836  1.00  0.00     0.002 A 
HETATM   22  C18 UNL     1      26.101  -0.630  54.376  1.00  0.00     0.026 A 
HETATM   23  C19 UNL     1      26.869   0.522  54.345  1.00  0.00     0.067 A 
HETATM   24 CL1  UNL     1      28.450   0.405  55.054  1.00  0.00    -0.081 Cl
HETATM   25  C20 UNL     1      26.345   1.652  53.773  1.00  0.00     0.095 A 
BRANCH  25  26
HETATM   26  O1  UNL     1      27.219   2.717  53.815  1.00  0.00    -0.358 OA
HETATM   27  H20 UNL     1      27.883   2.774  53.030  1.00  0.00     0.217 HD
ENDBRANCH  25  26
ENDBRANCH  18  19
ENDBRANCH   1  18
TORSDOF 7
ENDMDL
MODEL 9
REMARK VINA RESULT:      -7.9      3.305      5.463
REMARK  7 active torsions:
REMARK  status: ('A' for Active; 'I' for Inactive)
REMARK    1  A    between atoms: N1_7  and  C7_8 
REMARK    2  A    between atoms: C7_8  and  N2_10 
REMARK    3  A    between atoms: N2_10  and  C8_11 
REMARK    4  A    between atoms: N2_10  and  C14_18 
REMARK    5  A    between atoms: C8_11  and  C9_12 
REMARK    6  A    between atoms: C14_18  and  C15_19 
REMARK    7  A    between atoms: C20_25  and  O1_26 
ROOT
HETATM    1  N2  UNL     1      24.662   2.316  52.112  1.00  0.00    -0.350 N 
ENDROOT
BRANCH   1   2
HETATM    2  C7  UNL     1      24.682   3.447  51.216  1.00  0.00     0.177 C 
HETATM    3  S1  UNL     1      25.894   3.340  50.101  1.00  0.00    -0.040 SA
BRANCH   2   4
HETATM    4  N1  UNL     1      23.848   4.589  51.070  1.00  0.00    -0.326 N 
HETATM    5  C2  UNL     1      22.380   4.589  51.009  1.00  0.00     0.110 A 
HETATM    6  C1  UNL     1      21.816   4.115  52.350  1.00  0.00     0.037 C 
HETATM    7  C3  UNL     1      21.864   5.970  50.848  1.00  0.00    -0.002 A 
HETATM    8  C4  UNL     1      22.436   7.141  50.764  1.00  0.00    -0.001 A 
HETATM    9  C5  UNL     1      23.880   7.060  50.846  1.00  0.00     0.017 A 
HETATM   10  C6  UNL     1      24.413   5.887  50.980  1.00  0.00     0.094 A 
ENDBRANCH   2   4
ENDBRANCH   1   2
BRANCH   1  11
HETATM   11  C8  UNL     1      25.114   2.634  53.492  1.00  0.00     0.160 C 
BRANCH  11  12
HETATM   12  C9  UNL     1      26.323   1.814  53.858  1.00  0.00    -0.056 A 
HETATM   13  C10 UNL     1      27.477   2.365  53.408  1.00  0.00     0.007 A 
HETATM   14  C11 UNL     1      28.691   1.628  53.721  1.00  0.00     0.038 A 
HETATM   15  C12 UNL     1      28.244   0.588  54.391  1.00  0.00     0.098 A 
HETATM   16  F1  UNL     1      28.923  -0.470  54.952  1.00  0.00    -0.211 F 
HETATM   17  C13 UNL     1      26.750   0.584  54.559  1.00  0.00     0.105 A 
ENDBRANCH  11  12
ENDBRANCH   1  11
BRANCH   1  18
HETATM   18  C14 UNL     1      24.355   0.915  52.132  1.00  0.00     0.167 C 
BRANCH  18  19
HETATM   19  C15 UNL     1      23.041   0.504  52.608  1.00  0.00    -0.005 A 
HETATM   20  C16 UNL     1      22.743  -0.035  53.850  1.00  0.00     0.012 A 
HETATM   21  C17 UNL     1      21.538  -0.483  54.343  1.00  0.00     0.002 A 
HETATM   22  C18 UNL     1      20.460  -0.391  53.489  1.00  0.00     0.026 A 
HETATM   23  C19 UNL     1      20.630   0.132  52.219  1.00  0.00     0.067 A 
HETATM   24 CL1  UNL     1      19.208   0.203  51.225  1.00  0.00    -0.081 Cl
HETATM   25  C20 UNL     1      21.879   0.548  51.835  1.00  0.00     0.095 A 
BRANCH  25  26
HETATM   26  O1  UNL     1      21.896   1.043  50.549  1.00  0.00    -0.358 OA
HETATM   27  H20 UNL     1      21.789   0.341  49.804  1.00  0.00     0.217 HD
ENDBRANCH  25  26
ENDBRANCH  18  19
ENDBRANCH   1  18
TORSDOF 7
ENDMDL
