MODEL 1
REMARK VINA RESULT:      -6.8      0.000      0.000
REMARK  7 active torsions:
REMARK  status: ('A' for Active; 'I' for Inactive)
REMARK    1  A    between atoms: C2_2  and  C3_4 
REMARK    2  A    between atoms: C4_5  and  C5_6 
REMARK    3  A    between atoms: C6_7  and  C7_8 
REMARK    4  A    between atoms: C7_8  and  O1_9 
REMARK    5  A    between atoms: O1_9  and  C8_10 
REMARK    6  A    between atoms: C8_10  and  C14_18 
REMARK    7  A    between atoms: C9_11  and  C10_12 
ROOT
HETATM    1  C8  UNL     1      26.085   2.573  51.176  1.00  0.00     0.076 C 
HETATM    2  C9  UNL     1      26.786   2.190  52.209  1.00  0.00     0.083 C 
ENDROOT
BRANCH   1   3
HETATM    3  O1  UNL     1      25.088   1.744  51.688  1.00  0.00    -0.349 OA
BRANCH   3   4
HETATM    4  C7  UNL     1      24.321   2.289  52.748  1.00  0.00     0.202 C 
BRANCH   4   5
HETATM    5  C6  UNL     1      22.922   1.844  52.568  1.00  0.00    -0.000 C 
HETATM    6  C5  UNL     1      22.473   0.798  51.916  1.00  0.00    -0.002 C 
BRANCH   6   7
HETATM    7  C4  UNL     1      21.052   0.494  51.830  1.00  0.00     0.003 C 
HETATM    8  C3  UNL     1      20.360  -0.055  52.811  1.00  0.00     0.041 C 
BRANCH   8   9
HETATM    9  C2  UNL     1      20.893  -0.439  54.107  1.00  0.00     0.107 C 
HETATM   10  C1  UNL     1      21.320  -1.647  54.341  1.00  0.00     0.056 C 
HETATM   11  F1  UNL     1      21.033   0.323  55.215  1.00  0.00    -0.207 F 
ENDBRANCH   8   9
ENDBRANCH   6   7
ENDBRANCH   4   5
ENDBRANCH   3   4
ENDBRANCH   1   3
BRANCH   1  12
HETATM   12  C14 UNL     1      25.816   3.298  49.946  1.00  0.00     0.054 C 
HETATM   13  C15 UNL     1      26.812   3.941  49.384  1.00  0.00     0.039 C 
HETATM   14 CL1  UNL     1      24.191   3.264  49.298  1.00  0.00    -0.083 Cl
ENDBRANCH   1  12
BRANCH   2  15
HETATM   15  C10 UNL     1      28.029   2.270  52.946  1.00  0.00     0.016 C 
HETATM   16  C11 UNL     1      28.357   0.996  53.229  1.00  0.00     0.043 A 
HETATM   17  C12 UNL     1      27.703  -0.291  52.925  1.00  0.00     0.141 A 
HETATM   18  N2  UNL     1      29.512   0.523  53.951  1.00  0.00    -0.371 N 
HETATM   19  N1  UNL     1      28.302  -1.349  53.354  1.00  0.00    -0.280 NA
HETATM   20  C13 UNL     1      29.500  -0.924  54.041  1.00  0.00     0.270 A 
HETATM   21  H14 UNL     1      30.216   1.171  54.328  1.00  0.00     0.161 HD
ENDBRANCH   2  15
TORSDOF 7
ENDMDL
MODEL 2
REMARK VINA RESULT:      -6.8      3.315      6.191
REMARK  7 active torsions:
REMARK  status: ('A' for Active; 'I' for Inactive)
REMARK    1  A    between atoms: C2_2  and  C3_4 
REMARK    2  A    between atoms: C4_5  and  C5_6 
REMARK    3  A    between atoms: C6_7  and  C7_8 
REMARK    4  A    between atoms: C7_8  and  O1_9 
REMARK    5  A    between atoms: O1_9  and  C8_10 
REMARK    6  A    between atoms: C8_10  and  C14_18 
REMARK    7  A    between atoms: C9_11  and  C10_12 
ROOT
HETATM    1  C8  UNL     1      24.860   0.852  52.472  1.00  0.00     0.076 C 
HETATM    2  C9  UNL     1      25.954   0.141  52.510  1.00  0.00     0.083 C 
ENDROOT
BRANCH   1   3
HETATM    3  O1  UNL     1      25.712   1.950  52.366  1.00  0.00    -0.349 OA
BRANCH   3   4
HETATM    4  C7  UNL     1      26.424   2.058  51.144  1.00  0.00     0.202 C 
BRANCH   4   5
HETATM    5  C6  UNL     1      26.140   3.393  50.574  1.00  0.00    -0.000 C 
HETATM    6  C5  UNL     1      26.549   3.902  49.437  1.00  0.00    -0.002 C 
BRANCH   6   7
HETATM    7  C4  UNL     1      26.179   5.246  49.016  1.00  0.00     0.003 C 
HETATM    8  C3  UNL     1      27.029   6.109  48.491  1.00  0.00     0.041 C 
BRANCH   8   9
HETATM    9  C2  UNL     1      28.442   5.864  48.254  1.00  0.00     0.107 C 
HETATM   10  C1  UNL     1      29.313   6.833  48.248  1.00  0.00     0.056 C 
HETATM   11  F1  UNL     1      29.060   4.685  48.019  1.00  0.00    -0.207 F 
ENDBRANCH   8   9
ENDBRANCH   6   7
ENDBRANCH   4   5
ENDBRANCH   3   4
ENDBRANCH   1   3
BRANCH   1  12
HETATM   12  C14 UNL     1      23.426   1.088  52.479  1.00  0.00     0.054 C 
HETATM   13  C15 UNL     1      23.008   2.325  52.367  1.00  0.00     0.039 C 
HETATM   14 CL1  UNL     1      22.358  -0.290  52.636  1.00  0.00    -0.083 Cl
ENDBRANCH   1  12
BRANCH   2  15
HETATM   15  C10 UNL     1      26.564  -1.168  52.606  1.00  0.00     0.016 C 
HETATM   16  C11 UNL     1      27.807  -0.948  53.071  1.00  0.00     0.043 A 
HETATM   17  C12 UNL     1      28.526   0.285  53.444  1.00  0.00     0.141 A 
HETATM   18  N2  UNL     1      28.831  -1.925  53.346  1.00  0.00    -0.371 N 
HETATM   19  N1  UNL     1      29.736   0.133  53.862  1.00  0.00    -0.280 NA
HETATM   20  C13 UNL     1      30.033  -1.281  53.837  1.00  0.00     0.270 A 
HETATM   21  H14 UNL     1      28.674  -2.931  53.195  1.00  0.00     0.161 HD
ENDBRANCH   2  15
TORSDOF 7
ENDMDL
MODEL 3
REMARK VINA RESULT:      -6.7      1.814      2.330
REMARK  7 active torsions:
REMARK  status: ('A' for Active; 'I' for Inactive)
REMARK    1  A    between atoms: C2_2  and  C3_4 
REMARK    2  A    between atoms: C4_5  and  C5_6 
REMARK    3  A    between atoms: C6_7  and  C7_8 
REMARK    4  A    between atoms: C7_8  and  O1_9 
REMARK    5  A    between atoms: O1_9  and  C8_10 
REMARK    6  A    between atoms: C8_10  and  C14_18 
REMARK    7  A    between atoms: C9_11  and  C10_12 
ROOT
HETATM    1  C8  UNL     1      25.064   2.035  53.030  1.00  0.00     0.076 C 
HETATM    2  C9  UNL     1      26.282   1.797  53.436  1.00  0.00     0.083 C 
ENDROOT
BRANCH   1   3
HETATM    3  O1  UNL     1      24.705   0.959  53.839  1.00  0.00    -0.349 OA
BRANCH   3   4
HETATM    4  C7  UNL     1      24.599  -0.293  53.183  1.00  0.00     0.202 C 
BRANCH   4   5
HETATM    5  C6  UNL     1      23.210  -0.772  53.346  1.00  0.00    -0.000 C 
HETATM    6  C5  UNL     1      22.291  -0.351  54.182  1.00  0.00    -0.002 C 
BRANCH   6   7
HETATM    7  C4  UNL     1      20.957  -0.934  54.220  1.00  0.00     0.003 C 
HETATM    8  C3  UNL     1      19.946  -0.496  53.492  1.00  0.00     0.041 C 
BRANCH   8   9
HETATM    9  C2  UNL     1      20.000   0.613  52.555  1.00  0.00     0.107 C 
HETATM   10  C1  UNL     1      19.732   0.454  51.290  1.00  0.00     0.056 C 
HETATM   11  F1  UNL     1      20.310   1.906  52.803  1.00  0.00    -0.207 F 
ENDBRANCH   8   9
ENDBRANCH   6   7
ENDBRANCH   4   5
ENDBRANCH   3   4
ENDBRANCH   1   3
BRANCH   1  12
HETATM   12  C14 UNL     1      24.020   2.723  52.290  1.00  0.00     0.054 C 
HETATM   13  C15 UNL     1      23.640   3.903  52.719  1.00  0.00     0.039 C 
HETATM   14 CL1  UNL     1      23.343   1.936  50.881  1.00  0.00    -0.083 Cl
ENDBRANCH   1  12
BRANCH   2  15
HETATM   15  C10 UNL     1      27.683   2.156  53.390  1.00  0.00     0.016 C 
HETATM   16  C11 UNL     1      28.352   0.993  53.494  1.00  0.00     0.043 A 
HETATM   17  C12 UNL     1      27.901  -0.406  53.628  1.00  0.00     0.141 A 
HETATM   18  N2  UNL     1      29.780   0.794  53.500  1.00  0.00    -0.371 N 
HETATM   19  N1  UNL     1      28.829  -1.297  53.704  1.00  0.00    -0.280 NA
HETATM   20  C13 UNL     1      30.100  -0.614  53.628  1.00  0.00     0.270 A 
HETATM   21  H14 UNL     1      30.436   1.583  53.420  1.00  0.00     0.161 HD
ENDBRANCH   2  15
TORSDOF 7
ENDMDL
MODEL 4
REMARK VINA RESULT:      -6.7      2.841      5.662
REMARK  7 active torsions:
REMARK  status: ('A' for Active; 'I' for Inactive)
REMARK    1  A    between atoms: C2_2  and  C3_4 
REMARK    2  A    between atoms: C4_5  and  C5_6 
REMARK    3  A    between atoms: C6_7  and  C7_8 
REMARK    4  A    between atoms: C7_8  and  O1_9 
REMARK    5  A    between atoms: O1_9  and  C8_10 
REMARK    6  A    between atoms: C8_10  and  C14_18 
REMARK    7  A    between atoms: C9_11  and  C10_12 
ROOT
HETATM    1  C8  UNL     1      23.369   0.462  53.347  1.00  0.00     0.076 C 
HETATM    2  C9  UNL     1      24.647   0.200  53.398  1.00  0.00     0.083 C 
ENDROOT
BRANCH   1   3
HETATM    3  O1  UNL     1      23.756   1.678  52.787  1.00  0.00    -0.349 OA
BRANCH   3   4
HETATM    4  C7  UNL     1      24.163   1.626  51.430  1.00  0.00     0.202 C 
BRANCH   4   5
HETATM    5  C6  UNL     1      24.357   3.017  50.964  1.00  0.00    -0.000 C 
HETATM    6  C5  UNL     1      24.328   3.482  49.738  1.00  0.00    -0.002 C 
BRANCH   6   7
HETATM    7  C4  UNL     1      24.541   4.891  49.442  1.00  0.00     0.003 C 
HETATM    8  C3  UNL     1      25.705   5.393  49.071  1.00  0.00     0.041 C 
BRANCH   8   9
HETATM    9  C2  UNL     1      26.934   4.638  48.901  1.00  0.00     0.107 C 
HETATM   10  C1  UNL     1      28.041   5.209  48.519  1.00  0.00     0.056 C 
HETATM   11  F1  UNL     1      27.139   3.315  49.093  1.00  0.00    -0.207 F 
ENDBRANCH   8   9
ENDBRANCH   6   7
ENDBRANCH   4   5
ENDBRANCH   3   4
ENDBRANCH   1   3
BRANCH   1  12
HETATM   12  C14 UNL     1      21.950   0.207  53.534  1.00  0.00     0.054 C 
HETATM   13  C15 UNL     1      21.580  -0.426  54.621  1.00  0.00     0.039 C 
HETATM   14 CL1  UNL     1      20.836   0.760  52.302  1.00  0.00    -0.083 Cl
ENDBRANCH   1  12
BRANCH   2  15
HETATM   15  C10 UNL     1      25.695  -0.731  53.758  1.00  0.00     0.016 C 
HETATM   16  C11 UNL     1      26.775   0.030  54.012  1.00  0.00     0.043 A 
HETATM   17  C12 UNL     1      26.995   1.489  53.977  1.00  0.00     0.141 A 
HETATM   18  N2  UNL     1      28.088  -0.408  54.413  1.00  0.00    -0.371 N 
HETATM   19  N1  UNL     1      28.179   1.893  54.285  1.00  0.00    -0.280 NA
HETATM   20  C13 UNL     1      28.974   0.726  54.589  1.00  0.00     0.270 A 
HETATM   21  H14 UNL     1      28.309  -1.405  54.543  1.00  0.00     0.161 HD
ENDBRANCH   2  15
TORSDOF 7
ENDMDL
MODEL 5
REMARK VINA RESULT:      -6.4      2.894      4.570
REMARK  7 active torsions:
REMARK  status: ('A' for Active; 'I' for Inactive)
REMARK    1  A    between atoms: C2_2  and  C3_4 
REMARK    2  A    between atoms: C4_5  and  C5_6 
REMARK    3  A    between atoms: C6_7  and  C7_8 
REMARK    4  A    between atoms: C7_8  and  O1_9 
REMARK    5  A    between atoms: O1_9  and  C8_10 
REMARK    6  A    between atoms: C8_10  and  C14_18 
REMARK    7  A    between atoms: C9_11  and  C10_12 
ROOT
HETATM    1  C8  UNL     1      24.305   0.215  53.180  1.00  0.00     0.076 C 
HETATM    2  C9  UNL     1      25.510  -0.222  52.930  1.00  0.00     0.083 C 
ENDROOT
BRANCH   1   3
HETATM    3  O1  UNL     1      24.844   1.483  52.972  1.00  0.00    -0.349 OA
BRANCH   3   4
HETATM    4  C7  UNL     1      25.367   1.722  51.676  1.00  0.00     0.202 C 
BRANCH   4   5
HETATM    5  C6  UNL     1      24.429   2.622  50.970  1.00  0.00    -0.000 C 
HETATM    6  C5  UNL     1      24.555   3.171  49.786  1.00  0.00    -0.002 C 
BRANCH   6   7
HETATM    7  C4  UNL     1      23.532   4.044  49.227  1.00  0.00     0.003 C 
HETATM    8  C3  UNL     1      22.543   3.617  48.463  1.00  0.00     0.041 C 
BRANCH   8   9
HETATM    9  C2  UNL     1      22.321   2.238  48.064  1.00  0.00     0.107 C 
HETATM   10  C1  UNL     1      21.426   1.492  48.648  1.00  0.00     0.056 C 
HETATM   11  F1  UNL     1      22.947   1.534  47.094  1.00  0.00    -0.207 F 
ENDBRANCH   8   9
ENDBRANCH   6   7
ENDBRANCH   4   5
ENDBRANCH   3   4
ENDBRANCH   1   3
BRANCH   1  12
HETATM   12  C14 UNL     1      22.894   0.109  53.513  1.00  0.00     0.054 C 
HETATM   13  C15 UNL     1      22.549  -0.737  54.453  1.00  0.00     0.039 C 
HETATM   14 CL1  UNL     1      21.756   1.113  52.641  1.00  0.00    -0.083 Cl
ENDBRANCH   1  12
BRANCH   2  15
HETATM   15  C10 UNL     1      26.402  -1.353  52.799  1.00  0.00     0.016 C 
HETATM   16  C11 UNL     1      27.597  -0.917  53.236  1.00  0.00     0.043 A 
HETATM   17  C12 UNL     1      28.050   0.387  53.759  1.00  0.00     0.141 A 
HETATM   18  N2  UNL     1      28.832  -1.657  53.314  1.00  0.00    -0.371 N 
HETATM   19  N1  UNL     1      29.292   0.464  54.095  1.00  0.00    -0.280 NA
HETATM   20  C13 UNL     1      29.895  -0.825  53.843  1.00  0.00     0.270 A 
HETATM   21  H14 UNL     1      28.892  -2.641  53.019  1.00  0.00     0.161 HD
ENDBRANCH   2  15
TORSDOF 7
ENDMDL
MODEL 6
REMARK VINA RESULT:      -6.3      2.921      4.881
REMARK  7 active torsions:
REMARK  status: ('A' for Active; 'I' for Inactive)
REMARK    1  A    between atoms: C2_2  and  C3_4 
REMARK    2  A    between atoms: C4_5  and  C5_6 
REMARK    3  A    between atoms: C6_7  and  C7_8 
REMARK    4  A    between atoms: C7_8  and  O1_9 
REMARK    5  A    between atoms: O1_9  and  C8_10 
REMARK    6  A    between atoms: C8_10  and  C14_18 
REMARK    7  A    between atoms: C9_11  and  C10_12 
ROOT
HETATM    1  C8  UNL     1      24.508  -0.407  53.128  1.00  0.00     0.076 C 
HETATM    2  C9  UNL     1      25.719  -0.758  52.791  1.00  0.00     0.083 C 
ENDROOT
BRANCH   1   3
HETATM    3  O1  UNL     1      24.843   0.839  52.603  1.00  0.00    -0.349 OA
BRANCH   3   4
HETATM    4  C7  UNL     1      24.991   1.884  53.549  1.00  0.00     0.202 C 
BRANCH   4   5
HETATM    5  C6  UNL     1      24.428   3.115  52.954  1.00  0.00    -0.000 C 
HETATM    6  C5  UNL     1      23.380   3.243  52.176  1.00  0.00    -0.002 C 
BRANCH   6   7
HETATM    7  C4  UNL     1      22.951   4.538  51.666  1.00  0.00     0.003 C 
HETATM    8  C3  UNL     1      23.323   5.024  50.496  1.00  0.00     0.041 C 
BRANCH   8   9
HETATM    9  C2  UNL     1      24.201   4.360  49.548  1.00  0.00     0.107 C 
HETATM   10  C1  UNL     1      25.392   4.817  49.283  1.00  0.00     0.056 C 
HETATM   11  F1  UNL     1      23.966   3.240  48.828  1.00  0.00    -0.207 F 
ENDBRANCH   8   9
ENDBRANCH   6   7
ENDBRANCH   4   5
ENDBRANCH   3   4
ENDBRANCH   1   3
BRANCH   1  12
HETATM   12  C14 UNL     1      23.176  -0.588  53.682  1.00  0.00     0.054 C 
HETATM   13  C15 UNL     1      22.152  -0.243  52.940  1.00  0.00     0.039 C 
HETATM   14 CL1  UNL     1      23.030  -1.254  55.294  1.00  0.00    -0.083 Cl
ENDBRANCH   1  12
BRANCH   2  15
HETATM   15  C10 UNL     1      26.730  -1.792  52.748  1.00  0.00     0.016 C 
HETATM   16  C11 UNL     1      27.862  -1.202  53.174  1.00  0.00     0.043 A 
HETATM   17  C12 UNL     1      28.161   0.174  53.617  1.00  0.00     0.141 A 
HETATM   18  N2  UNL     1      29.167  -1.797  53.319  1.00  0.00    -0.371 N 
HETATM   19  N1  UNL     1      29.379   0.406  53.967  1.00  0.00    -0.280 NA
HETATM   20  C13 UNL     1      30.122  -0.823  53.808  1.00  0.00     0.270 A 
HETATM   21  H14 UNL     1      29.338  -2.786  53.090  1.00  0.00     0.161 HD
ENDBRANCH   2  15
TORSDOF 7
ENDMDL
MODEL 7
REMARK VINA RESULT:      -6.3      2.984      5.212
REMARK  7 active torsions:
REMARK  status: ('A' for Active; 'I' for Inactive)
REMARK    1  A    between atoms: C2_2  and  C3_4 
REMARK    2  A    between atoms: C4_5  and  C5_6 
REMARK    3  A    between atoms: C6_7  and  C7_8 
REMARK    4  A    between atoms: C7_8  and  O1_9 
REMARK    5  A    between atoms: O1_9  and  C8_10 
REMARK    6  A    between atoms: C8_10  and  C14_18 
REMARK    7  A    between atoms: C9_11  and  C10_12 
ROOT
HETATM    1  C8  UNL     1      24.882   2.084  51.493  1.00  0.00     0.076 C 
HETATM    2  C9  UNL     1      25.915   1.326  51.742  1.00  0.00     0.083 C 
ENDROOT
BRANCH   1   3
HETATM    3  O1  UNL     1      25.814   3.105  51.322  1.00  0.00    -0.349 OA
BRANCH   3   4
HETATM    4  C7  UNL     1      26.438   3.160  50.049  1.00  0.00     0.202 C 
BRANCH   4   5
HETATM    5  C6  UNL     1      26.198   4.507  49.487  1.00  0.00    -0.000 C 
HETATM    6  C5  UNL     1      25.069   5.034  49.077  1.00  0.00    -0.002 C 
BRANCH   6   7
HETATM    7  C4  UNL     1      24.999   6.387  48.543  1.00  0.00     0.003 C 
HETATM    8  C3  UNL     1      24.406   7.390  49.165  1.00  0.00     0.041 C 
BRANCH   8   9
HETATM    9  C2  UNL     1      23.742   7.308  50.455  1.00  0.00     0.107 C 
HETATM   10  C1  UNL     1      22.457   7.487  50.575  1.00  0.00     0.056 C 
HETATM   11  F1  UNL     1      24.288   7.050  51.665  1.00  0.00    -0.207 F 
ENDBRANCH   8   9
ENDBRANCH   6   7
ENDBRANCH   4   5
ENDBRANCH   3   4
ENDBRANCH   1   3
BRANCH   1  12
HETATM   12  C14 UNL     1      23.473   2.398  51.321  1.00  0.00     0.054 C 
HETATM   13  C15 UNL     1      22.711   1.498  50.749  1.00  0.00     0.039 C 
HETATM   14 CL1  UNL     1      22.892   3.949  51.886  1.00  0.00    -0.083 Cl
ENDBRANCH   1  12
BRANCH   2  15
HETATM   15  C10 UNL     1      26.421   0.014  52.083  1.00  0.00     0.016 C 
HETATM   16  C11 UNL     1      27.304   0.220  53.077  1.00  0.00     0.043 A 
HETATM   17  C12 UNL     1      27.758   1.442  53.768  1.00  0.00     0.141 A 
HETATM   18  N2  UNL     1      28.090  -0.766  53.776  1.00  0.00    -0.371 N 
HETATM   19  N1  UNL     1      28.635   1.278  54.697  1.00  0.00    -0.280 NA
HETATM   20  C13 UNL     1      28.922  -0.136  54.783  1.00  0.00     0.270 A 
HETATM   21  H14 UNL     1      28.029  -1.767  53.548  1.00  0.00     0.161 HD
ENDBRANCH   2  15
TORSDOF 7
ENDMDL
MODEL 8
REMARK VINA RESULT:      -6.2      3.900      6.502
REMARK  7 active torsions:
REMARK  status: ('A' for Active; 'I' for Inactive)
REMARK    1  A    between atoms: C2_2  and  C3_4 
REMARK    2  A    between atoms: C4_5  and  C5_6 
REMARK    3  A    between atoms: C6_7  and  C7_8 
REMARK    4  A    between atoms: C7_8  and  O1_9 
REMARK    5  A    between atoms: O1_9  and  C8_10 
REMARK    6  A    between atoms: C8_10  and  C14_18 
REMARK    7  A    between atoms: C9_11  and  C10_12 
ROOT
HETATM    1  C8  UNL     1      23.118   2.638  51.457  1.00  0.00     0.076 C 
HETATM    2  C9  UNL     1      23.449   3.893  51.597  1.00  0.00     0.083 C 
ENDROOT
BRANCH   1   3
HETATM    3  O1  UNL     1      24.387   2.482  50.902  1.00  0.00    -0.349 OA
BRANCH   3   4
HETATM    4  C7  UNL     1      25.463   2.469  51.826  1.00  0.00     0.202 C 
BRANCH   4   5
HETATM    5  C6  UNL     1      25.733   1.059  52.182  1.00  0.00    -0.000 C 
HETATM    6  C5  UNL     1      26.782   0.327  51.893  1.00  0.00    -0.002 C 
BRANCH   6   7
HETATM    7  C4  UNL     1      26.898  -1.059  52.320  1.00  0.00     0.003 C 
HETATM    8  C3  UNL     1      27.778  -1.480  53.210  1.00  0.00     0.041 C 
BRANCH   8   9
HETATM    9  C2  UNL     1      28.754  -0.646  53.891  1.00  0.00     0.107 C 
HETATM   10  C1  UNL     1      30.009  -0.636  53.540  1.00  0.00     0.056 C 
HETATM   11  F1  UNL     1      28.556   0.203  54.924  1.00  0.00    -0.207 F 
ENDBRANCH   8   9
ENDBRANCH   6   7
ENDBRANCH   4   5
ENDBRANCH   3   4
ENDBRANCH   1   3
BRANCH   1  12
HETATM   12  C14 UNL     1      22.257   1.471  51.554  1.00  0.00     0.054 C 
HETATM   13  C15 UNL     1      22.022   0.980  52.747  1.00  0.00     0.039 C 
HETATM   14 CL1  UNL     1      21.595   0.802  50.078  1.00  0.00    -0.083 Cl
ENDBRANCH   1  12
BRANCH   2  15
HETATM   15  C10 UNL     1      23.075   5.219  52.041  1.00  0.00     0.016 C 
HETATM   16  C11 UNL     1      23.851   6.062  51.337  1.00  0.00     0.043 A 
HETATM   17  C12 UNL     1      24.888   5.839  50.311  1.00  0.00     0.141 A 
HETATM   18  N2  UNL     1      23.873   7.502  51.402  1.00  0.00    -0.371 N 
HETATM   19  N1  UNL     1      25.448   6.895  49.829  1.00  0.00    -0.280 NA
HETATM   20  C13 UNL     1      24.853   8.041  50.478  1.00  0.00     0.270 A 
HETATM   21  H14 UNL     1      23.254   8.024  52.037  1.00  0.00     0.161 HD
ENDBRANCH   2  15
TORSDOF 7
ENDMDL
MODEL 9
REMARK VINA RESULT:      -6.2      2.470      3.324
REMARK  7 active torsions:
REMARK  status: ('A' for Active; 'I' for Inactive)
REMARK    1  A    between atoms: C2_2  and  C3_4 
REMARK    2  A    between atoms: C4_5  and  C5_6 
REMARK    3  A    between atoms: C6_7  and  C7_8 
REMARK    4  A    between atoms: C7_8  and  O1_9 
REMARK    5  A    between atoms: O1_9  and  C8_10 
REMARK    6  A    between atoms: C8_10  and  C14_18 
REMARK    7  A    between atoms: C9_11  and  C10_12 
ROOT
HETATM    1  C8  UNL     1      24.596   1.756  52.116  1.00  0.00     0.076 C 
HETATM    2  C9  UNL     1      25.366   0.728  52.349  1.00  0.00     0.083 C 
ENDROOT
BRANCH   1   3
HETATM    3  O1  UNL     1      23.899   1.348  53.252  1.00  0.00    -0.349 OA
BRANCH   3   4
HETATM    4  C7  UNL     1      23.127   0.168  53.106  1.00  0.00     0.202 C 
BRANCH   4   5
HETATM    5  C6  UNL     1      21.823   0.551  52.521  1.00  0.00    -0.000 C 
HETATM    6  C5  UNL     1      21.293   0.170  51.383  1.00  0.00    -0.002 C 
BRANCH   6   7
HETATM    7  C4  UNL     1      19.988   0.644  50.944  1.00  0.00     0.003 C 
HETATM    8  C3  UNL     1      19.782   1.265  49.798  1.00  0.00     0.041 C 
BRANCH   8   9
HETATM    9  C2  UNL     1      20.803   1.571  48.810  1.00  0.00     0.107 C 
HETATM   10  C1  UNL     1      20.954   2.775  48.333  1.00  0.00     0.056 C 
HETATM   11  F1  UNL     1      21.707   0.736  48.251  1.00  0.00    -0.207 F 
ENDBRANCH   8   9
ENDBRANCH   6   7
ENDBRANCH   4   5
ENDBRANCH   3   4
ENDBRANCH   1   3
BRANCH   1  12
HETATM   12  C14 UNL     1      24.133   2.938  51.408  1.00  0.00     0.054 C 
HETATM   13  C15 UNL     1      24.182   2.925  50.098  1.00  0.00     0.039 C 
HETATM   14 CL1  UNL     1      23.543   4.292  52.347  1.00  0.00    -0.083 Cl
ENDBRANCH   1  12
BRANCH   2  15
HETATM   15  C10 UNL     1      26.512  -0.062  51.952  1.00  0.00     0.016 C 
HETATM   16  C11 UNL     1      27.361  -0.005  52.993  1.00  0.00     0.043 A 
HETATM   17  C12 UNL     1      27.284   0.665  54.305  1.00  0.00     0.141 A 
HETATM   18  N2  UNL     1      28.657  -0.627  53.109  1.00  0.00    -0.371 N 
HETATM   19  N1  UNL     1      28.299   0.509  55.084  1.00  0.00    -0.280 NA
HETATM   20  C13 UNL     1      29.257  -0.324  54.393  1.00  0.00     0.270 A 
HETATM   21  H14 UNL     1      29.052  -1.199  52.349  1.00  0.00     0.161 HD
ENDBRANCH   2  15
TORSDOF 7
ENDMDL
