MODEL 1
REMARK VINA RESULT:      -7.7      0.000      0.000
REMARK  5 active torsions:
REMARK  status: ('A' for Active; 'I' for Inactive)
REMARK    1  A    between atoms: C4_4  and  N1_5 
REMARK       I    between atoms: N1_5  and  C5_6 
REMARK    2  A    between atoms: C5_6  and  C6_8 
REMARK    3  A    between atoms: C7_9  and  C8_10 
REMARK    4  A    between atoms: C8_10  and  N2_11 
REMARK    5  A    between atoms: C13_16  and  O2_17 
ROOT
HETATM    1  C1  UNL     1      26.884  -2.476  52.311  1.00  0.00     0.026 C 
HETATM    2  C2  UNL     1      26.618  -1.323  52.930  1.00  0.00    -0.015 C 
HETATM    3  C3  UNL     1      25.171  -1.051  53.055  1.00  0.00     0.038 C 
HETATM    4  C4  UNL     1      24.539   0.091  53.362  1.00  0.00     0.013 C 
HETATM    5  C11 UNL     1      24.873   1.503  53.696  1.00  0.00     0.063 C 
HETATM    6  C12 UNL     1      25.969   2.080  52.858  1.00  0.00     0.070 C 
HETATM    7  C13 UNL     1      27.324   1.928  53.495  1.00  0.00     0.045 C 
HETATM    8  C14 UNL     1      28.047   0.810  53.664  1.00  0.00     0.064 C 
HETATM    9  C15 UNL     1      27.847  -0.608  53.333  1.00  0.00     0.062 C 
HETATM   10  N3  UNL     1      28.836  -1.399  53.380  1.00  0.00    -0.294 NA
HETATM   11  C16 UNL     1      30.145  -0.960  53.744  1.00  0.00     0.178 C 
ENDROOT
BRANCH   4  12
HETATM   12  N1  UNL     1      23.154  -0.229  53.339  1.00  0.00    -0.327 N 
HETATM   13  C5  UNL     1      22.568  -0.902  54.427  1.00  0.00     0.245 C 
HETATM   14  O1  UNL     1      23.220  -1.241  55.439  1.00  0.00    -0.268 OA
HETATM   15  H4  UNL     1      22.644   0.075  52.471  1.00  0.00     0.169 HD
BRANCH  13  16
HETATM   16  C6  UNL     1      21.165  -1.197  54.343  1.00  0.00     0.072 C 
HETATM   17  C7  UNL     1      20.382  -0.588  53.469  1.00  0.00    -0.002 C 
BRANCH  17  18
HETATM   18  C8  UNL     1      18.943  -0.643  53.118  1.00  0.00     0.143 C 
BRANCH  18  19
HETATM   19  N2  UNL     1      18.725   0.089  51.914  1.00  0.00    -0.418 N 
HETATM   20  C9  UNL     1      17.596  -0.288  51.137  1.00  0.00     0.142 C 
HETATM   21  C10 UNL     1      19.888   0.498  51.204  1.00  0.00     0.142 C 
ENDBRANCH  18  19
ENDBRANCH  17  18
ENDBRANCH  13  16
ENDBRANCH   4  12
BRANCH   7  22
HETATM   22  O2  UNL     1      28.114   2.953  54.049  1.00  0.00    -0.365 OA
HETATM   23  H19 UNL     1      29.126   2.789  53.935  1.00  0.00     0.217 HD
ENDBRANCH   7  22
TORSDOF 5
ENDMDL
MODEL 2
REMARK VINA RESULT:      -7.6      1.684      2.251
REMARK  5 active torsions:
REMARK  status: ('A' for Active; 'I' for Inactive)
REMARK    1  A    between atoms: C4_4  and  N1_5 
REMARK       I    between atoms: N1_5  and  C5_6 
REMARK    2  A    between atoms: C5_6  and  C6_8 
REMARK    3  A    between atoms: C7_9  and  C8_10 
REMARK    4  A    between atoms: C8_10  and  N2_11 
REMARK    5  A    between atoms: C13_16  and  O2_17 
ROOT
HETATM    1  C1  UNL     1      26.766  -2.284  52.364  1.00  0.00     0.026 C 
HETATM    2  C2  UNL     1      26.767  -1.035  52.833  1.00  0.00    -0.015 C 
HETATM    3  C3  UNL     1      25.430  -0.405  52.811  1.00  0.00     0.038 C 
HETATM    4  C4  UNL     1      25.091   0.886  52.943  1.00  0.00     0.013 C 
HETATM    5  C11 UNL     1      25.751   2.204  53.151  1.00  0.00     0.063 C 
HETATM    6  C12 UNL     1      26.999   2.388  52.347  1.00  0.00     0.070 C 
HETATM    7  C13 UNL     1      28.238   1.991  53.104  1.00  0.00     0.045 C 
HETATM    8  C14 UNL     1      28.646   0.760  53.449  1.00  0.00     0.064 C 
HETATM    9  C15 UNL     1      28.114  -0.597  53.255  1.00  0.00     0.062 C 
HETATM   10  N3  UNL     1      28.869  -1.592  53.466  1.00  0.00    -0.294 NA
HETATM   11  C16 UNL     1      30.226  -1.445  53.886  1.00  0.00     0.178 C 
ENDROOT
BRANCH   4  12
HETATM   12  N1  UNL     1      23.673   0.913  52.843  1.00  0.00    -0.327 N 
HETATM   13  C5  UNL     1      23.059   1.394  51.673  1.00  0.00     0.245 C 
HETATM   14  O1  UNL     1      23.712   1.810  50.690  1.00  0.00    -0.268 OA
HETATM   15  H4  UNL     1      23.163   0.554  53.689  1.00  0.00     0.169 HD
BRANCH  13  16
HETATM   16  C6  UNL     1      21.623   1.396  51.633  1.00  0.00     0.072 C 
HETATM   17  C7  UNL     1      20.919   0.368  52.073  1.00  0.00    -0.002 C 
BRANCH  17  18
HETATM   18  C8  UNL     1      19.477   0.040  52.180  1.00  0.00     0.143 C 
BRANCH  18  19
HETATM   19  N2  UNL     1      19.257  -0.731  53.360  1.00  0.00    -0.418 N 
HETATM   20  C9  UNL     1      20.413  -1.244  54.008  1.00  0.00     0.142 C 
HETATM   21  C10 UNL     1      18.096  -1.554  53.369  1.00  0.00     0.142 C 
ENDBRANCH  18  19
ENDBRANCH  17  18
ENDBRANCH  13  16
ENDBRANCH   4  12
BRANCH   7  22
HETATM   22  O2  UNL     1      29.230   2.852  53.607  1.00  0.00    -0.365 OA
HETATM   23  H19 UNL     1      30.042   2.349  53.998  1.00  0.00     0.217 HD
ENDBRANCH   7  22
TORSDOF 5
ENDMDL
MODEL 3
REMARK VINA RESULT:      -7.3      4.584      8.133
REMARK  5 active torsions:
REMARK  status: ('A' for Active; 'I' for Inactive)
REMARK    1  A    between atoms: C4_4  and  N1_5 
REMARK       I    between atoms: N1_5  and  C5_6 
REMARK    2  A    between atoms: C5_6  and  C6_8 
REMARK    3  A    between atoms: C7_9  and  C8_10 
REMARK    4  A    between atoms: C8_10  and  N2_11 
REMARK    5  A    between atoms: C13_16  and  O2_17 
ROOT
HETATM    1  C1  UNL     1      22.265   1.412  51.321  1.00  0.00     0.026 C 
HETATM    2  C2  UNL     1      23.451   1.438  51.932  1.00  0.00    -0.015 C 
HETATM    3  C3  UNL     1      24.338   2.510  51.434  1.00  0.00     0.038 C 
HETATM    4  C4  UNL     1      25.658   2.677  51.606  1.00  0.00     0.013 C 
HETATM    5  C11 UNL     1      26.797   1.994  52.279  1.00  0.00     0.063 C 
HETATM    6  C12 UNL     1      26.783   0.506  52.131  1.00  0.00     0.070 C 
HETATM    7  C13 UNL     1      26.089  -0.182  53.276  1.00  0.00     0.045 C 
HETATM    8  C14 UNL     1      24.779  -0.203  53.568  1.00  0.00     0.064 C 
HETATM    9  C15 UNL     1      23.576   0.379  52.956  1.00  0.00     0.062 C 
HETATM   10  N3  UNL     1      22.436  -0.042  53.314  1.00  0.00    -0.294 NA
HETATM   11  C16 UNL     1      22.275  -1.067  54.294  1.00  0.00     0.178 C 
ENDROOT
BRANCH   4  12
HETATM   12  N1  UNL     1      25.978   3.874  50.910  1.00  0.00    -0.327 N 
HETATM   13  C5  UNL     1      26.560   3.812  49.631  1.00  0.00     0.245 C 
HETATM   14  O1  UNL     1      26.816   2.729  49.059  1.00  0.00    -0.268 OA
HETATM   15  H4  UNL     1      25.746   4.761  51.425  1.00  0.00     0.169 HD
BRANCH  13  16
HETATM   16  C6  UNL     1      26.861   5.056  48.980  1.00  0.00     0.072 C 
HETATM   17  C7  UNL     1      28.074   5.326  48.532  1.00  0.00    -0.002 C 
BRANCH  17  18
HETATM   18  C8  UNL     1      28.718   6.467  47.837  1.00  0.00     0.143 C 
BRANCH  18  19
HETATM   19  N2  UNL     1      29.955   6.770  48.479  1.00  0.00    -0.418 N 
HETATM   20  C9  UNL     1      30.368   8.130  48.452  1.00  0.00     0.142 C 
HETATM   21  C10 UNL     1      30.977   5.785  48.378  1.00  0.00     0.142 C 
ENDBRANCH  18  19
ENDBRANCH  17  18
ENDBRANCH  13  16
ENDBRANCH   4  12
BRANCH   7  22
HETATM   22  O2  UNL     1      26.694  -0.955  54.285  1.00  0.00    -0.365 OA
HETATM   23  H19 UNL     1      27.477  -1.531  53.938  1.00  0.00     0.217 HD
ENDBRANCH   7  22
TORSDOF 5
ENDMDL
MODEL 4
REMARK VINA RESULT:      -7.2      4.440      7.348
REMARK  5 active torsions:
REMARK  status: ('A' for Active; 'I' for Inactive)
REMARK    1  A    between atoms: C4_4  and  N1_5 
REMARK       I    between atoms: N1_5  and  C5_6 
REMARK    2  A    between atoms: C5_6  and  C6_8 
REMARK    3  A    between atoms: C7_9  and  C8_10 
REMARK    4  A    between atoms: C8_10  and  N2_11 
REMARK    5  A    between atoms: C13_16  and  O2_17 
ROOT
HETATM    1  C1  UNL     1      22.305   1.364  51.177  1.00  0.00     0.026 C 
HETATM    2  C2  UNL     1      23.468   1.426  51.828  1.00  0.00    -0.015 C 
HETATM    3  C3  UNL     1      24.350   2.506  51.340  1.00  0.00     0.038 C 
HETATM    4  C4  UNL     1      25.660   2.703  51.554  1.00  0.00     0.013 C 
HETATM    5  C11 UNL     1      26.787   2.058  52.280  1.00  0.00     0.063 C 
HETATM    6  C12 UNL     1      26.808   0.567  52.163  1.00  0.00     0.070 C 
HETATM    7  C13 UNL     1      26.089  -0.112  53.297  1.00  0.00     0.045 C 
HETATM    8  C14 UNL     1      24.770  -0.154  53.543  1.00  0.00     0.064 C 
HETATM    9  C15 UNL     1      23.578   0.391  52.878  1.00  0.00     0.062 C 
HETATM   10  N3  UNL     1      22.434  -0.046  53.205  1.00  0.00    -0.294 NA
HETATM   11  C16 UNL     1      22.260  -1.054  54.200  1.00  0.00     0.178 C 
ENDROOT
BRANCH   4  12
HETATM   12  N1  UNL     1      25.980   3.893  50.844  1.00  0.00    -0.327 N 
HETATM   13  C5  UNL     1      26.659   3.819  49.614  1.00  0.00     0.245 C 
HETATM   14  O1  UNL     1      27.003   2.732  49.099  1.00  0.00    -0.268 OA
HETATM   15  H4  UNL     1      25.672   4.783  51.311  1.00  0.00     0.169 HD
BRANCH  13  16
HETATM   16  C6  UNL     1      26.954   5.056  48.947  1.00  0.00     0.072 C 
HETATM   17  C7  UNL     1      26.091   6.056  48.934  1.00  0.00    -0.002 C 
BRANCH  17  18
HETATM   18  C8  UNL     1      26.064   7.425  48.364  1.00  0.00     0.143 C 
BRANCH  18  19
HETATM   19  N2  UNL     1      25.840   8.366  49.412  1.00  0.00    -0.418 N 
HETATM   20  C9  UNL     1      26.993   8.864  50.076  1.00  0.00     0.142 C 
HETATM   21  C10 UNL     1      24.677   8.161  50.207  1.00  0.00     0.142 C 
ENDBRANCH  18  19
ENDBRANCH  17  18
ENDBRANCH  13  16
ENDBRANCH   4  12
BRANCH   7  22
HETATM   22  O2  UNL     1      26.673  -0.852  54.342  1.00  0.00    -0.365 OA
HETATM   23  H19 UNL     1      26.305  -0.596  55.272  1.00  0.00     0.217 HD
ENDBRANCH   7  22
TORSDOF 5
ENDMDL
MODEL 5
REMARK VINA RESULT:      -6.7      4.104      7.170
REMARK  5 active torsions:
REMARK  status: ('A' for Active; 'I' for Inactive)
REMARK    1  A    between atoms: C4_4  and  N1_5 
REMARK       I    between atoms: N1_5  and  C5_6 
REMARK    2  A    between atoms: C5_6  and  C6_8 
REMARK    3  A    between atoms: C7_9  and  C8_10 
REMARK    4  A    between atoms: C8_10  and  N2_11 
REMARK    5  A    between atoms: C13_16  and  O2_17 
ROOT
HETATM    1  C1  UNL     1      21.284   0.475  51.134  1.00  0.00     0.026 C 
HETATM    2  C2  UNL     1      22.359   0.722  51.885  1.00  0.00    -0.015 C 
HETATM    3  C3  UNL     1      23.165   1.857  51.390  1.00  0.00     0.038 C 
HETATM    4  C4  UNL     1      24.416   2.222  51.710  1.00  0.00     0.013 C 
HETATM    5  C11 UNL     1      25.525   1.770  52.594  1.00  0.00     0.063 C 
HETATM    6  C12 UNL     1      25.720   0.287  52.609  1.00  0.00     0.070 C 
HETATM    7  C13 UNL     1      24.964  -0.384  53.724  1.00  0.00     0.045 C 
HETATM    8  C14 UNL     1      23.639  -0.561  53.847  1.00  0.00     0.064 C 
HETATM    9  C15 UNL     1      22.471  -0.211  53.026  1.00  0.00     0.062 C 
HETATM   10  N3  UNL     1      21.354  -0.753  53.279  1.00  0.00    -0.294 NA
HETATM   11  C16 UNL     1      21.187  -1.697  54.338  1.00  0.00     0.178 C 
ENDROOT
BRANCH   4  12
HETATM   12  N1  UNL     1      24.677   3.384  50.934  1.00  0.00    -0.327 N 
HETATM   13  C5  UNL     1      24.214   4.639  51.367  1.00  0.00     0.245 C 
HETATM   14  O1  UNL     1      23.568   4.790  52.427  1.00  0.00    -0.268 OA
HETATM   15  H4  UNL     1      25.224   3.213  50.052  1.00  0.00     0.169 HD
BRANCH  13  16
HETATM   16  C6  UNL     1      24.510   5.774  50.538  1.00  0.00     0.072 C 
HETATM   17  C7  UNL     1      25.176   5.646  49.404  1.00  0.00    -0.002 C 
BRANCH  17  18
HETATM   18  C8  UNL     1      25.641   6.567  48.338  1.00  0.00     0.143 C 
BRANCH  18  19
HETATM   19  N2  UNL     1      27.066   6.549  48.289  1.00  0.00    -0.418 N 
HETATM   20  C9  UNL     1      27.693   5.292  48.510  1.00  0.00     0.142 C 
HETATM   21  C10 UNL     1      27.730   7.698  48.802  1.00  0.00     0.142 C 
ENDBRANCH  18  19
ENDBRANCH  17  18
ENDBRANCH  13  16
ENDBRANCH   4  12
BRANCH   7  22
HETATM   22  O2  UNL     1      25.513  -0.969  54.881  1.00  0.00    -0.365 OA
HETATM   23  H19 UNL     1      25.571  -0.315  55.676  1.00  0.00     0.217 HD
ENDBRANCH   7  22
TORSDOF 5
ENDMDL
MODEL 6
REMARK VINA RESULT:      -6.5      3.030      5.217
REMARK  5 active torsions:
REMARK  status: ('A' for Active; 'I' for Inactive)
REMARK    1  A    between atoms: C4_4  and  N1_5 
REMARK       I    between atoms: N1_5  and  C5_6 
REMARK    2  A    between atoms: C5_6  and  C6_8 
REMARK    3  A    between atoms: C7_9  and  C8_10 
REMARK    4  A    between atoms: C8_10  and  N2_11 
REMARK    5  A    between atoms: C13_16  and  O2_17 
ROOT
HETATM    1  C1  UNL     1      24.048   1.885  51.583  1.00  0.00     0.026 C 
HETATM    2  C2  UNL     1      23.288   0.957  52.170  1.00  0.00    -0.015 C 
HETATM    3  C3  UNL     1      21.862   1.052  51.794  1.00  0.00     0.038 C 
HETATM    4  C4  UNL     1      20.788   0.488  52.367  1.00  0.00     0.013 C 
HETATM    5  C11 UNL     1      20.467  -0.405  53.514  1.00  0.00     0.063 C 
HETATM    6  C12 UNL     1      21.237  -0.092  54.758  1.00  0.00     0.070 C 
HETATM    7  C13 UNL     1      22.500  -0.901  54.874  1.00  0.00     0.045 C 
HETATM    8  C14 UNL     1      23.628  -0.797  54.154  1.00  0.00     0.064 C 
HETATM    9  C15 UNL     1      24.072   0.068  53.051  1.00  0.00     0.062 C 
HETATM   10  N3  UNL     1      25.304   0.105  52.754  1.00  0.00    -0.294 NA
HETATM   11  C16 UNL     1      26.281  -0.664  53.455  1.00  0.00     0.178 C 
ENDROOT
BRANCH   4  12
HETATM   12  N1  UNL     1      19.679   0.921  51.590  1.00  0.00    -0.327 N 
HETATM   13  C5  UNL     1      19.144   2.208  51.783  1.00  0.00     0.245 C 
HETATM   14  O1  UNL     1      19.606   3.011  52.623  1.00  0.00    -0.268 OA
HETATM   15  H4  UNL     1      19.322   0.217  50.896  1.00  0.00     0.169 HD
BRANCH  13  16
HETATM   16  C6  UNL     1      18.023   2.586  50.969  1.00  0.00     0.072 C 
HETATM   17  C7  UNL     1      16.780   2.445  51.395  1.00  0.00    -0.002 C 
BRANCH  17  18
HETATM   18  C8  UNL     1      15.432   2.720  50.842  1.00  0.00     0.143 C 
BRANCH  18  19
HETATM   19  N2  UNL     1      14.856   3.825  51.535  1.00  0.00    -0.418 N 
HETATM   20  C9  UNL     1      15.164   3.939  52.918  1.00  0.00     0.142 C 
HETATM   21  C10 UNL     1      13.545   4.207  51.134  1.00  0.00     0.142 C 
ENDBRANCH  18  19
ENDBRANCH  17  18
ENDBRANCH  13  16
ENDBRANCH   4  12
BRANCH   7  22
HETATM   22  O2  UNL     1      22.749  -1.948  55.782  1.00  0.00    -0.365 OA
HETATM   23  H19 UNL     1      22.344  -2.848  55.481  1.00  0.00     0.217 HD
ENDBRANCH   7  22
TORSDOF 5
ENDMDL
MODEL 7
REMARK VINA RESULT:      -6.5      5.016      7.897
REMARK  5 active torsions:
REMARK  status: ('A' for Active; 'I' for Inactive)
REMARK    1  A    between atoms: C4_4  and  N1_5 
REMARK       I    between atoms: N1_5  and  C5_6 
REMARK    2  A    between atoms: C5_6  and  C6_8 
REMARK    3  A    between atoms: C7_9  and  C8_10 
REMARK    4  A    between atoms: C8_10  and  N2_11 
REMARK    5  A    between atoms: C13_16  and  O2_17 
ROOT
HETATM    1  C1  UNL     1      27.837   5.207  48.598  1.00  0.00     0.026 C 
HETATM    2  C2  UNL     1      26.562   5.137  48.985  1.00  0.00    -0.015 C 
HETATM    3  C3  UNL     1      26.254   3.910  49.750  1.00  0.00     0.038 C 
HETATM    4  C4  UNL     1      25.065   3.373  50.062  1.00  0.00     0.013 C 
HETATM    5  C11 UNL     1      23.618   3.653  49.854  1.00  0.00     0.063 C 
HETATM    6  C12 UNL     1      23.287   4.128  48.474  1.00  0.00     0.070 C 
HETATM    7  C13 UNL     1      23.281   5.628  48.366  1.00  0.00     0.045 C 
HETATM    8  C14 UNL     1      24.325   6.472  48.401  1.00  0.00     0.064 C 
HETATM    9  C15 UNL     1      25.779   6.310  48.546  1.00  0.00     0.062 C 
HETATM   10  N3  UNL     1      26.539   7.286  48.272  1.00  0.00    -0.294 NA
HETATM   11  C16 UNL     1      26.034   8.544  47.823  1.00  0.00     0.178 C 
ENDROOT
BRANCH   4  12
HETATM   12  N1  UNL     1      25.368   2.200  50.807  1.00  0.00    -0.327 N 
HETATM   13  C5  UNL     1      25.125   2.163  52.192  1.00  0.00     0.245 C 
HETATM   14  O1  UNL     1      24.644   3.133  52.818  1.00  0.00    -0.268 OA
HETATM   15  H4  UNL     1      25.769   1.409  50.243  1.00  0.00     0.169 HD
BRANCH  13  16
HETATM   16  C6  UNL     1      25.453   0.951  52.888  1.00  0.00     0.072 C 
HETATM   17  C7  UNL     1      26.539   0.258  52.594  1.00  0.00    -0.002 C 
BRANCH  17  18
HETATM   18  C8  UNL     1      27.165  -0.992  53.088  1.00  0.00     0.143 C 
BRANCH  18  19
HETATM   19  N2  UNL     1      28.477  -0.704  53.566  1.00  0.00    -0.418 N 
HETATM   20  C9  UNL     1      29.447  -1.733  53.420  1.00  0.00     0.142 C 
HETATM   21  C10 UNL     1      28.560   0.096  54.740  1.00  0.00     0.142 C 
ENDBRANCH  18  19
ENDBRANCH  17  18
ENDBRANCH  13  16
ENDBRANCH   4  12
BRANCH   7  22
HETATM   22  O2  UNL     1      22.156   6.457  48.201  1.00  0.00    -0.365 OA
HETATM   23  H19 UNL     1      21.429   6.038  47.600  1.00  0.00     0.217 HD
ENDBRANCH   7  22
TORSDOF 5
ENDMDL
MODEL 8
REMARK VINA RESULT:      -6.2      3.663      7.620
REMARK  5 active torsions:
REMARK  status: ('A' for Active; 'I' for Inactive)
REMARK    1  A    between atoms: C4_4  and  N1_5 
REMARK       I    between atoms: N1_5  and  C5_6 
REMARK    2  A    between atoms: C5_6  and  C6_8 
REMARK    3  A    between atoms: C7_9  and  C8_10 
REMARK    4  A    between atoms: C8_10  and  N2_11 
REMARK    5  A    between atoms: C13_16  and  O2_17 
ROOT
HETATM    1  C1  UNL     1      19.901   0.621  50.338  1.00  0.00     0.026 C 
HETATM    2  C2  UNL     1      20.688   0.628  51.416  1.00  0.00    -0.015 C 
HETATM    3  C3  UNL     1      21.907   1.446  51.240  1.00  0.00     0.038 C 
HETATM    4  C4  UNL     1      23.029   1.477  51.974  1.00  0.00     0.013 C 
HETATM    5  C11 UNL     1      23.598   0.819  53.182  1.00  0.00     0.063 C 
HETATM    6  C12 UNL     1      23.335  -0.652  53.250  1.00  0.00     0.070 C 
HETATM    7  C13 UNL     1      22.091  -0.981  54.030  1.00  0.00     0.045 C 
HETATM    8  C14 UNL     1      20.810  -0.771  53.687  1.00  0.00     0.064 C 
HETATM    9  C15 UNL     1      20.137  -0.189  52.517  1.00  0.00     0.062 C 
HETATM   10  N3  UNL     1      18.893  -0.374  52.365  1.00  0.00    -0.294 NA
HETATM   11  C16 UNL     1      18.116  -1.133  53.293  1.00  0.00     0.178 C 
ENDROOT
BRANCH   4  12
HETATM   12  N1  UNL     1      23.861   2.444  51.346  1.00  0.00    -0.327 N 
HETATM   13  C5  UNL     1      23.787   3.794  51.733  1.00  0.00     0.245 C 
HETATM   14  O1  UNL     1      23.009   4.198  52.625  1.00  0.00    -0.268 OA
HETATM   15  H4  UNL     1      24.500   2.062  50.603  1.00  0.00     0.169 HD
BRANCH  13  16
HETATM   16  C6  UNL     1      24.653   4.722  51.060  1.00  0.00     0.072 C 
HETATM   17  C7  UNL     1      25.310   4.384  49.965  1.00  0.00    -0.002 C 
BRANCH  17  18
HETATM   18  C8  UNL     1      26.255   5.061  49.044  1.00  0.00     0.143 C 
BRANCH  18  19
HETATM   19  N2  UNL     1      25.908   6.441  48.946  1.00  0.00    -0.418 N 
HETATM   20  C9  UNL     1      24.813   6.762  48.098  1.00  0.00     0.142 C 
HETATM   21  C10 UNL     1      26.987   7.367  48.983  1.00  0.00     0.142 C 
ENDBRANCH  18  19
ENDBRANCH  17  18
ENDBRANCH  13  16
ENDBRANCH   4  12
BRANCH   7  22
HETATM   22  O2  UNL     1      22.028  -1.586  55.300  1.00  0.00    -0.365 OA
HETATM   23  H19 UNL     1      22.497  -2.504  55.333  1.00  0.00     0.217 HD
ENDBRANCH   7  22
TORSDOF 5
ENDMDL
MODEL 9
REMARK VINA RESULT:      -6.2      4.369      6.413
REMARK  5 active torsions:
REMARK  status: ('A' for Active; 'I' for Inactive)
REMARK    1  A    between atoms: C4_4  and  N1_5 
REMARK       I    between atoms: N1_5  and  C5_6 
REMARK    2  A    between atoms: C5_6  and  C6_8 
REMARK    3  A    between atoms: C7_9  and  C8_10 
REMARK    4  A    between atoms: C8_10  and  N2_11 
REMARK    5  A    between atoms: C13_16  and  O2_17 
ROOT
HETATM    1  C1  UNL     1      21.288   0.274  51.276  1.00  0.00     0.026 C 
HETATM    2  C2  UNL     1      22.434   0.603  51.874  1.00  0.00    -0.015 C 
HETATM    3  C3  UNL     1      23.133   1.725  51.213  1.00  0.00     0.038 C 
HETATM    4  C4  UNL     1      24.399   2.146  51.354  1.00  0.00     0.013 C 
HETATM    5  C11 UNL     1      25.621   1.788  52.124  1.00  0.00     0.063 C 
HETATM    6  C12 UNL     1      25.871   0.316  52.212  1.00  0.00     0.070 C 
HETATM    7  C13 UNL     1      25.279  -0.298  53.451  1.00  0.00     0.045 C 
HETATM    8  C14 UNL     1      23.985  -0.504  53.745  1.00  0.00     0.064 C 
HETATM    9  C15 UNL     1      22.716  -0.246  53.051  1.00  0.00     0.062 C 
HETATM   10  N3  UNL     1      21.657  -0.801  53.472  1.00  0.00    -0.294 NA
HETATM   11  C16 UNL     1      21.652  -1.674  54.602  1.00  0.00     0.178 C 
ENDROOT
BRANCH   4  12
HETATM   12  N1  UNL     1      24.523   3.259  50.478  1.00  0.00    -0.327 N 
HETATM   13  C5  UNL     1      24.202   4.551  50.931  1.00  0.00     0.245 C 
HETATM   14  O1  UNL     1      23.804   4.778  52.095  1.00  0.00    -0.268 OA
HETATM   15  H4  UNL     1      24.862   3.025  49.511  1.00  0.00     0.169 HD
BRANCH  13  16
HETATM   16  C6  UNL     1      24.348   5.633  49.998  1.00  0.00     0.072 C 
HETATM   17  C7  UNL     1      23.711   5.637  48.840  1.00  0.00    -0.002 C 
BRANCH  17  18
HETATM   18  C8  UNL     1      23.631   6.555  47.678  1.00  0.00     0.143 C 
BRANCH  18  19
HETATM   19  N2  UNL     1      22.346   6.433  47.071  1.00  0.00    -0.418 N 
HETATM   20  C9  UNL     1      21.361   5.720  47.807  1.00  0.00     0.142 C 
HETATM   21  C10 UNL     1      22.328   6.280  45.656  1.00  0.00     0.142 C 
ENDBRANCH  18  19
ENDBRANCH  17  18
ENDBRANCH  13  16
ENDBRANCH   4  12
BRANCH   7  22
HETATM   22  O2  UNL     1      25.982  -0.787  54.569  1.00  0.00    -0.365 OA
HETATM   23  H19 UNL     1      26.666  -1.520  54.326  1.00  0.00     0.217 HD
ENDBRANCH   7  22
TORSDOF 5
ENDMDL
