MODEL 1
REMARK VINA RESULT:      -6.9      0.000      0.000
REMARK  5 active torsions:
REMARK  status: ('A' for Active; 'I' for Inactive)
REMARK    1  A    between atoms: C2_2  and  C19_22 
REMARK    2  A    between atoms: C9_10  and  C10_11 
REMARK    3  A    between atoms: C10_11  and  C11_12 
REMARK    4  A    between atoms: C11_12  and  O2_14 
REMARK    5  A    between atoms: C12_15  and  C14_17 
ROOT
HETATM    1  C1  UNL     1      23.226   4.040  52.296  1.00  0.00     0.044 C 
HETATM    2  C2  UNL     1      21.972   3.512  51.769  1.00  0.00     0.053 C 
HETATM    3  C3  UNL     1      20.985   4.479  51.252  1.00  0.00     0.036 C 
HETATM    4  C4  UNL     1      20.046   3.745  50.335  1.00  0.00     0.005 C 
HETATM    5  C5  UNL     1      19.261   2.748  51.133  1.00  0.00     0.026 C 
HETATM    6  C6  UNL     1      19.927   2.148  52.286  1.00  0.00     0.096 C 
HETATM    7  N1  UNL     1      21.328   2.448  52.454  1.00  0.00    -0.381 N 
HETATM    8  C7  UNL     1      21.248   1.256  53.137  1.00  0.00     0.058 A 
HETATM    9  C8  UNL     1      20.410   0.640  53.774  1.00  0.00    -0.007 A 
HETATM   10  C9  UNL     1      20.095   0.619  52.236  1.00  0.00     0.028 A 
HETATM   11  C12 UNL     1      21.321   0.149  51.496  1.00  0.00     0.038 C 
HETATM   12  C13 UNL     1      22.324   0.268  52.752  1.00  0.00     0.046 C 
ENDROOT
BRANCH  10  13
HETATM   13  C10 UNL     1      18.874  -0.144  51.987  1.00  0.00     0.127 C 
BRANCH  13  14
HETATM   14  C11 UNL     1      18.550  -1.034  53.143  1.00  0.00     0.140 C 
HETATM   15  O1  UNL     1      17.384  -0.932  53.588  1.00  0.00    -0.650 OA
BRANCH  14  16
HETATM   16  O2  UNL     1      19.063  -2.014  54.000  1.00  0.00    -0.776 OA
HETATM   17  H14 UNL     1      18.960  -1.941  55.020  1.00  0.00     0.167 HD
ENDBRANCH  14  16
ENDBRANCH  13  14
ENDBRANCH  10  13
BRANCH  11  18
HETATM   18  C14 UNL     1      21.938   1.138  50.513  1.00  0.00    -0.044 A 
HETATM   19  C15 UNL     1      21.142   1.156  49.336  1.00  0.00     0.008 A 
HETATM   20  C16 UNL     1      21.497   1.944  48.279  1.00  0.00     0.001 A 
HETATM   21  C17 UNL     1      22.615   2.745  48.293  1.00  0.00     0.001 A 
HETATM   22  C18 UNL     1      23.440   2.793  49.382  1.00  0.00     0.010 A 
HETATM   23  C19 UNL     1      23.113   2.016  50.458  1.00  0.00    -0.024 A 
ENDBRANCH  11  18
TORSDOF 5
ENDMDL
MODEL 2
REMARK VINA RESULT:      -6.9      3.969      5.986
REMARK  5 active torsions:
REMARK  status: ('A' for Active; 'I' for Inactive)
REMARK    1  A    between atoms: C2_2  and  C19_22 
REMARK    2  A    between atoms: C9_10  and  C10_11 
REMARK    3  A    between atoms: C10_11  and  C11_12 
REMARK    4  A    between atoms: C11_12  and  O2_14 
REMARK    5  A    between atoms: C12_15  and  C14_17 
ROOT
HETATM    1  C1  UNL     1      22.121   1.164  50.228  1.00  0.00     0.044 C 
HETATM    2  C2  UNL     1      23.286   2.005  50.482  1.00  0.00     0.053 C 
HETATM    3  C3  UNL     1      23.671   2.974  49.437  1.00  0.00     0.036 C 
HETATM    4  C4  UNL     1      24.525   4.034  50.076  1.00  0.00     0.005 C 
HETATM    5  C5  UNL     1      25.805   3.414  50.548  1.00  0.00     0.026 C 
HETATM    6  C6  UNL     1      25.746   2.024  50.992  1.00  0.00     0.096 C 
HETATM    7  N1  UNL     1      24.434   1.429  51.087  1.00  0.00    -0.381 N 
HETATM    8  C7  UNL     1      25.127   0.641  51.977  1.00  0.00     0.058 A 
HETATM    9  C8  UNL     1      26.272   0.247  52.126  1.00  0.00    -0.007 A 
HETATM   10  C9  UNL     1      26.140   1.776  52.458  1.00  0.00     0.028 A 
HETATM   11  C12 UNL     1      25.019   1.963  53.448  1.00  0.00     0.038 C 
HETATM   12  C13 UNL     1      24.425   0.473  53.304  1.00  0.00     0.046 C 
ENDROOT
BRANCH  10  13
HETATM   13  C10 UNL     1      27.438   2.312  52.863  1.00  0.00     0.127 C 
BRANCH  13  14
HETATM   14  C11 UNL     1      28.102   1.419  53.862  1.00  0.00     0.140 C 
HETATM   15  O1  UNL     1      29.277   1.086  53.586  1.00  0.00    -0.650 OA
BRANCH  14  16
HETATM   16  O2  UNL     1      27.928   0.750  55.078  1.00  0.00    -0.776 OA
HETATM   17  H14 UNL     1      28.707   0.258  55.535  1.00  0.00     0.167 HD
ENDBRANCH  14  16
ENDBRANCH  13  14
ENDBRANCH  10  13
BRANCH  11  18
HETATM   18  C14 UNL     1      23.842   2.812  52.982  1.00  0.00    -0.044 A 
HETATM   19  C15 UNL     1      24.234   4.178  53.010  1.00  0.00     0.008 A 
HETATM   20  C16 UNL     1      23.344   5.155  52.664  1.00  0.00     0.001 A 
HETATM   21  C17 UNL     1      22.054   4.880  52.278  1.00  0.00     0.001 A 
HETATM   22  C18 UNL     1      21.587   3.597  52.221  1.00  0.00     0.010 A 
HETATM   23  C19 UNL     1      22.452   2.593  52.560  1.00  0.00    -0.024 A 
ENDBRANCH  11  18
TORSDOF 5
ENDMDL
MODEL 3
REMARK VINA RESULT:      -6.9      3.481      5.501
REMARK  5 active torsions:
REMARK  status: ('A' for Active; 'I' for Inactive)
REMARK    1  A    between atoms: C2_2  and  C19_22 
REMARK    2  A    between atoms: C9_10  and  C10_11 
REMARK    3  A    between atoms: C10_11  and  C11_12 
REMARK    4  A    between atoms: C11_12  and  O2_14 
REMARK    5  A    between atoms: C12_15  and  C14_17 
ROOT
HETATM    1  C1  UNL     1      21.223   1.482  50.123  1.00  0.00     0.044 C 
HETATM    2  C2  UNL     1      22.487   2.210  50.169  1.00  0.00     0.053 C 
HETATM    3  C3  UNL     1      22.959   2.843  48.921  1.00  0.00     0.036 C 
HETATM    4  C4  UNL     1      23.950   3.913  49.286  1.00  0.00     0.005 C 
HETATM    5  C5  UNL     1      25.158   3.272  49.900  1.00  0.00     0.026 C 
HETATM    6  C6  UNL     1      24.944   2.049  50.669  1.00  0.00     0.096 C 
HETATM    7  N1  UNL     1      23.573   1.661  50.901  1.00  0.00    -0.381 N 
HETATM    8  C7  UNL     1      24.189   1.033  51.959  1.00  0.00     0.058 A 
HETATM    9  C8  UNL     1      25.282   0.549  52.203  1.00  0.00    -0.007 A 
HETATM   10  C9  UNL     1      25.344   2.117  52.153  1.00  0.00     0.028 A 
HETATM   11  C12 UNL     1      24.280   2.675  53.063  1.00  0.00     0.038 C 
HETATM   12  C13 UNL     1      23.507   1.278  53.284  1.00  0.00     0.046 C 
ENDROOT
BRANCH  10  13
HETATM   13  C10 UNL     1      26.707   2.571  52.420  1.00  0.00     0.127 C 
BRANCH  13  14
HETATM   14  C11 UNL     1      27.160   2.144  53.779  1.00  0.00     0.140 C 
HETATM   15  O1  UNL     1      28.266   2.603  54.145  1.00  0.00    -0.650 OA
BRANCH  14  16
HETATM   16  O2  UNL     1      26.821   1.376  54.900  1.00  0.00    -0.776 OA
HETATM   17  H14 UNL     1      26.493   1.815  55.770  1.00  0.00     0.167 HD
ENDBRANCH  14  16
ENDBRANCH  13  14
ENDBRANCH  10  13
BRANCH  11  18
HETATM   18  C14 UNL     1      23.201   3.523  52.399  1.00  0.00    -0.044 A 
HETATM   19  C15 UNL     1      23.764   4.786  52.068  1.00  0.00     0.008 A 
HETATM   20  C16 UNL     1      22.992   5.750  51.485  1.00  0.00     0.001 A 
HETATM   21  C17 UNL     1      21.662   5.559  51.193  1.00  0.00     0.001 A 
HETATM   22  C18 UNL     1      21.035   4.378  51.475  1.00  0.00     0.010 A 
HETATM   23  C19 UNL     1      21.779   3.390  52.059  1.00  0.00    -0.024 A 
ENDBRANCH  11  18
TORSDOF 5
ENDMDL
MODEL 4
REMARK VINA RESULT:      -6.7      3.403      4.955
REMARK  5 active torsions:
REMARK  status: ('A' for Active; 'I' for Inactive)
REMARK    1  A    between atoms: C2_2  and  C19_22 
REMARK    2  A    between atoms: C9_10  and  C10_11 
REMARK    3  A    between atoms: C10_11  and  C11_12 
REMARK    4  A    between atoms: C11_12  and  O2_14 
REMARK    5  A    between atoms: C12_15  and  C14_17 
ROOT
HETATM    1  C1  UNL     1      19.754   3.753  51.954  1.00  0.00     0.044 C 
HETATM    2  C2  UNL     1      20.740   2.722  51.646  1.00  0.00     0.053 C 
HETATM    3  C3  UNL     1      20.301   1.314  51.706  1.00  0.00     0.036 C 
HETATM    4  C4  UNL     1      21.263   0.489  50.897  1.00  0.00     0.005 C 
HETATM    5  C5  UNL     1      22.610   0.524  51.553  1.00  0.00     0.026 C 
HETATM    6  C6  UNL     1      22.969   1.746  52.269  1.00  0.00     0.096 C 
HETATM    7  N1  UNL     1      22.063   2.862  52.141  1.00  0.00    -0.381 N 
HETATM    8  C7  UNL     1      23.228   3.525  52.450  1.00  0.00     0.058 A 
HETATM    9  C8  UNL     1      24.249   3.303  53.081  1.00  0.00    -0.007 A 
HETATM   10  C9  UNL     1      24.210   2.486  51.740  1.00  0.00     0.028 A 
HETATM   11  C12 UNL     1      23.935   3.435  50.602  1.00  0.00     0.038 C 
HETATM   12  C13 UNL     1      23.522   4.686  51.530  1.00  0.00     0.046 C 
ENDROOT
BRANCH  10  13
HETATM   13  C10 UNL     1      25.421   1.679  51.612  1.00  0.00     0.127 C 
BRANCH  13  14
HETATM   14  C11 UNL     1      26.627   2.543  51.425  1.00  0.00     0.140 C 
HETATM   15  O1  UNL     1      27.591   2.291  52.183  1.00  0.00    -0.650 OA
BRANCH  14  16
HETATM   16  O2  UNL     1      27.158   3.606  50.685  1.00  0.00    -0.776 OA
HETATM   17  H14 UNL     1      28.112   3.951  50.853  1.00  0.00     0.167 HD
ENDBRANCH  14  16
ENDBRANCH  13  14
ENDBRANCH  10  13
BRANCH  11  18
HETATM   18  C14 UNL     1      22.649   3.194  49.818  1.00  0.00    -0.044 A 
HETATM   19  C15 UNL     1      22.837   2.056  48.987  1.00  0.00     0.008 A 
HETATM   20  C16 UNL     1      21.838   1.642  48.154  1.00  0.00     0.001 A 
HETATM   21  C17 UNL     1      20.625   2.285  48.073  1.00  0.00     0.001 A 
HETATM   22  C18 UNL     1      20.353   3.388  48.834  1.00  0.00     0.010 A 
HETATM   23  C19 UNL     1      21.333   3.829  49.680  1.00  0.00    -0.024 A 
ENDBRANCH  11  18
TORSDOF 5
ENDMDL
MODEL 5
REMARK VINA RESULT:      -6.6     10.429     12.821
REMARK  5 active torsions:
REMARK  status: ('A' for Active; 'I' for Inactive)
REMARK    1  A    between atoms: C2_2  and  C19_22 
REMARK    2  A    between atoms: C9_10  and  C10_11 
REMARK    3  A    between atoms: C10_11  and  C11_12 
REMARK    4  A    between atoms: C11_12  and  O2_14 
REMARK    5  A    between atoms: C12_15  and  C14_17 
ROOT
HETATM    1  C1  UNL     1      35.220   7.138  48.361  1.00  0.00     0.044 C 
HETATM    2  C2  UNL     1      34.065   6.961  47.488  1.00  0.00     0.053 C 
HETATM    3  C3  UNL     1      34.218   7.329  46.066  1.00  0.00     0.036 C 
HETATM    4  C4  UNL     1      33.146   6.625  45.283  1.00  0.00     0.005 C 
HETATM    5  C5  UNL     1      31.807   7.155  45.699  1.00  0.00     0.026 C 
HETATM    6  C6  UNL     1      31.666   7.589  47.086  1.00  0.00     0.096 C 
HETATM    7  N1  UNL     1      32.776   7.316  47.967  1.00  0.00    -0.381 N 
HETATM    8  C7  UNL     1      31.752   7.399  48.882  1.00  0.00     0.058 A 
HETATM    9  C8  UNL     1      30.684   7.981  48.985  1.00  0.00    -0.007 A 
HETATM   10  C9  UNL     1      30.614   6.832  47.916  1.00  0.00     0.028 A 
HETATM   11  C12 UNL     1      31.113   5.555  48.543  1.00  0.00     0.038 C 
HETATM   12  C13 UNL     1      31.726   6.250  49.861  1.00  0.00     0.046 C 
ENDROOT
BRANCH  10  13
HETATM   13  C10 UNL     1      29.275   6.771  47.336  1.00  0.00     0.127 C 
BRANCH  13  14
HETATM   14  C11 UNL     1      28.258   6.397  48.366  1.00  0.00     0.140 C 
HETATM   15  O1  UNL     1      27.910   5.194  48.366  1.00  0.00    -0.650 OA
BRANCH  14  16
HETATM   16  O2  UNL     1      27.473   6.887  49.417  1.00  0.00    -0.776 OA
HETATM   17  H14 UNL     1      26.540   6.501  49.613  1.00  0.00     0.167 HD
ENDBRANCH  14  16
ENDBRANCH  13  14
ENDBRANCH  10  13
BRANCH  11  18
HETATM   18  C14 UNL     1      32.356   4.935  47.914  1.00  0.00    -0.044 A 
HETATM   19  C15 UNL     1      31.978   4.314  46.693  1.00  0.00     0.008 A 
HETATM   20  C16 UNL     1      32.908   3.654  45.942  1.00  0.00     0.001 A 
HETATM   21  C17 UNL     1      34.228   3.555  46.315  1.00  0.00     0.001 A 
HETATM   22  C18 UNL     1      34.684   4.120  47.473  1.00  0.00     0.010 A 
HETATM   23  C19 UNL     1      33.778   4.790  48.249  1.00  0.00    -0.024 A 
ENDBRANCH  11  18
TORSDOF 5
ENDMDL
MODEL 6
REMARK VINA RESULT:      -6.6      3.553      5.694
REMARK  5 active torsions:
REMARK  status: ('A' for Active; 'I' for Inactive)
REMARK    1  A    between atoms: C2_2  and  C19_22 
REMARK    2  A    between atoms: C9_10  and  C10_11 
REMARK    3  A    between atoms: C10_11  and  C11_12 
REMARK    4  A    between atoms: C11_12  and  O2_14 
REMARK    5  A    between atoms: C12_15  and  C14_17 
ROOT
HETATM    1  C1  UNL     1      19.489   2.137  49.712  1.00  0.00     0.044 C 
HETATM    2  C2  UNL     1      20.511   2.861  50.460  1.00  0.00     0.053 C 
HETATM    3  C3  UNL     1      20.100   3.529  51.710  1.00  0.00     0.036 C 
HETATM    4  C4  UNL     1      21.331   3.761  52.543  1.00  0.00     0.005 C 
HETATM    5  C5  UNL     1      22.225   4.733  51.836  1.00  0.00     0.026 C 
HETATM    6  C6  UNL     1      22.209   4.710  50.376  1.00  0.00     0.096 C 
HETATM    7  N1  UNL     1      21.458   3.648  49.752  1.00  0.00    -0.381 N 
HETATM    8  C7  UNL     1      22.347   3.943  48.745  1.00  0.00     0.058 A 
HETATM    9  C8  UNL     1      22.964   4.919  48.349  1.00  0.00    -0.007 A 
HETATM   10  C9  UNL     1      23.550   4.375  49.701  1.00  0.00     0.028 A 
HETATM   11  C12 UNL     1      23.825   2.901  49.553  1.00  0.00     0.038 C 
HETATM   12  C13 UNL     1      23.026   2.725  48.164  1.00  0.00     0.046 C 
ENDROOT
BRANCH  10  13
HETATM   13  C10 UNL     1      24.689   5.192  50.115  1.00  0.00     0.127 C 
BRANCH  13  14
HETATM   14  C11 UNL     1      25.971   4.434  49.990  1.00  0.00     0.140 C 
HETATM   15  O1  UNL     1      26.533   4.510  48.874  1.00  0.00    -0.650 OA
BRANCH  14  16
HETATM   16  O2  UNL     1      26.870   3.604  50.670  1.00  0.00    -0.776 OA
HETATM   17  H14 UNL     1      27.197   3.832  51.618  1.00  0.00     0.167 HD
ENDBRANCH  14  16
ENDBRANCH  13  14
ENDBRANCH  10  13
BRANCH  11  18
HETATM   18  C14 UNL     1      23.045   1.973  50.478  1.00  0.00    -0.044 A 
HETATM   19  C15 UNL     1      23.618   2.049  51.776  1.00  0.00     0.008 A 
HETATM   20  C16 UNL     1      23.119   1.284  52.792  1.00  0.00     0.001 A 
HETATM   21  C17 UNL     1      22.063   0.421  52.621  1.00  0.00     0.001 A 
HETATM   22  C18 UNL     1      21.448   0.282  51.409  1.00  0.00     0.010 A 
HETATM   23  C19 UNL     1      21.923   1.033  50.369  1.00  0.00    -0.024 A 
ENDBRANCH  11  18
TORSDOF 5
ENDMDL
MODEL 7
REMARK VINA RESULT:      -6.6      2.792      3.954
REMARK  5 active torsions:
REMARK  status: ('A' for Active; 'I' for Inactive)
REMARK    1  A    between atoms: C2_2  and  C19_22 
REMARK    2  A    between atoms: C9_10  and  C10_11 
REMARK    3  A    between atoms: C10_11  and  C11_12 
REMARK    4  A    between atoms: C11_12  and  O2_14 
REMARK    5  A    between atoms: C12_15  and  C14_17 
ROOT
HETATM    1  C1  UNL     1      21.841   5.425  51.301  1.00  0.00     0.044 C 
HETATM    2  C2  UNL     1      21.704   4.018  51.662  1.00  0.00     0.053 C 
HETATM    3  C3  UNL     1      20.415   3.580  52.233  1.00  0.00     0.036 C 
HETATM    4  C4  UNL     1      20.309   2.091  52.060  1.00  0.00     0.005 C 
HETATM    5  C5  UNL     1      21.368   1.424  52.885  1.00  0.00     0.026 C 
HETATM    6  C6  UNL     1      22.624   2.147  53.062  1.00  0.00     0.096 C 
HETATM    7  N1  UNL     1      22.789   3.358  52.296  1.00  0.00    -0.381 N 
HETATM    8  C7  UNL     1      24.106   3.022  52.510  1.00  0.00     0.058 A 
HETATM    9  C8  UNL     1      24.757   2.437  53.360  1.00  0.00    -0.007 A 
HETATM   10  C9  UNL     1      23.880   1.442  52.519  1.00  0.00     0.028 A 
HETATM   11  C12 UNL     1      24.146   1.679  51.055  1.00  0.00     0.038 C 
HETATM   12  C13 UNL     1      24.949   3.061  51.257  1.00  0.00     0.046 C 
ENDROOT
BRANCH  10  13
HETATM   13  C10 UNL     1      24.089   0.074  52.987  1.00  0.00     0.127 C 
BRANCH  13  14
HETATM   14  C11 UNL     1      25.540  -0.288  52.961  1.00  0.00     0.140 C 
HETATM   15  O1  UNL     1      25.965  -0.876  53.982  1.00  0.00    -0.650 OA
BRANCH  14  16
HETATM   16  O2  UNL     1      26.710  -0.232  52.195  1.00  0.00    -0.776 OA
HETATM   17  H14 UNL     1      26.966  -0.993  51.552  1.00  0.00     0.167 HD
ENDBRANCH  14  16
ENDBRANCH  13  14
ENDBRANCH  10  13
BRANCH  11  18
HETATM   18  C14 UNL     1      22.956   2.133  50.217  1.00  0.00    -0.044 A 
HETATM   19  C15 UNL     1      22.089   1.021  50.029  1.00  0.00     0.008 A 
HETATM   20  C16 UNL     1      20.954   1.154  49.282  1.00  0.00     0.001 A 
HETATM   21  C17 UNL     1      20.594   2.339  48.685  1.00  0.00     0.001 A 
HETATM   22  C18 UNL     1      21.364   3.461  48.810  1.00  0.00     0.010 A 
HETATM   23  C19 UNL     1      22.509   3.363  49.552  1.00  0.00    -0.024 A 
ENDBRANCH  11  18
TORSDOF 5
ENDMDL
MODEL 8
REMARK VINA RESULT:      -6.5      3.516      5.533
REMARK  5 active torsions:
REMARK  status: ('A' for Active; 'I' for Inactive)
REMARK    1  A    between atoms: C2_2  and  C19_22 
REMARK    2  A    between atoms: C9_10  and  C10_11 
REMARK    3  A    between atoms: C10_11  and  C11_12 
REMARK    4  A    between atoms: C11_12  and  O2_14 
REMARK    5  A    between atoms: C12_15  and  C14_17 
ROOT
HETATM    1  C1  UNL     1      21.816  -0.020  51.906  1.00  0.00     0.044 C 
HETATM    2  C2  UNL     1      22.040   1.118  51.021  1.00  0.00     0.053 C 
HETATM    3  C3  UNL     1      21.568   1.003  49.626  1.00  0.00     0.036 C 
HETATM    4  C4  UNL     1      21.435   2.390  49.062  1.00  0.00     0.005 C 
HETATM    5  C5  UNL     1      22.793   3.020  48.983  1.00  0.00     0.026 C 
HETATM    6  C6  UNL     1      23.765   2.633  50.002  1.00  0.00     0.096 C 
HETATM    7  N1  UNL     1      23.280   1.807  51.081  1.00  0.00    -0.381 N 
HETATM    8  C7  UNL     1      24.366   2.392  51.689  1.00  0.00     0.058 A 
HETATM    9  C8  UNL     1      25.454   2.833  51.355  1.00  0.00    -0.007 A 
HETATM   10  C9  UNL     1      24.284   3.774  50.894  1.00  0.00     0.028 A 
HETATM   11  C12 UNL     1      23.412   4.082  52.084  1.00  0.00     0.038 C 
HETATM   12  C13 UNL     1      24.057   2.966  53.052  1.00  0.00     0.046 C 
ENDROOT
BRANCH  10  13
HETATM   13  C10 UNL     1      24.825   4.933  50.188  1.00  0.00     0.127 C 
BRANCH  13  14
HETATM   14  C11 UNL     1      24.424   6.208  50.859  1.00  0.00     0.140 C 
HETATM   15  O1  UNL     1      23.653   6.942  50.200  1.00  0.00    -0.650 OA
BRANCH  14  16
HETATM   16  O2  UNL     1      24.575   6.975  52.020  1.00  0.00    -0.776 OA
HETATM   17  H14 UNL     1      24.811   6.542  52.922  1.00  0.00     0.167 HD
ENDBRANCH  14  16
ENDBRANCH  13  14
ENDBRANCH  10  13
BRANCH  11  18
HETATM   18  C14 UNL     1      21.963   3.617  51.998  1.00  0.00    -0.044 A 
HETATM   19  C15 UNL     1      21.256   4.506  51.144  1.00  0.00     0.008 A 
HETATM   20  C16 UNL     1      19.920   4.328  50.921  1.00  0.00     0.001 A 
HETATM   21  C17 UNL     1      19.203   3.305  51.495  1.00  0.00     0.001 A 
HETATM   22  C18 UNL     1      19.797   2.401  52.330  1.00  0.00     0.010 A 
HETATM   23  C19 UNL     1      21.135   2.551  52.575  1.00  0.00    -0.024 A 
ENDBRANCH  11  18
TORSDOF 5
ENDMDL
MODEL 9
REMARK VINA RESULT:      -6.5      2.694      3.506
REMARK  5 active torsions:
REMARK  status: ('A' for Active; 'I' for Inactive)
REMARK    1  A    between atoms: C2_2  and  C19_22 
REMARK    2  A    between atoms: C9_10  and  C10_11 
REMARK    3  A    between atoms: C10_11  and  C11_12 
REMARK    4  A    between atoms: C11_12  and  O2_14 
REMARK    5  A    between atoms: C12_15  and  C14_17 
ROOT
HETATM    1  C1  UNL     1      23.773   6.063  50.615  1.00  0.00     0.044 C 
HETATM    2  C2  UNL     1      22.968   4.916  51.025  1.00  0.00     0.053 C 
HETATM    3  C3  UNL     1      21.542   5.153  51.323  1.00  0.00     0.036 C 
HETATM    4  C4  UNL     1      20.819   3.838  51.225  1.00  0.00     0.005 C 
HETATM    5  C5  UNL     1      21.315   2.924  52.304  1.00  0.00     0.026 C 
HETATM    6  C6  UNL     1      22.710   3.071  52.709  1.00  0.00     0.096 C 
HETATM    7  N1  UNL     1      23.523   3.968  51.924  1.00  0.00    -0.381 N 
HETATM    8  C7  UNL     1      24.497   3.148  52.445  1.00  0.00     0.058 A 
HETATM    9  C8  UNL     1      24.665   2.482  53.453  1.00  0.00    -0.007 A 
HETATM   10  C9  UNL     1      23.597   1.831  52.503  1.00  0.00     0.028 A 
HETATM   11  C12 UNL     1      24.187   1.706  51.123  1.00  0.00     0.038 C 
HETATM   12  C13 UNL     1      25.471   2.637  51.410  1.00  0.00     0.046 C 
ENDROOT
BRANCH  10  13
HETATM   13  C10 UNL     1      23.096   0.590  53.092  1.00  0.00     0.127 C 
BRANCH  13  14
HETATM   14  C11 UNL     1      24.221  -0.313  53.484  1.00  0.00     0.140 C 
HETATM   15  O1  UNL     1      24.087  -0.890  54.587  1.00  0.00    -0.650 OA
BRANCH  14  16
HETATM   16  O2  UNL     1      25.466  -0.815  53.086  1.00  0.00    -0.776 OA
HETATM   17  H14 UNL     1      25.940  -1.556  53.619  1.00  0.00     0.167 HD
ENDBRANCH  14  16
ENDBRANCH  13  14
ENDBRANCH  10  13
BRANCH  11  18
HETATM   18  C14 UNL     1      23.484   2.483  50.015  1.00  0.00    -0.044 A 
HETATM   19  C15 UNL     1      22.292   1.790  49.669  1.00  0.00     0.008 A 
HETATM   20  C16 UNL     1      21.487   2.265  48.673  1.00  0.00     0.001 A 
HETATM   21  C17 UNL     1      21.776   3.409  47.968  1.00  0.00     0.001 A 
HETATM   22  C18 UNL     1      22.900   4.141  48.230  1.00  0.00     0.010 A 
HETATM   23  C19 UNL     1      23.728   3.694  49.222  1.00  0.00    -0.024 A 
ENDBRANCH  11  18
TORSDOF 5
ENDMDL
