MODEL 1
REMARK VINA RESULT:      -7.1      0.000      0.000
REMARK  1 active torsions:
REMARK  status: ('A' for Active; 'I' for Inactive)
REMARK    1  A    between atoms: C1_2  and  C2_3 
ROOT
HETATM    1  C2  UNL     1      26.428   0.198  52.763  1.00  0.00     0.104 C 
HETATM    2  C3  UNL     1      25.991  -0.089  54.170  1.00  0.00     0.083 C 
HETATM    3  C4  UNL     1      24.631   0.077  53.610  1.00  0.00     0.011 C 
HETATM    4  C5  UNL     1      23.317  -0.025  53.432  1.00  0.00     0.035 C 
HETATM    5  C6  UNL     1      22.962   0.768  52.252  1.00  0.00    -0.016 C 
HETATM    6  C7  UNL     1      21.836   0.324  51.718  1.00  0.00     0.097 C 
HETATM    7  N1  UNL     1      20.965   0.606  50.627  1.00  0.00    -0.364 N 
HETATM    8  C8  UNL     1      21.699   1.750  50.072  1.00  0.00     0.051 A 
HETATM    9  C9  UNL     1      22.361   1.756  48.855  1.00  0.00     0.031 A 
HETATM   10  C10 UNL     1      23.169   2.851  48.492  1.00  0.00     0.005 A 
HETATM   11  C11 UNL     1      23.315   3.935  49.342  1.00  0.00     0.035 A 
HETATM   12  C12 UNL     1      22.581   3.718  50.470  1.00  0.00     0.098 A 
HETATM   13  C13 UNL     1      21.752   2.793  51.028  1.00  0.00     0.068 A 
HETATM   14 BR1  UNL     1      20.738   2.788  52.627  1.00  0.00    -0.046 Br
HETATM   15  N2  UNL     1      22.786   4.604  51.605  1.00  0.00    -0.154 NA
HETATM   16  N3  UNL     1      23.395   4.160  52.625  1.00  0.00    -0.190 NA
HETATM   17  C14 UNL     1      23.976   2.963  52.999  1.00  0.00     0.203 C 
HETATM   18  C15 UNL     1      24.062   1.768  52.144  1.00  0.00     0.141 C 
HETATM   19  N4  UNL     1      25.169   0.879  52.595  1.00  0.00    -0.367 N 
HETATM   20  H8  UNL     1      20.304   0.734  49.897  1.00  0.00     0.165 HD
ENDROOT
BRANCH   1  21
HETATM   21  C1  UNL     1      26.407  -1.084  51.956  1.00  0.00     0.140 C 
HETATM   22 CL1  UNL     1      27.366  -2.387  52.710  1.00  0.00    -0.128 Cl
ENDBRANCH   1  21
TORSDOF 1
ENDMDL
MODEL 2
REMARK VINA RESULT:      -7.1      1.722      2.173
REMARK  1 active torsions:
REMARK  status: ('A' for Active; 'I' for Inactive)
REMARK    1  A    between atoms: C1_2  and  C2_3 
ROOT
HETATM    1  C2  UNL     1      26.651   0.600  51.947  1.00  0.00     0.104 C 
HETATM    2  C3  UNL     1      27.148   1.605  52.946  1.00  0.00     0.083 C 
HETATM    3  C4  UNL     1      25.747   2.081  52.922  1.00  0.00     0.011 C 
HETATM    4  C5  UNL     1      24.596   2.641  53.286  1.00  0.00     0.035 C 
HETATM    5  C6  UNL     1      23.652   2.487  52.175  1.00  0.00    -0.016 C 
HETATM    6  C7  UNL     1      22.406   2.532  52.618  1.00  0.00     0.097 C 
HETATM    7  N1  UNL     1      21.073   2.455  52.123  1.00  0.00    -0.364 N 
HETATM    8  C8  UNL     1      21.395   2.286  50.700  1.00  0.00     0.051 A 
HETATM    9  C9  UNL     1      21.171   1.133  49.965  1.00  0.00     0.031 A 
HETATM   10  C10 UNL     1      21.665   1.022  48.650  1.00  0.00     0.005 A 
HETATM   11  C11 UNL     1      22.381   2.058  48.074  1.00  0.00     0.035 A 
HETATM   12  C12 UNL     1      22.479   3.083  48.968  1.00  0.00     0.098 A 
HETATM   13  C13 UNL     1      22.100   3.421  50.232  1.00  0.00     0.068 A 
HETATM   14 BR1  UNL     1      22.281   5.017  51.234  1.00  0.00    -0.046 Br
HETATM   15  N2  UNL     1      23.401   4.168  48.672  1.00  0.00    -0.154 NA
HETATM   16  N3  UNL     1      24.472   4.260  49.344  1.00  0.00    -0.190 NA
HETATM   17  C14 UNL     1      25.071   3.556  50.372  1.00  0.00     0.203 C 
HETATM   18  C15 UNL     1      24.526   2.330  50.978  1.00  0.00     0.141 C 
HETATM   19  N4  UNL     1      25.607   1.544  51.635  1.00  0.00    -0.367 N 
HETATM   20  H8  UNL     1      20.115   2.415  51.863  1.00  0.00     0.165 HD
ENDROOT
BRANCH   1  21
HETATM   21  C1  UNL     1      26.045  -0.581  52.678  1.00  0.00     0.140 C 
HETATM   22 CL1  UNL     1      26.867  -2.119  52.298  1.00  0.00    -0.128 Cl
ENDBRANCH   1  21
TORSDOF 1
ENDMDL
MODEL 3
REMARK VINA RESULT:      -6.5      9.887     11.153
REMARK  1 active torsions:
REMARK  status: ('A' for Active; 'I' for Inactive)
REMARK    1  A    between atoms: C1_2  and  C2_3 
ROOT
HETATM    1  C2  UNL     1      33.198   3.565  46.180  1.00  0.00     0.104 C 
HETATM    2  C3  UNL     1      34.649   3.919  46.324  1.00  0.00     0.083 C 
HETATM    3  C4  UNL     1      34.132   5.022  47.163  1.00  0.00     0.011 C 
HETATM    4  C5  UNL     1      34.051   5.979  48.085  1.00  0.00     0.035 C 
HETATM    5  C6  UNL     1      32.719   6.583  47.987  1.00  0.00    -0.016 C 
HETATM    6  C7  UNL     1      32.380   7.140  49.139  1.00  0.00     0.097 C 
HETATM    7  N1  UNL     1      31.297   7.859  49.721  1.00  0.00    -0.364 N 
HETATM    8  C8  UNL     1      30.419   7.892  48.544  1.00  0.00     0.051 A 
HETATM    9  C9  UNL     1      29.215   7.216  48.430  1.00  0.00     0.031 A 
HETATM   10  C10 UNL     1      28.532   7.185  47.198  1.00  0.00     0.005 A 
HETATM   11  C11 UNL     1      29.051   7.827  46.086  1.00  0.00     0.035 A 
HETATM   12  C12 UNL     1      30.230   8.422  46.424  1.00  0.00     0.098 A 
HETATM   13  C13 UNL     1      31.056   8.596  47.493  1.00  0.00     0.068 A 
HETATM   14 BR1  UNL     1      32.643   9.599  47.728  1.00  0.00    -0.046 Br
HETATM   15  N2  UNL     1      31.073   8.934  45.355  1.00  0.00    -0.154 NA
HETATM   16  N3  UNL     1      32.144   8.317  45.073  1.00  0.00    -0.190 NA
HETATM   17  C14 UNL     1      32.799   7.190  45.531  1.00  0.00     0.203 C 
HETATM   18  C15 UNL     1      32.294   6.298  46.589  1.00  0.00     0.141 C 
HETATM   19  N4  UNL     1      32.913   4.948  46.475  1.00  0.00    -0.367 N 
HETATM   20  H8  UNL     1      30.591   8.366  50.203  1.00  0.00     0.165 HD
ENDROOT
BRANCH   1  21
HETATM   21  C1  UNL     1      32.767   2.713  47.357  1.00  0.00     0.140 C 
HETATM   22 CL1  UNL     1      32.366   1.039  46.882  1.00  0.00    -0.128 Cl
ENDBRANCH   1  21
TORSDOF 1
ENDMDL
MODEL 4
REMARK VINA RESULT:      -6.5      2.521      3.225
REMARK  1 active torsions:
REMARK  status: ('A' for Active; 'I' for Inactive)
REMARK    1  A    between atoms: C1_2  and  C2_3 
ROOT
HETATM    1  C2  UNL     1      21.879   0.307  53.904  1.00  0.00     0.104 C 
HETATM    2  C3  UNL     1      20.475  -0.222  53.849  1.00  0.00     0.083 C 
HETATM    3  C4  UNL     1      20.553   0.176  52.425  1.00  0.00     0.011 C 
HETATM    4  C5  UNL     1      20.333   0.231  51.114  1.00  0.00     0.035 C 
HETATM    5  C6  UNL     1      21.194   1.279  50.559  1.00  0.00    -0.016 C 
HETATM    6  C7  UNL     1      21.422   1.056  49.275  1.00  0.00     0.097 C 
HETATM    7  N1  UNL     1      22.128   1.632  48.180  1.00  0.00    -0.364 N 
HETATM    8  C8  UNL     1      22.680   2.796  48.885  1.00  0.00     0.051 A 
HETATM    9  C9  UNL     1      24.023   2.992  49.167  1.00  0.00     0.031 A 
HETATM   10  C10 UNL     1      24.427   4.062  49.989  1.00  0.00     0.005 A 
HETATM   11  C11 UNL     1      23.492   4.930  50.529  1.00  0.00     0.035 A 
HETATM   12  C12 UNL     1      22.247   4.553  50.124  1.00  0.00     0.098 A 
HETATM   13  C13 UNL     1      21.625   3.611  49.361  1.00  0.00     0.068 A 
HETATM   14 BR1  UNL     1      19.817   3.369  48.856  1.00  0.00    -0.046 Br
HETATM   15  N2  UNL     1      21.098   5.166  50.772  1.00  0.00    -0.154 NA
HETATM   16  N3  UNL     1      20.405   4.469  51.574  1.00  0.00    -0.190 NA
HETATM   17  C14 UNL     1      20.436   3.174  52.055  1.00  0.00     0.203 C 
HETATM   18  C15 UNL     1      21.464   2.176  51.717  1.00  0.00     0.141 C 
HETATM   19  N4  UNL     1      21.534   1.119  52.763  1.00  0.00    -0.367 N 
HETATM   20  H8  UNL     1      22.587   1.967  47.365  1.00  0.00     0.165 HD
ENDROOT
BRANCH   1  21
HETATM   21  C1  UNL     1      22.845  -0.774  53.465  1.00  0.00     0.140 C 
HETATM   22 CL1  UNL     1      24.428  -0.120  52.963  1.00  0.00    -0.128 Cl
ENDBRANCH   1  21
TORSDOF 1
ENDMDL
MODEL 5
REMARK VINA RESULT:      -6.4      2.716      4.250
REMARK  1 active torsions:
REMARK  status: ('A' for Active; 'I' for Inactive)
REMARK    1  A    between atoms: C1_2  and  C2_3 
ROOT
HETATM    1  C2  UNL     1      21.124   0.423  52.275  1.00  0.00     0.104 C 
HETATM    2  C3  UNL     1      22.397  -0.354  52.449  1.00  0.00     0.083 C 
HETATM    3  C4  UNL     1      23.030   0.982  52.387  1.00  0.00     0.011 C 
HETATM    4  C5  UNL     1      23.894   1.981  52.556  1.00  0.00     0.035 C 
HETATM    5  C6  UNL     1      23.345   3.165  51.887  1.00  0.00    -0.016 C 
HETATM    6  C7  UNL     1      23.843   4.268  52.421  1.00  0.00     0.097 C 
HETATM    7  N1  UNL     1      23.755   5.682  52.274  1.00  0.00    -0.364 N 
HETATM    8  C8  UNL     1      22.801   5.710  51.157  1.00  0.00     0.051 A 
HETATM    9  C9  UNL     1      21.496   6.170  51.238  1.00  0.00     0.031 A 
HETATM   10  C10 UNL     1      20.617   6.003  50.150  1.00  0.00     0.005 A 
HETATM   11  C11 UNL     1      21.040   5.378  48.988  1.00  0.00     0.035 A 
HETATM   12  C12 UNL     1      22.345   5.012  49.129  1.00  0.00     0.098 A 
HETATM   13  C13 UNL     1      23.365   5.065  50.031  1.00  0.00     0.068 A 
HETATM   14 BR1  UNL     1      25.186   4.558  49.928  1.00  0.00    -0.046 Br
HETATM   15  N2  UNL     1      22.920   4.119  48.136  1.00  0.00    -0.154 NA
HETATM   16  N3  UNL     1      23.161   2.917  48.462  1.00  0.00    -0.190 NA
HETATM   17  C14 UNL     1      23.017   2.141  49.596  1.00  0.00     0.203 C 
HETATM   18  C15 UNL     1      22.422   2.605  50.860  1.00  0.00     0.141 C 
HETATM   19  N4  UNL     1      21.927   1.451  51.661  1.00  0.00    -0.367 N 
HETATM   20  H8  UNL     1      23.756   6.675  52.237  1.00  0.00     0.165 HD
ENDROOT
BRANCH   1  21
HETATM   21  C1  UNL     1      20.644   0.915  53.625  1.00  0.00     0.140 C 
HETATM   22 CL1  UNL     1      21.189  -0.125  54.970  1.00  0.00    -0.128 Cl
ENDBRANCH   1  21
TORSDOF 1
ENDMDL
MODEL 6
REMARK VINA RESULT:      -6.3      9.701     11.036
REMARK  1 active torsions:
REMARK  status: ('A' for Active; 'I' for Inactive)
REMARK    1  A    between atoms: C1_2  and  C2_3 
ROOT
HETATM    1  C2  UNL     1      32.853   4.456  46.227  1.00  0.00     0.104 C 
HETATM    2  C3  UNL     1      34.260   4.963  46.348  1.00  0.00     0.083 C 
HETATM    3  C4  UNL     1      33.638   6.017  47.180  1.00  0.00     0.011 C 
HETATM    4  C5  UNL     1      33.467   6.971  48.092  1.00  0.00     0.035 C 
HETATM    5  C6  UNL     1      32.077   7.431  48.003  1.00  0.00    -0.016 C 
HETATM    6  C7  UNL     1      31.693   7.964  49.152  1.00  0.00     0.097 C 
HETATM    7  N1  UNL     1      30.547   8.572  49.738  1.00  0.00    -0.364 N 
HETATM    8  C8  UNL     1      29.658   8.496  48.572  1.00  0.00     0.051 A 
HETATM    9  C9  UNL     1      28.531   7.695  48.481  1.00  0.00     0.031 A 
HETATM   10  C10 UNL     1      27.841   7.577  47.258  1.00  0.00     0.005 A 
HETATM   11  C11 UNL     1      28.278   8.254  46.132  1.00  0.00     0.035 A 
HETATM   12  C12 UNL     1      29.391   8.975  46.449  1.00  0.00     0.098 A 
HETATM   13  C13 UNL     1      30.205   9.249  47.505  1.00  0.00     0.068 A 
HETATM   14 BR1  UNL     1      31.680  10.418  47.709  1.00  0.00    -0.046 Br
HETATM   15  N2  UNL     1      30.163   9.560  45.363  1.00  0.00    -0.154 NA
HETATM   16  N3  UNL     1      31.290   9.055  45.075  1.00  0.00    -0.190 NA
HETATM   17  C14 UNL     1      32.065   8.009  45.539  1.00  0.00     0.203 C 
HETATM   18  C15 UNL     1      31.670   7.083  46.613  1.00  0.00     0.141 C 
HETATM   19  N4  UNL     1      32.426   5.805  46.508  1.00  0.00    -0.367 N 
HETATM   20  H8  UNL     1      29.797   9.007  50.223  1.00  0.00     0.165 HD
ENDROOT
BRANCH   1  21
HETATM   21  C1  UNL     1      32.528   3.579  47.419  1.00  0.00     0.140 C 
HETATM   22 CL1  UNL     1      32.721   1.840  47.064  1.00  0.00    -0.128 Cl
ENDBRANCH   1  21
TORSDOF 1
ENDMDL
MODEL 7
REMARK VINA RESULT:      -6.3     10.404     12.101
REMARK  1 active torsions:
REMARK  status: ('A' for Active; 'I' for Inactive)
REMARK    1  A    between atoms: C1_2  and  C2_3 
ROOT
HETATM    1  C2  UNL     1      28.926   8.180  47.621  1.00  0.00     0.104 C 
HETATM    2  C3  UNL     1      29.110   8.724  49.008  1.00  0.00     0.083 C 
HETATM    3  C4  UNL     1      30.550   8.575  48.701  1.00  0.00     0.011 C 
HETATM    4  C5  UNL     1      31.870   8.749  48.712  1.00  0.00     0.035 C 
HETATM    5  C6  UNL     1      32.453   7.804  47.755  1.00  0.00    -0.016 C 
HETATM    6  C7  UNL     1      33.628   8.242  47.332  1.00  0.00     0.097 C 
HETATM    7  N1  UNL     1      34.680   7.855  46.454  1.00  0.00    -0.364 N 
HETATM    8  C8  UNL     1      34.106   6.583  45.998  1.00  0.00     0.051 A 
HETATM    9  C9  UNL     1      33.655   6.329  44.713  1.00  0.00     0.031 A 
HETATM   10  C10 UNL     1      32.974   5.130  44.424  1.00  0.00     0.005 A 
HETATM   11  C11 UNL     1      32.745   4.190  45.415  1.00  0.00     0.035 A 
HETATM   12  C12 UNL     1      33.271   4.643  46.589  1.00  0.00     0.098 A 
HETATM   13  C13 UNL     1      33.949   5.708  47.100  1.00  0.00     0.068 A 
HETATM   14 BR1  UNL     1      34.684   6.050  48.810  1.00  0.00    -0.046 Br
HETATM   15  N2  UNL     1      32.926   3.939  47.814  1.00  0.00    -0.154 NA
HETATM   16  N3  UNL     1      32.136   4.495  48.636  1.00  0.00    -0.190 NA
HETATM   17  C14 UNL     1      31.442   5.687  48.705  1.00  0.00     0.203 C 
HETATM   18  C15 UNL     1      31.438   6.719  47.654  1.00  0.00     0.141 C 
HETATM   19  N4  UNL     1      30.229   7.580  47.768  1.00  0.00    -0.367 N 
HETATM   20  H8  UNL     1      35.458   7.662  45.867  1.00  0.00     0.165 HD
ENDROOT
BRANCH   1  21
HETATM   21  C1  UNL     1      29.016   9.312  46.618  1.00  0.00     0.140 C 
HETATM   22 CL1  UNL     1      29.812   8.821  45.098  1.00  0.00    -0.128 Cl
ENDBRANCH   1  21
TORSDOF 1
ENDMDL
MODEL 8
REMARK VINA RESULT:      -6.3      2.172      3.087
REMARK  1 active torsions:
REMARK  status: ('A' for Active; 'I' for Inactive)
REMARK    1  A    between atoms: C1_2  and  C2_3 
ROOT
HETATM    1  C2  UNL     1      24.598   1.210  53.146  1.00  0.00     0.104 C 
HETATM    2  C3  UNL     1      23.386   0.326  53.194  1.00  0.00     0.083 C 
HETATM    3  C4  UNL     1      23.043   1.000  51.921  1.00  0.00     0.011 C 
HETATM    4  C5  UNL     1      22.526   1.245  50.720  1.00  0.00     0.035 C 
HETATM    5  C6  UNL     1      22.966   2.581  50.307  1.00  0.00    -0.016 C 
HETATM    6  C7  UNL     1      22.945   2.687  48.988  1.00  0.00     0.097 C 
HETATM    7  N1  UNL     1      23.227   3.642  47.970  1.00  0.00    -0.364 N 
HETATM    8  C8  UNL     1      23.632   4.753  48.841  1.00  0.00     0.051 A 
HETATM    9  C9  UNL     1      24.917   5.262  48.936  1.00  0.00     0.031 A 
HETATM   10  C10 UNL     1      25.230   6.221  49.920  1.00  0.00     0.005 A 
HETATM   11  C11 UNL     1      24.263   6.666  50.805  1.00  0.00     0.035 A 
HETATM   12  C12 UNL     1      23.084   6.039  50.531  1.00  0.00     0.098 A 
HETATM   13  C13 UNL     1      22.549   5.127  49.672  1.00  0.00     0.068 A 
HETATM   14 BR1  UNL     1      20.784   4.488  49.429  1.00  0.00    -0.046 Br
HETATM   15  N2  UNL     1      21.999   6.163  51.492  1.00  0.00    -0.154 NA
HETATM   16  N3  UNL     1      21.692   5.156  52.199  1.00  0.00    -0.190 NA
HETATM   17  C14 UNL     1      22.137   3.854  52.331  1.00  0.00     0.203 C 
HETATM   18  C15 UNL     1      23.269   3.274  51.590  1.00  0.00     0.141 C 
HETATM   19  N4  UNL     1      23.822   2.097  52.315  1.00  0.00    -0.367 N 
HETATM   20  H8  UNL     1      23.397   4.245  47.199  1.00  0.00     0.165 HD
ENDROOT
BRANCH   1  21
HETATM   21  C1  UNL     1      25.669   0.553  52.298  1.00  0.00     0.140 C 
HETATM   22 CL1  UNL     1      26.577   1.727  51.307  1.00  0.00    -0.128 Cl
ENDBRANCH   1  21
TORSDOF 1
ENDMDL
MODEL 9
REMARK VINA RESULT:      -6.1      8.108     10.076
REMARK  1 active torsions:
REMARK  status: ('A' for Active; 'I' for Inactive)
REMARK    1  A    between atoms: C1_2  and  C2_3 
ROOT
HETATM    1  C2  UNL     1      26.022   6.754  49.594  1.00  0.00     0.104 C 
HETATM    2  C3  UNL     1      25.018   7.654  48.934  1.00  0.00     0.083 C 
HETATM    3  C4  UNL     1      26.122   7.924  47.987  1.00  0.00     0.011 C 
HETATM    4  C5  UNL     1      26.789   8.251  46.883  1.00  0.00     0.035 C 
HETATM    5  C6  UNL     1      28.221   8.136  47.174  1.00  0.00    -0.016 C 
HETATM    6  C7  UNL     1      28.904   7.935  46.058  1.00  0.00     0.097 C 
HETATM    7  N1  UNL     1      30.247   7.745  45.625  1.00  0.00    -0.364 N 
HETATM    8  C8  UNL     1      30.898   7.844  46.938  1.00  0.00     0.051 A 
HETATM    9  C9  UNL     1      31.522   6.797  47.597  1.00  0.00     0.031 A 
HETATM   10  C10 UNL     1      31.973   6.961  48.922  1.00  0.00     0.005 A 
HETATM   11  C11 UNL     1      31.799   8.165  49.584  1.00  0.00     0.035 A 
HETATM   12  C12 UNL     1      31.170   9.044  48.753  1.00  0.00     0.098 A 
HETATM   13  C13 UNL     1      30.666   9.126  47.491  1.00  0.00     0.068 A 
HETATM   14 BR1  UNL     1      29.912  10.559  46.510  1.00  0.00    -0.046 Br
HETATM   15  N2  UNL     1      30.659  10.282  49.321  1.00  0.00    -0.154 NA
HETATM   16  N3  UNL     1      29.406  10.421  49.455  1.00  0.00    -0.190 NA
HETATM   17  C14 UNL     1      28.282   9.660  49.193  1.00  0.00     0.203 C 
HETATM   18  C15 UNL     1      28.303   8.291  48.653  1.00  0.00     0.141 C 
HETATM   19  N4  UNL     1      27.040   7.576  48.988  1.00  0.00    -0.367 N 
HETATM   20  H8  UNL     1      31.152   7.609  45.238  1.00  0.00     0.165 HD
ENDROOT
BRANCH   1  21
HETATM   21  C1  UNL     1      26.012   5.401  48.912  1.00  0.00     0.140 C 
HETATM   22 CL1  UNL     1      27.653   4.749  48.656  1.00  0.00    -0.128 Cl
ENDBRANCH   1  21
TORSDOF 1
ENDMDL
