MODEL 1
REMARK VINA RESULT:      -8.4      0.000      0.000
REMARK  5 active torsions:
REMARK  status: ('A' for Active; 'I' for Inactive)
REMARK    1  A    between atoms: O1_2  and  C2_3 
REMARK    2  A    between atoms: C3_4  and  N1_5 
REMARK    3  A    between atoms: C13_17  and  C14_18 
REMARK    4  A    between atoms: C18_24  and  O2_25 
REMARK    5  A    between atoms: C20_27  and  O3_28 
ROOT
HETATM    1  C2  UNL     1      22.390   3.307  51.606  1.00  0.00     0.107 C 
HETATM    2  C3  UNL     1      21.246   3.944  51.299  1.00  0.00     0.071 C 
HETATM    3  C4  UNL     1      19.960   3.481  50.829  1.00  0.00     0.007 A 
HETATM    4  C5  UNL     1      19.269   4.542  50.319  1.00  0.00     0.015 A 
HETATM    5  C6  UNL     1      17.988   4.392  49.809  1.00  0.00     0.002 A 
HETATM    6  C7  UNL     1      17.414   3.116  49.830  1.00  0.00     0.020 A 
HETATM    7  C8  UNL     1      18.085   2.041  50.334  1.00  0.00     0.028 A 
HETATM    8  S1  UNL     1      17.151   0.542  50.259  1.00  0.00     0.002 SA
HETATM    9  C9  UNL     1      19.348   2.254  50.822  1.00  0.00     0.029 A 
HETATM   10  C10 UNL     1      19.725   0.887  51.255  1.00  0.00     0.156 C 
HETATM   11  N2  UNL     1      18.692  -0.139  51.380  1.00  0.00    -0.001 N 
HETATM   12  C11 UNL     1      20.899   0.363  51.567  1.00  0.00     0.040 C 
HETATM   13  C12 UNL     1      22.237   0.872  51.613  1.00  0.00     0.019 C 
HETATM   14  C13 UNL     1      22.973   1.938  51.629  1.00  0.00     0.029 C 
HETATM   15  H9  UNL     1      16.693   0.356  48.954  1.00  0.00     0.126 HD
HETATM   16  H10 UNL     1      19.016  -0.685  50.494  1.00  0.00     0.298 HD
HETATM   17  H11 UNL     1      18.377   0.413  52.262  1.00  0.00     0.298 HD
ENDROOT
BRANCH  14  18
HETATM   18  C14 UNL     1      24.392   2.079  51.508  1.00  0.00     0.084 A 
HETATM   19  N3  UNL     1      24.894   2.823  50.511  1.00  0.00    -0.240 NA
HETATM   20  C15 UNL     1      26.172   3.010  50.274  1.00  0.00     0.234 A 
HETATM   21  N4  UNL     1      27.124   2.461  51.029  1.00  0.00    -0.241 NA
HETATM   22  C16 UNL     1      26.743   1.688  52.060  1.00  0.00     0.073 A 
HETATM   23  C17 UNL     1      27.717   1.071  52.813  1.00  0.00     0.072 A 
HETATM   24  C23 UNL     1      25.398   1.528  52.256  1.00  0.00     0.025 A 
HETATM   25  C18 UNL     1      27.363   0.224  53.841  1.00  0.00     0.103 A 
HETATM   26  C20 UNL     1      25.994   0.027  54.071  1.00  0.00     0.102 A 
HETATM   27  C22 UNL     1      25.085   0.673  53.283  1.00  0.00     0.055 A 
BRANCH  25  28
HETATM   28  O2  UNL     1      28.332  -0.400  54.607  1.00  0.00    -0.353 OA
HETATM   29  C19 UNL     1      29.548  -0.848  54.053  1.00  0.00     0.210 C 
ENDBRANCH  25  28
BRANCH  26  30
HETATM   30  O3  UNL     1      25.711  -0.828  55.104  1.00  0.00    -0.353 OA
HETATM   31  C21 UNL     1      24.349  -1.189  55.279  1.00  0.00     0.210 C 
ENDBRANCH  26  30
ENDBRANCH  14  18
BRANCH   1  32
HETATM   32  O1  UNL     1      23.267   4.325  52.033  1.00  0.00    -0.353 OA
HETATM   33  C1  UNL     1      23.549   4.537  53.408  1.00  0.00     0.210 C 
ENDBRANCH   1  32
BRANCH   2  34
HETATM   34  N1  UNL     1      21.256   5.332  51.475  1.00  0.00    -0.396 N 
HETATM   35  H4  UNL     1      20.942   6.295  51.586  1.00  0.00     0.156 HD
HETATM   36  H5  UNL     1      21.860   6.172  51.606  1.00  0.00     0.156 HD
ENDBRANCH   2  34
TORSDOF 5
ENDMDL
MODEL 2
REMARK VINA RESULT:      -8.1      1.630      1.863
REMARK  5 active torsions:
REMARK  status: ('A' for Active; 'I' for Inactive)
REMARK    1  A    between atoms: O1_2  and  C2_3 
REMARK    2  A    between atoms: C3_4  and  N1_5 
REMARK    3  A    between atoms: C13_17  and  C14_18 
REMARK    4  A    between atoms: C18_24  and  O2_25 
REMARK    5  A    between atoms: C20_27  and  O3_28 
ROOT
HETATM    1  C2  UNL     1      22.589   4.303  50.850  1.00  0.00     0.107 C 
HETATM    2  C3  UNL     1      21.617   5.195  50.593  1.00  0.00     0.071 C 
HETATM    3  C4  UNL     1      20.429   5.143  49.769  1.00  0.00     0.007 A 
HETATM    4  C5  UNL     1      19.984   6.416  49.555  1.00  0.00     0.015 A 
HETATM    5  C6  UNL     1      18.843   6.667  48.808  1.00  0.00     0.002 A 
HETATM    6  C7  UNL     1      18.151   5.574  48.273  1.00  0.00     0.020 A 
HETATM    7  C8  UNL     1      18.577   4.294  48.472  1.00  0.00     0.028 A 
HETATM    8  S1  UNL     1      17.534   3.089  47.707  1.00  0.00     0.002 SA
HETATM    9  C9  UNL     1      19.711   4.112  49.219  1.00  0.00     0.029 A 
HETATM   10  C10 UNL     1      19.838   2.635  49.198  1.00  0.00     0.156 C 
HETATM   11  N2  UNL     1      18.704   1.822  48.766  1.00  0.00    -0.001 N 
HETATM   12  C11 UNL     1      20.852   1.841  49.505  1.00  0.00     0.040 C 
HETATM   13  C12 UNL     1      22.190   2.066  49.964  1.00  0.00     0.019 C 
HETATM   14  C13 UNL     1      23.008   2.923  50.488  1.00  0.00     0.029 C 
HETATM   15  H9  UNL     1      17.366   3.420  46.362  1.00  0.00     0.126 HD
HETATM   16  H10 UNL     1      19.162   1.546  47.816  1.00  0.00     0.298 HD
HETATM   17  H11 UNL     1      18.256   2.102  49.716  1.00  0.00     0.298 HD
ENDROOT
BRANCH  14  18
HETATM   18  C14 UNL     1      24.425   2.845  50.677  1.00  0.00     0.084 A 
HETATM   19  N3  UNL     1      25.232   3.559  49.878  1.00  0.00    -0.240 NA
HETATM   20  C15 UNL     1      26.545   3.557  49.930  1.00  0.00     0.234 A 
HETATM   21  N4  UNL     1      27.221   2.820  50.811  1.00  0.00    -0.241 NA
HETATM   22  C16 UNL     1      26.519   2.056  51.665  1.00  0.00     0.073 A 
HETATM   23  C17 UNL     1      27.208   1.250  52.544  1.00  0.00     0.072 A 
HETATM   24  C23 UNL     1      25.155   2.099  51.563  1.00  0.00     0.025 A 
HETATM   25  C18 UNL     1      26.521   0.409  53.394  1.00  0.00     0.103 A 
HETATM   26  C20 UNL     1      25.122   0.417  53.316  1.00  0.00     0.102 A 
HETATM   27  C22 UNL     1      24.508   1.244  52.420  1.00  0.00     0.055 A 
BRANCH  25  28
HETATM   28  O2  UNL     1      27.201  -0.404  54.283  1.00  0.00    -0.353 OA
HETATM   29  C19 UNL     1      28.472  -0.060  54.789  1.00  0.00     0.210 C 
ENDBRANCH  25  28
BRANCH  26  30
HETATM   30  O3  UNL     1      24.502  -0.443  54.185  1.00  0.00    -0.353 OA
HETATM   31  C21 UNL     1      23.118  -0.678  53.971  1.00  0.00     0.210 C 
ENDBRANCH  26  30
ENDBRANCH  14  18
BRANCH   1  32
HETATM   32  O1  UNL     1      23.448   4.957  51.758  1.00  0.00    -0.353 OA
HETATM   33  C1  UNL     1      23.375   4.718  53.154  1.00  0.00     0.210 C 
ENDBRANCH   1  32
BRANCH   2  34
HETATM   34  N1  UNL     1      21.729   6.426  51.248  1.00  0.00    -0.396 N 
HETATM   35  H4  UNL     1      22.070   7.343  51.531  1.00  0.00     0.156 HD
HETATM   36  H5  UNL     1      21.305   7.054  51.966  1.00  0.00     0.156 HD
ENDBRANCH   2  34
TORSDOF 5
ENDMDL
MODEL 3
REMARK VINA RESULT:      -8.1      5.714      7.949
REMARK  5 active torsions:
REMARK  status: ('A' for Active; 'I' for Inactive)
REMARK    1  A    between atoms: O1_2  and  C2_3 
REMARK    2  A    between atoms: C3_4  and  N1_5 
REMARK    3  A    between atoms: C13_17  and  C14_18 
REMARK    4  A    between atoms: C18_24  and  O2_25 
REMARK    5  A    between atoms: C20_27  and  O3_28 
ROOT
HETATM    1  C2  UNL     1      25.683   6.871  49.781  1.00  0.00     0.107 C 
HETATM    2  C3  UNL     1      24.688   6.636  50.654  1.00  0.00     0.071 C 
HETATM    3  C4  UNL     1      24.074   5.421  51.140  1.00  0.00     0.007 A 
HETATM    4  C5  UNL     1      22.877   5.731  51.718  1.00  0.00     0.015 A 
HETATM    5  C6  UNL     1      22.075   4.755  52.289  1.00  0.00     0.002 A 
HETATM    6  C7  UNL     1      22.526   3.429  52.260  1.00  0.00     0.020 A 
HETATM    7  C8  UNL     1      23.717   3.095  51.687  1.00  0.00     0.028 A 
HETATM    8  S1  UNL     1      24.071   1.366  51.782  1.00  0.00     0.002 SA
HETATM    9  C9  UNL     1      24.464   4.105  51.139  1.00  0.00     0.029 A 
HETATM   10  C10 UNL     1      25.639   3.356  50.633  1.00  0.00     0.156 C 
HETATM   11  N2  UNL     1      25.868   1.986  51.086  1.00  0.00    -0.001 N 
HETATM   12  C11 UNL     1      26.591   3.698  49.781  1.00  0.00     0.040 C 
HETATM   13  C12 UNL     1      26.873   4.880  49.023  1.00  0.00     0.019 C 
HETATM   14  C13 UNL     1      26.620   6.143  48.883  1.00  0.00     0.029 C 
HETATM   15  H9  UNL     1      22.986   0.651  51.275  1.00  0.00     0.126 HD
HETATM   16  H10 UNL     1      25.585   1.540  50.133  1.00  0.00     0.298 HD
HETATM   17  H11 UNL     1      26.148   2.441  52.033  1.00  0.00     0.298 HD
ENDROOT
BRANCH  14  18
HETATM   18  C14 UNL     1      26.992   7.046  47.836  1.00  0.00     0.084 A 
HETATM   19  N3  UNL     1      26.031   7.664  47.133  1.00  0.00    -0.240 NA
HETATM   20  C15 UNL     1      26.237   8.492  46.134  1.00  0.00     0.234 A 
HETATM   21  N4  UNL     1      27.462   8.807  45.711  1.00  0.00    -0.241 NA
HETATM   22  C16 UNL     1      28.509   8.245  46.337  1.00  0.00     0.073 A 
HETATM   23  C17 UNL     1      29.776   8.520  45.875  1.00  0.00     0.072 A 
HETATM   24  C23 UNL     1      28.232   7.389  47.370  1.00  0.00     0.025 A 
HETATM   25  C18 UNL     1      30.871   7.915  46.455  1.00  0.00     0.103 A 
HETATM   26  C20 UNL     1      30.631   7.026  47.511  1.00  0.00     0.102 A 
HETATM   27  C22 UNL     1      29.346   6.802  47.917  1.00  0.00     0.055 A 
BRANCH  25  28
HETATM   28  O2  UNL     1      32.150   8.185  46.001  1.00  0.00    -0.353 OA
HETATM   29  C19 UNL     1      32.813   9.390  46.312  1.00  0.00     0.210 C 
ENDBRANCH  25  28
BRANCH  26  30
HETATM   30  O3  UNL     1      31.760   6.457  48.040  1.00  0.00    -0.353 OA
HETATM   31  C21 UNL     1      31.792   6.296  49.451  1.00  0.00     0.210 C 
ENDBRANCH  26  30
ENDBRANCH  14  18
BRANCH   1  32
HETATM   32  O1  UNL     1      25.825   8.274  49.764  1.00  0.00    -0.353 OA
HETATM   33  C1  UNL     1      26.922   8.918  50.393  1.00  0.00     0.210 C 
ENDBRANCH   1  32
BRANCH   2  34
HETATM   34  N1  UNL     1      24.119   7.768  51.248  1.00  0.00    -0.396 N 
HETATM   35  H4  UNL     1      23.594   8.365  51.885  1.00  0.00     0.156 HD
HETATM   36  H5  UNL     1      24.020   8.805  51.191  1.00  0.00     0.156 HD
ENDBRANCH   2  34
TORSDOF 5
ENDMDL
MODEL 4
REMARK VINA RESULT:      -8.1      4.138      7.784
REMARK  5 active torsions:
REMARK  status: ('A' for Active; 'I' for Inactive)
REMARK    1  A    between atoms: O1_2  and  C2_3 
REMARK    2  A    between atoms: C3_4  and  N1_5 
REMARK    3  A    between atoms: C13_17  and  C14_18 
REMARK    4  A    between atoms: C18_24  and  O2_25 
REMARK    5  A    between atoms: C20_27  and  O3_28 
ROOT
HETATM    1  C2  UNL     1      23.087   2.790  51.010  1.00  0.00     0.107 C 
HETATM    2  C3  UNL     1      22.987   1.950  52.055  1.00  0.00     0.071 C 
HETATM    3  C4  UNL     1      23.946   1.105  52.732  1.00  0.00     0.007 A 
HETATM    4  C5  UNL     1      23.272   0.182  53.478  1.00  0.00     0.015 A 
HETATM    5  C6  UNL     1      23.944  -0.753  54.251  1.00  0.00     0.002 A 
HETATM    6  C7  UNL     1      25.344  -0.727  54.250  1.00  0.00     0.020 A 
HETATM    7  C8  UNL     1      26.039   0.185  53.512  1.00  0.00     0.028 A 
HETATM    8  S1  UNL     1      27.791   0.024  53.681  1.00  0.00     0.002 SA
HETATM    9  C9  UNL     1      25.317   1.082  52.768  1.00  0.00     0.029 A 
HETATM   10  C10 UNL     1      26.400   1.868  52.131  1.00  0.00     0.156 C 
HETATM   11  N2  UNL     1      27.763   1.763  52.645  1.00  0.00    -0.001 N 
HETATM   12  C11 UNL     1      26.385   2.704  51.105  1.00  0.00     0.040 C 
HETATM   13  C12 UNL     1      25.363   3.177  50.221  1.00  0.00     0.019 C 
HETATM   14  C13 UNL     1      24.087   3.287  50.027  1.00  0.00     0.029 C 
HETATM   15  H9  UNL     1      28.153  -1.298  53.423  1.00  0.00     0.126 HD
HETATM   16  H10 UNL     1      28.125   1.190  51.791  1.00  0.00     0.298 HD
HETATM   17  H11 UNL     1      27.393   2.335  53.492  1.00  0.00     0.298 HD
ENDROOT
BRANCH  14  18
HETATM   18  C14 UNL     1      23.366   3.708  48.864  1.00  0.00     0.084 A 
HETATM   19  N3  UNL     1      22.733   2.790  48.118  1.00  0.00    -0.240 NA
HETATM   20  C15 UNL     1      22.060   3.040  47.018  1.00  0.00     0.234 A 
HETATM   21  N4  UNL     1      21.939   4.272  46.522  1.00  0.00    -0.241 NA
HETATM   22  C16 UNL     1      22.536   5.279  47.182  1.00  0.00     0.073 A 
HETATM   23  C17 UNL     1      22.463   6.547  46.651  1.00  0.00     0.072 A 
HETATM   24  C23 UNL     1      23.223   4.957  48.321  1.00  0.00     0.025 A 
HETATM   25  C18 UNL     1      23.113   7.594  47.269  1.00  0.00     0.103 A 
HETATM   26  C20 UNL     1      23.835   7.306  48.435  1.00  0.00     0.102 A 
HETATM   27  C22 UNL     1      23.861   6.023  48.904  1.00  0.00     0.055 A 
BRANCH  25  28
HETATM   28  O2  UNL     1      23.046   8.874  46.746  1.00  0.00    -0.353 OA
HETATM   29  C19 UNL     1      23.618   9.202  45.500  1.00  0.00     0.210 C 
ENDBRANCH  25  28
BRANCH  26  30
HETATM   30  O3  UNL     1      24.459   8.388  48.996  1.00  0.00    -0.353 OA
HETATM   31  C21 UNL     1      25.353   8.125  50.068  1.00  0.00     0.210 C 
ENDBRANCH  26  30
ENDBRANCH  14  18
BRANCH   1  32
HETATM   32  O1  UNL     1      21.795   3.334  50.859  1.00  0.00    -0.353 OA
HETATM   33  C1  UNL     1      21.447   4.591  51.417  1.00  0.00     0.210 C 
ENDBRANCH   1  32
BRANCH   2  34
HETATM   34  N1  UNL     1      21.722   1.860  52.646  1.00  0.00    -0.396 N 
HETATM   35  H4  UNL     1      20.721   1.717  52.771  1.00  0.00     0.156 HD
HETATM   36  H5  UNL     1      21.186   1.953  53.536  1.00  0.00     0.156 HD
ENDBRANCH   2  34
TORSDOF 5
ENDMDL
MODEL 5
REMARK VINA RESULT:      -8.0      4.319      6.546
REMARK  5 active torsions:
REMARK  status: ('A' for Active; 'I' for Inactive)
REMARK    1  A    between atoms: O1_2  and  C2_3 
REMARK    2  A    between atoms: C3_4  and  N1_5 
REMARK    3  A    between atoms: C13_17  and  C14_18 
REMARK    4  A    between atoms: C18_24  and  O2_25 
REMARK    5  A    between atoms: C20_27  and  O3_28 
ROOT
HETATM    1  C2  UNL     1      22.717   4.725  49.215  1.00  0.00     0.107 C 
HETATM    2  C3  UNL     1      23.002   5.469  48.132  1.00  0.00     0.071 C 
HETATM    3  C4  UNL     1      23.734   6.703  47.953  1.00  0.00     0.007 A 
HETATM    4  C5  UNL     1      23.419   7.231  46.734  1.00  0.00     0.015 A 
HETATM    5  C6  UNL     1      23.993   8.412  46.287  1.00  0.00     0.002 A 
HETATM    6  C7  UNL     1      24.912   9.057  47.124  1.00  0.00     0.020 A 
HETATM    7  C8  UNL     1      25.242   8.550  48.346  1.00  0.00     0.028 A 
HETATM    8  S1  UNL     1      26.427   9.536  49.209  1.00  0.00     0.002 SA
HETATM    9  C9  UNL     1      24.640   7.380  48.730  1.00  0.00     0.029 A 
HETATM   10  C10 UNL     1      25.238   7.173  50.071  1.00  0.00     0.156 C 
HETATM   11  N2  UNL     1      26.417   7.943  50.458  1.00  0.00    -0.001 N 
HETATM   12  C11 UNL     1      24.889   6.379  51.070  1.00  0.00     0.040 C 
HETATM   13  C12 UNL     1      23.835   5.429  51.266  1.00  0.00     0.019 C 
HETATM   14  C13 UNL     1      22.922   4.714  50.688  1.00  0.00     0.029 C 
HETATM   15  H9  UNL     1      25.976  10.855  49.254  1.00  0.00     0.126 HD
HETATM   16  H10 UNL     1      25.872   8.574  51.160  1.00  0.00     0.298 HD
HETATM   17  H11 UNL     1      26.952   7.309  49.756  1.00  0.00     0.298 HD
ENDROOT
BRANCH  14  18
HETATM   18  C14 UNL     1      21.862   3.940  51.259  1.00  0.00     0.084 A 
HETATM   19  N3  UNL     1      20.598   4.375  51.145  1.00  0.00    -0.240 NA
HETATM   20  C15 UNL     1      19.542   3.775  51.643  1.00  0.00     0.234 A 
HETATM   21  N4  UNL     1      19.629   2.637  52.332  1.00  0.00    -0.241 NA
HETATM   22  C16 UNL     1      20.848   2.103  52.517  1.00  0.00     0.073 A 
HETATM   23  C17 UNL     1      20.955   0.958  53.273  1.00  0.00     0.072 A 
HETATM   24  C23 UNL     1      21.911   2.774  51.976  1.00  0.00     0.025 A 
HETATM   25  C18 UNL     1      22.196   0.415  53.533  1.00  0.00     0.103 A 
HETATM   26  C20 UNL     1      23.313   1.076  53.003  1.00  0.00     0.102 A 
HETATM   27  C22 UNL     1      23.128   2.208  52.261  1.00  0.00     0.055 A 
BRANCH  25  28
HETATM   28  O2  UNL     1      22.318  -0.738  54.289  1.00  0.00    -0.353 OA
HETATM   29  C19 UNL     1      21.248  -1.641  54.452  1.00  0.00     0.210 C 
ENDBRANCH  25  28
BRANCH  26  30
HETATM   30  O3  UNL     1      24.513   0.487  53.301  1.00  0.00    -0.353 OA
HETATM   31  C21 UNL     1      25.545   0.617  52.334  1.00  0.00     0.210 C 
ENDBRANCH  26  30
ENDBRANCH  14  18
BRANCH   1  32
HETATM   32  O1  UNL     1      21.992   3.624  48.715  1.00  0.00    -0.353 OA
HETATM   33  C1  UNL     1      22.622   2.383  48.436  1.00  0.00     0.210 C 
ENDBRANCH   1  32
BRANCH   2  34
HETATM   34  N1  UNL     1      22.529   4.975  46.912  1.00  0.00    -0.396 N 
HETATM   35  H4  UNL     1      22.312   4.896  45.919  1.00  0.00     0.156 HD
HETATM   36  H5  UNL     1      22.038   4.183  46.443  1.00  0.00     0.156 HD
ENDBRANCH   2  34
TORSDOF 5
ENDMDL
MODEL 6
REMARK VINA RESULT:      -8.0      3.630      7.389
REMARK  5 active torsions:
REMARK  status: ('A' for Active; 'I' for Inactive)
REMARK    1  A    between atoms: O1_2  and  C2_3 
REMARK    2  A    between atoms: C3_4  and  N1_5 
REMARK    3  A    between atoms: C13_17  and  C14_18 
REMARK    4  A    between atoms: C18_24  and  O2_25 
REMARK    5  A    between atoms: C20_27  and  O3_28 
ROOT
HETATM    1  C2  UNL     1      24.955   3.202  51.295  1.00  0.00     0.107 C 
HETATM    2  C3  UNL     1      25.603   2.321  52.076  1.00  0.00     0.071 C 
HETATM    3  C4  UNL     1      25.148   1.269  52.957  1.00  0.00     0.007 A 
HETATM    4  C5  UNL     1      26.169   0.918  53.792  1.00  0.00     0.015 A 
HETATM    5  C6  UNL     1      26.019  -0.085  54.737  1.00  0.00     0.002 A 
HETATM    6  C7  UNL     1      24.783  -0.738  54.816  1.00  0.00     0.020 A 
HETATM    7  C8  UNL     1      23.747  -0.405  53.994  1.00  0.00     0.028 A 
HETATM    8  S1  UNL     1      22.297  -1.373  54.278  1.00  0.00     0.002 SA
HETATM    9  C9  UNL     1      23.958   0.596  53.081  1.00  0.00     0.029 A 
HETATM   10  C10 UNL     1      22.638   0.658  52.409  1.00  0.00     0.156 C 
HETATM   11  N2  UNL     1      21.686  -0.434  52.592  1.00  0.00    -0.001 N 
HETATM   12  C11 UNL     1      22.102   1.577  51.623  1.00  0.00     0.040 C 
HETATM   13  C12 UNL     1      22.549   2.840  51.116  1.00  0.00     0.019 C 
HETATM   14  C13 UNL     1      23.574   3.608  50.920  1.00  0.00     0.029 C 
HETATM   15  H9  UNL     1      21.974  -1.323  55.634  1.00  0.00     0.126 HD
HETATM   16  H10 UNL     1      21.021   0.149  53.230  1.00  0.00     0.298 HD
HETATM   17  H11 UNL     1      22.356  -1.006  51.955  1.00  0.00     0.298 HD
ENDROOT
BRANCH  14  18
HETATM   18  C14 UNL     1      23.632   4.976  50.501  1.00  0.00     0.084 A 
HETATM   19  N3  UNL     1      23.976   5.919  51.390  1.00  0.00    -0.240 NA
HETATM   20  C15 UNL     1      24.042   7.207  51.142  1.00  0.00     0.234 A 
HETATM   21  N4  UNL     1      23.763   7.716  49.941  1.00  0.00    -0.241 NA
HETATM   22  C16 UNL     1      23.400   6.866  48.965  1.00  0.00     0.073 A 
HETATM   23  C17 UNL     1      23.058   7.385  47.737  1.00  0.00     0.072 A 
HETATM   24  C23 UNL     1      23.348   5.536  49.284  1.00  0.00     0.025 A 
HETATM   25  C18 UNL     1      22.623   6.548  46.730  1.00  0.00     0.103 A 
HETATM   26  C20 UNL     1      22.549   5.179  47.018  1.00  0.00     0.102 A 
HETATM   27  C22 UNL     1      22.906   4.737  48.260  1.00  0.00     0.055 A 
BRANCH  25  28
HETATM   28  O2  UNL     1      22.278   7.056  45.490  1.00  0.00    -0.353 OA
HETATM   29  C19 UNL     1      23.250   7.437  44.543  1.00  0.00     0.210 C 
ENDBRANCH  25  28
BRANCH  26  30
HETATM   30  O3  UNL     1      22.107   4.405  45.977  1.00  0.00    -0.353 OA
HETATM   31  C21 UNL     1      20.793   3.877  46.086  1.00  0.00     0.210 C 
ENDBRANCH  26  30
ENDBRANCH  14  18
BRANCH   1  32
HETATM   32  O1  UNL     1      25.976   3.943  50.663  1.00  0.00    -0.353 OA
HETATM   33  C1  UNL     1      26.470   3.586  49.383  1.00  0.00     0.210 C 
ENDBRANCH   1  32
BRANCH   2  34
HETATM   34  N1  UNL     1      27.000   2.389  52.042  1.00  0.00    -0.396 N 
HETATM   35  H4  UNL     1      27.971   2.215  51.786  1.00  0.00     0.156 HD
HETATM   36  H5  UNL     1      27.844   2.843  52.455  1.00  0.00     0.156 HD
ENDBRANCH   2  34
TORSDOF 5
ENDMDL
MODEL 7
REMARK VINA RESULT:      -7.9      6.781      8.944
REMARK  5 active torsions:
REMARK  status: ('A' for Active; 'I' for Inactive)
REMARK    1  A    between atoms: O1_2  and  C2_3 
REMARK    2  A    between atoms: C3_4  and  N1_5 
REMARK    3  A    between atoms: C13_17  and  C14_18 
REMARK    4  A    between atoms: C18_24  and  O2_25 
REMARK    5  A    between atoms: C20_27  and  O3_28 
ROOT
HETATM    1  C2  UNL     1      27.178   7.684  48.937  1.00  0.00     0.107 C 
HETATM    2  C3  UNL     1      26.098   7.734  49.735  1.00  0.00     0.071 C 
HETATM    3  C4  UNL     1      25.165   6.726  50.190  1.00  0.00     0.007 A 
HETATM    4  C5  UNL     1      24.047   7.344  50.671  1.00  0.00     0.015 A 
HETATM    5  C6  UNL     1      22.988   6.618  51.193  1.00  0.00     0.002 A 
HETATM    6  C7  UNL     1      23.092   5.222  51.216  1.00  0.00     0.020 A 
HETATM    7  C8  UNL     1      24.199   4.582  50.741  1.00  0.00     0.028 A 
HETATM    8  S1  UNL     1      24.099   2.824  50.887  1.00  0.00     0.002 SA
HETATM    9  C9  UNL     1      25.212   5.356  50.237  1.00  0.00     0.029 A 
HETATM   10  C10 UNL     1      26.193   4.321  49.832  1.00  0.00     0.156 C 
HETATM   11  N2  UNL     1      26.039   2.953  50.321  1.00  0.00    -0.001 N 
HETATM   12  C11 UNL     1      27.258   4.387  49.050  1.00  0.00     0.040 C 
HETATM   13  C12 UNL     1      27.881   5.436  48.300  1.00  0.00     0.019 C 
HETATM   14  C13 UNL     1      27.963   6.717  48.123  1.00  0.00     0.029 C 
HETATM   15  H9  UNL     1      22.908   2.385  50.309  1.00  0.00     0.126 HD
HETATM   16  H10 UNL     1      25.720   2.561  49.356  1.00  0.00     0.298 HD
HETATM   17  H11 UNL     1      26.357   3.355  51.280  1.00  0.00     0.298 HD
ENDROOT
BRANCH  14  18
HETATM   18  C14 UNL     1      28.622   7.463  47.094  1.00  0.00     0.084 A 
HETATM   19  N3  UNL     1      27.885   8.089  46.166  1.00  0.00    -0.240 NA
HETATM   20  C15 UNL     1      28.364   8.783  45.158  1.00  0.00     0.234 A 
HETATM   21  N4  UNL     1      29.674   8.935  44.958  1.00  0.00    -0.241 NA
HETATM   22  C16 UNL     1      30.516   8.348  45.824  1.00  0.00     0.073 A 
HETATM   23  C17 UNL     1      31.870   8.453  45.597  1.00  0.00     0.072 A 
HETATM   24  C23 UNL     1      29.958   7.637  46.853  1.00  0.00     0.025 A 
HETATM   25  C18 UNL     1      32.763   7.813  46.431  1.00  0.00     0.103 A 
HETATM   26  C20 UNL     1      32.232   7.069  47.493  1.00  0.00     0.102 A 
HETATM   27  C22 UNL     1      30.878   7.011  47.656  1.00  0.00     0.055 A 
BRANCH  25  28
HETATM   28  O2  UNL     1      34.126   7.913  46.215  1.00  0.00    -0.353 OA
HETATM   29  C19 UNL     1      34.728   9.112  45.782  1.00  0.00     0.210 C 
ENDBRANCH  25  28
BRANCH  26  30
HETATM   30  O3  UNL     1      33.172   6.457  48.280  1.00  0.00    -0.353 OA
HETATM   31  C21 UNL     1      33.261   5.043  48.187  1.00  0.00     0.210 C 
ENDBRANCH  26  30
ENDBRANCH  14  18
BRANCH   1  32
HETATM   32  O1  UNL     1      27.669   9.006  48.910  1.00  0.00    -0.353 OA
HETATM   33  C1  UNL     1      28.790   9.399  49.686  1.00  0.00     0.210 C 
ENDBRANCH   1  32
BRANCH   2  34
HETATM   34  N1  UNL     1      25.791   8.990  50.268  1.00  0.00    -0.396 N 
HETATM   35  H4  UNL     1      25.590   9.986  50.342  1.00  0.00     0.156 HD
HETATM   36  H5  UNL     1      25.579   9.519  51.142  1.00  0.00     0.156 HD
ENDBRANCH   2  34
TORSDOF 5
ENDMDL
MODEL 8
REMARK VINA RESULT:      -7.7      4.820      7.710
REMARK  5 active torsions:
REMARK  status: ('A' for Active; 'I' for Inactive)
REMARK    1  A    between atoms: O1_2  and  C2_3 
REMARK    2  A    between atoms: C3_4  and  N1_5 
REMARK    3  A    between atoms: C13_17  and  C14_18 
REMARK    4  A    between atoms: C18_24  and  O2_25 
REMARK    5  A    between atoms: C20_27  and  O3_28 
ROOT
HETATM    1  C2  UNL     1      23.966   5.160  50.525  1.00  0.00     0.107 C 
HETATM    2  C3  UNL     1      23.325   4.366  51.400  1.00  0.00     0.071 C 
HETATM    3  C4  UNL     1      23.575   3.023  51.872  1.00  0.00     0.007 A 
HETATM    4  C5  UNL     1      22.441   2.544  52.461  1.00  0.00     0.015 A 
HETATM    5  C6  UNL     1      22.398   1.277  53.023  1.00  0.00     0.002 A 
HETATM    6  C7  UNL     1      23.556   0.492  52.972  1.00  0.00     0.020 A 
HETATM    7  C8  UNL     1      24.701   0.949  52.388  1.00  0.00     0.028 A 
HETATM    8  S1  UNL     1      26.027  -0.218  52.457  1.00  0.00     0.002 SA
HETATM    9  C9  UNL     1      24.679   2.209  51.851  1.00  0.00     0.029 A 
HETATM   10  C10 UNL     1      26.062   2.324  51.327  1.00  0.00     0.156 C 
HETATM   11  N2  UNL     1      27.076   1.367  51.760  1.00  0.00    -0.001 N 
HETATM   12  C11 UNL     1      26.604   3.179  50.474  1.00  0.00     0.040 C 
HETATM   13  C12 UNL     1      26.105   4.297  49.732  1.00  0.00     0.019 C 
HETATM   14  C13 UNL     1      25.140   5.153  49.612  1.00  0.00     0.029 C 
HETATM   15  H9  UNL     1      25.586  -1.439  51.946  1.00  0.00     0.126 HD
HETATM   16  H10 UNL     1      27.108   0.848  50.802  1.00  0.00     0.298 HD
HETATM   17  H11 UNL     1      27.038   1.891  52.711  1.00  0.00     0.298 HD
ENDROOT
BRANCH  14  18
HETATM   18  C14 UNL     1      24.878   6.105  48.575  1.00  0.00     0.084 A 
HETATM   19  N3  UNL     1      23.750   5.998  47.857  1.00  0.00    -0.240 NA
HETATM   20  C15 UNL     1      23.405   6.788  46.866  1.00  0.00     0.234 A 
HETATM   21  N4  UNL     1      24.170   7.805  46.467  1.00  0.00    -0.241 NA
HETATM   22  C16 UNL     1      25.331   8.010  47.109  1.00  0.00     0.073 A 
HETATM   23  C17 UNL     1      26.154   9.023  46.670  1.00  0.00     0.072 A 
HETATM   24  C23 UNL     1      25.638   7.155  48.132  1.00  0.00     0.025 A 
HETATM   25  C18 UNL     1      27.381   9.226  47.267  1.00  0.00     0.103 A 
HETATM   26  C20 UNL     1      27.736   8.366  48.315  1.00  0.00     0.102 A 
HETATM   27  C22 UNL     1      26.868   7.383  48.697  1.00  0.00     0.055 A 
BRANCH  25  28
HETATM   28  O2  UNL     1      28.216  10.242  46.837  1.00  0.00    -0.353 OA
HETATM   29  C19 UNL     1      28.969  10.137  45.650  1.00  0.00     0.210 C 
ENDBRANCH  25  28
BRANCH  26  30
HETATM   30  O3  UNL     1      28.967   8.619  48.862  1.00  0.00    -0.353 OA
HETATM   31  C21 UNL     1      30.004   7.700  48.552  1.00  0.00     0.210 C 
ENDBRANCH  26  30
ENDBRANCH  14  18
BRANCH   1  32
HETATM   32  O1  UNL     1      23.232   6.365  50.526  1.00  0.00    -0.353 OA
HETATM   33  C1  UNL     1      23.742   7.545  51.126  1.00  0.00     0.210 C 
ENDBRANCH   1  32
BRANCH   2  34
HETATM   34  N1  UNL     1      22.197   4.921  52.013  1.00  0.00    -0.396 N 
HETATM   35  H4  UNL     1      21.480   5.586  52.299  1.00  0.00     0.156 HD
HETATM   36  H5  UNL     1      21.386   4.732  52.642  1.00  0.00     0.156 HD
ENDBRANCH   2  34
TORSDOF 5
ENDMDL
MODEL 9
REMARK VINA RESULT:      -7.6      3.302      4.400
REMARK  5 active torsions:
REMARK  status: ('A' for Active; 'I' for Inactive)
REMARK    1  A    between atoms: O1_2  and  C2_3 
REMARK    2  A    between atoms: C3_4  and  N1_5 
REMARK    3  A    between atoms: C13_17  and  C14_18 
REMARK    4  A    between atoms: C18_24  and  O2_25 
REMARK    5  A    between atoms: C20_27  and  O3_28 
ROOT
HETATM    1  C2  UNL     1      21.880   3.466  50.671  1.00  0.00     0.107 C 
HETATM    2  C3  UNL     1      21.814   4.759  50.307  1.00  0.00     0.071 C 
HETATM    3  C4  UNL     1      21.966   5.430  49.036  1.00  0.00     0.007 A 
HETATM    4  C5  UNL     1      22.178   6.760  49.261  1.00  0.00     0.015 A 
HETATM    5  C6  UNL     1      22.341   7.653  48.213  1.00  0.00     0.002 A 
HETATM    6  C7  UNL     1      22.282   7.156  46.906  1.00  0.00     0.020 A 
HETATM    7  C8  UNL     1      22.073   5.832  46.656  1.00  0.00     0.028 A 
HETATM    8  S1  UNL     1      22.032   5.450  44.931  1.00  0.00     0.002 SA
HETATM    9  C9  UNL     1      21.920   4.999  47.734  1.00  0.00     0.029 A 
HETATM   10  C10 UNL     1      21.728   3.691  47.065  1.00  0.00     0.156 C 
HETATM   11  N2  UNL     1      21.425   3.651  45.636  1.00  0.00    -0.001 N 
HETATM   12  C11 UNL     1      21.787   2.454  47.532  1.00  0.00     0.040 C 
HETATM   13  C12 UNL     1      22.052   1.887  48.820  1.00  0.00     0.019 C 
HETATM   14  C13 UNL     1      22.135   2.120  50.091  1.00  0.00     0.029 C 
HETATM   15  H9  UNL     1      23.179   5.960  44.324  1.00  0.00     0.126 HD
HETATM   16  H10 UNL     1      22.411   3.278  45.358  1.00  0.00     0.298 HD
HETATM   17  H11 UNL     1      20.445   4.024  45.924  1.00  0.00     0.298 HD
ENDROOT
BRANCH  14  18
HETATM   18  C14 UNL     1      22.616   1.285  51.150  1.00  0.00     0.084 A 
HETATM   19  N3  UNL     1      21.761   0.463  51.775  1.00  0.00    -0.240 NA
HETATM   20  C15 UNL     1      22.068  -0.333  52.775  1.00  0.00     0.234 A 
HETATM   21  N4  UNL     1      23.301  -0.399  53.279  1.00  0.00    -0.241 NA
HETATM   22  C16 UNL     1      24.247   0.384  52.736  1.00  0.00     0.073 A 
HETATM   23  C17 UNL     1      25.510   0.364  53.283  1.00  0.00     0.072 A 
HETATM   24  C23 UNL     1      23.868   1.193  51.698  1.00  0.00     0.025 A 
HETATM   25  C18 UNL     1      26.491   1.198  52.790  1.00  0.00     0.103 A 
HETATM   26  C20 UNL     1      26.142   2.048  51.731  1.00  0.00     0.102 A 
HETATM   27  C22 UNL     1      24.868   2.012  51.239  1.00  0.00     0.055 A 
BRANCH  25  28
HETATM   28  O2  UNL     1      27.765   1.186  53.330  1.00  0.00    -0.353 OA
HETATM   29  C19 UNL     1      28.099   0.380  54.438  1.00  0.00     0.210 C 
ENDBRANCH  25  28
BRANCH  26  30
HETATM   30  O3  UNL     1      27.160   2.852  51.292  1.00  0.00    -0.353 OA
HETATM   31  C21 UNL     1      26.896   3.647  50.145  1.00  0.00     0.210 C 
ENDBRANCH  26  30
ENDBRANCH  14  18
BRANCH   1  32
HETATM   32  O1  UNL     1      21.612   3.467  52.056  1.00  0.00    -0.353 OA
HETATM   33  C1  UNL     1      20.315   3.197  52.562  1.00  0.00     0.210 C 
ENDBRANCH   1  32
BRANCH   2  34
HETATM   34  N1  UNL     1      21.524   5.666  51.332  1.00  0.00    -0.396 N 
HETATM   35  H4  UNL     1      21.591   6.206  52.193  1.00  0.00     0.156 HD
HETATM   36  H5  UNL     1      20.848   6.385  51.670  1.00  0.00     0.156 HD
ENDBRANCH   2  34
TORSDOF 5
ENDMDL
