MODEL 1
REMARK VINA RESULT:      -6.3      0.000      0.000
REMARK  9 active torsions:
REMARK  status: ('A' for Active; 'I' for Inactive)
REMARK    1  A    between atoms: C1_2  and  P1_3 
REMARK    2  A    between atoms: P1_3  and  C2_4 
REMARK    3  A    between atoms: C2_4  and  C3_5 
REMARK    4  A    between atoms: C3_5  and  C4_7 
REMARK    5  A    between atoms: C5_8  and  C6_9 
REMARK    6  A    between atoms: C6_9  and  O1_10 
REMARK    7  A    between atoms: O1_10  and  C7_11 
REMARK    8  A    between atoms: C10_14  and  N1_15 
REMARK    9  A    between atoms: N1_15  and  C11_16 
ROOT
HETATM    1  C7  UNL     1      23.950   3.436  52.029  1.00  0.00     0.090 A 
HETATM    2  C8  UNL     1      24.364   3.170  53.306  1.00  0.00     0.041 A 
HETATM    3  C9  UNL     1      25.543   2.486  53.495  1.00  0.00     0.032 A 
HETATM    4  C10 UNL     1      26.290   2.079  52.390  1.00  0.00     0.030 A 
HETATM    5  C15 UNL     1      25.894   2.336  51.112  1.00  0.00     0.056 A 
HETATM    6  C16 UNL     1      24.697   3.031  50.919  1.00  0.00     0.069 A 
HETATM    7 CL1  UNL     1      24.209   3.348  49.251  1.00  0.00    -0.081 Cl
ENDROOT
BRANCH   1   8
HETATM    8  O1  UNL     1      22.806   4.103  51.681  1.00  0.00    -0.346 OA
BRANCH   8   9
HETATM    9  C6  UNL     1      21.505   3.811  52.177  1.00  0.00     0.203 C 
BRANCH   9  10
HETATM   10  C5  UNL     1      21.154   2.403  51.911  1.00  0.00     0.003 C 
HETATM   11  C4  UNL     1      20.501   1.652  52.781  1.00  0.00     0.049 C 
BRANCH  11  12
HETATM   12  C3  UNL     1      20.030   0.249  52.782  1.00  0.00     0.162 C 
HETATM   13  F2  UNL     1      18.936  -0.405  52.265  1.00  0.00    -0.197 F 
BRANCH  12  14
HETATM   14  C2  UNL     1      20.849  -0.568  53.434  1.00  0.00    -0.075 C 
BRANCH  14  15
HETATM   15  P1  UNL     1      22.003  -1.215  54.446  1.00  0.00     0.031 P 
BRANCH  15  16
HETATM   16  C1  UNL     1      23.803  -0.771  54.148  1.00  0.00     0.274 C 
HETATM   17  F1  UNL     1      23.861  -0.220  52.866  1.00  0.00    -0.249 F 
ENDBRANCH  15  16
ENDBRANCH  14  15
ENDBRANCH  12  14
ENDBRANCH  11  12
ENDBRANCH   9  10
ENDBRANCH   8   9
ENDBRANCH   1   8
BRANCH   4  18
HETATM   18  N1  UNL     1      27.520   1.365  52.589  1.00  0.00    -0.377 N 
HETATM   19  H9  UNL     1      28.301   1.499  51.915  1.00  0.00     0.160 HD
BRANCH  18  20
HETATM   20  C11 UNL     1      27.752   0.455  53.678  1.00  0.00     0.147 A 
HETATM   21  C12 UNL     1      29.185   0.325  54.043  1.00  0.00     0.022 A 
HETATM   22  C13 UNL     1      29.624  -0.905  53.814  1.00  0.00     0.114 A 
HETATM   23  N2  UNL     1      28.536  -1.670  53.291  1.00  0.00    -0.275 NA
HETATM   24  C14 UNL     1      27.470  -0.943  53.201  1.00  0.00     0.118 A 
ENDBRANCH  18  20
ENDBRANCH   4  18
TORSDOF 9
ENDMDL
MODEL 2
REMARK VINA RESULT:      -6.1      3.338      4.345
REMARK  9 active torsions:
REMARK  status: ('A' for Active; 'I' for Inactive)
REMARK    1  A    between atoms: C1_2  and  P1_3 
REMARK    2  A    between atoms: P1_3  and  C2_4 
REMARK    3  A    between atoms: C2_4  and  C3_5 
REMARK    4  A    between atoms: C3_5  and  C4_7 
REMARK    5  A    between atoms: C5_8  and  C6_9 
REMARK    6  A    between atoms: C6_9  and  O1_10 
REMARK    7  A    between atoms: O1_10  and  C7_11 
REMARK    8  A    between atoms: C10_14  and  N1_15 
REMARK    9  A    between atoms: N1_15  and  C11_16 
ROOT
HETATM    1  C7  UNL     1      22.759   0.722  53.096  1.00  0.00     0.090 A 
HETATM    2  C8  UNL     1      23.776   1.573  52.756  1.00  0.00     0.041 A 
HETATM    3  C9  UNL     1      25.069   1.227  53.078  1.00  0.00     0.032 A 
HETATM    4  C10 UNL     1      25.318   0.025  53.740  1.00  0.00     0.030 A 
HETATM    5  C15 UNL     1      24.317  -0.834  54.085  1.00  0.00     0.056 A 
HETATM    6  C16 UNL     1      23.004  -0.483  53.758  1.00  0.00     0.069 A 
HETATM    7 CL1  UNL     1      21.729  -1.616  54.219  1.00  0.00    -0.081 Cl
ENDROOT
BRANCH   1   8
HETATM    8  O1  UNL     1      21.428   0.926  52.844  1.00  0.00    -0.346 OA
BRANCH   8   9
HETATM    9  C6  UNL     1      20.778   0.649  51.609  1.00  0.00     0.203 C 
BRANCH   9  10
HETATM   10  C5  UNL     1      21.145   1.656  50.595  1.00  0.00     0.003 C 
HETATM   11  C4  UNL     1      22.055   1.431  49.662  1.00  0.00     0.049 C 
BRANCH  11  12
HETATM   12  C3  UNL     1      22.609   2.233  48.549  1.00  0.00     0.162 C 
HETATM   13  F2  UNL     1      22.451   2.233  47.183  1.00  0.00    -0.197 F 
BRANCH  12  14
HETATM   14  C2  UNL     1      23.456   3.168  48.962  1.00  0.00    -0.075 C 
BRANCH  14  15
HETATM   15  P1  UNL     1      24.486   4.120  49.862  1.00  0.00     0.031 P 
BRANCH  15  16
HETATM   16  C1  UNL     1      26.319   4.088  49.452  1.00  0.00     0.274 C 
HETATM   17  F1  UNL     1      26.653   2.745  49.264  1.00  0.00    -0.249 F 
ENDBRANCH  15  16
ENDBRANCH  14  15
ENDBRANCH  12  14
ENDBRANCH  11  12
ENDBRANCH   9  10
ENDBRANCH   8   9
ENDBRANCH   1   8
BRANCH   4  18
HETATM   18  N1  UNL     1      26.667  -0.334  54.076  1.00  0.00    -0.377 N 
HETATM   19  H9  UNL     1      26.883  -0.652  55.042  1.00  0.00     0.160 HD
BRANCH  18  20
HETATM   20  C11 UNL     1      27.765  -0.282  53.149  1.00  0.00     0.147 A 
HETATM   21  C12 UNL     1      28.699  -1.429  53.277  1.00  0.00     0.022 A 
HETATM   22  C13 UNL     1      29.898  -1.025  53.672  1.00  0.00     0.114 A 
HETATM   23  N2  UNL     1      29.852   0.395  53.833  1.00  0.00    -0.275 NA
HETATM   24  C14 UNL     1      28.675   0.847  53.549  1.00  0.00     0.118 A 
ENDBRANCH  18  20
ENDBRANCH   4  18
TORSDOF 9
ENDMDL
MODEL 3
REMARK VINA RESULT:      -6.1      3.041      4.808
REMARK  9 active torsions:
REMARK  status: ('A' for Active; 'I' for Inactive)
REMARK    1  A    between atoms: C1_2  and  P1_3 
REMARK    2  A    between atoms: P1_3  and  C2_4 
REMARK    3  A    between atoms: C2_4  and  C3_5 
REMARK    4  A    between atoms: C3_5  and  C4_7 
REMARK    5  A    between atoms: C5_8  and  C6_9 
REMARK    6  A    between atoms: C6_9  and  O1_10 
REMARK    7  A    between atoms: O1_10  and  C7_11 
REMARK    8  A    between atoms: C10_14  and  N1_15 
REMARK    9  A    between atoms: N1_15  and  C11_16 
ROOT
HETATM    1  C7  UNL     1      24.599   0.343  52.897  1.00  0.00     0.090 A 
HETATM    2  C8  UNL     1      23.954   1.548  52.823  1.00  0.00     0.041 A 
HETATM    3  C9  UNL     1      24.584   2.604  52.206  1.00  0.00     0.032 A 
HETATM    4  C10 UNL     1      25.860   2.430  51.670  1.00  0.00     0.030 A 
HETATM    5  C15 UNL     1      26.517   1.237  51.735  1.00  0.00     0.056 A 
HETATM    6  C16 UNL     1      25.877   0.164  52.361  1.00  0.00     0.069 A 
HETATM    7 CL1  UNL     1      26.754  -1.368  52.429  1.00  0.00    -0.081 Cl
ENDROOT
BRANCH   1   8
HETATM    8  O1  UNL     1      24.105  -0.795  53.476  1.00  0.00    -0.346 OA
BRANCH   8   9
HETATM    9  C6  UNL     1      23.585  -0.881  54.798  1.00  0.00     0.203 C 
BRANCH   9  10
HETATM   10  C5  UNL     1      22.113  -0.784  54.782  1.00  0.00     0.003 C 
HETATM   11  C4  UNL     1      21.390  -1.056  53.709  1.00  0.00     0.049 C 
BRANCH  11  12
HETATM   12  C3  UNL     1      19.940  -1.044  53.414  1.00  0.00     0.162 C 
HETATM   13  F2  UNL     1      18.862  -1.794  53.823  1.00  0.00    -0.197 F 
BRANCH  12  14
HETATM   14  C2  UNL     1      19.600  -0.093  52.552  1.00  0.00    -0.075 C 
BRANCH  14  15
HETATM   15  P1  UNL     1      19.468   1.333  51.702  1.00  0.00     0.031 P 
BRANCH  15  16
HETATM   16  C1  UNL     1      20.953   1.927  50.717  1.00  0.00     0.274 C 
HETATM   17  F1  UNL     1      21.611   0.778  50.274  1.00  0.00    -0.249 F 
ENDBRANCH  15  16
ENDBRANCH  14  15
ENDBRANCH  12  14
ENDBRANCH  11  12
ENDBRANCH   9  10
ENDBRANCH   8   9
ENDBRANCH   1   8
BRANCH   4  18
HETATM   18  N1  UNL     1      26.517   3.533  51.028  1.00  0.00    -0.377 N 
HETATM   19  H9  UNL     1      27.316   3.997  51.504  1.00  0.00     0.160 HD
BRANCH  18  20
HETATM   20  C11 UNL     1      26.137   4.054  49.742  1.00  0.00     0.147 A 
HETATM   21  C12 UNL     1      27.295   4.442  48.897  1.00  0.00     0.022 A 
HETATM   22  C13 UNL     1      27.300   5.747  48.669  1.00  0.00     0.114 A 
HETATM   23  N2  UNL     1      26.168   6.315  49.332  1.00  0.00    -0.275 NA
HETATM   24  C14 UNL     1      25.492   5.398  49.944  1.00  0.00     0.118 A 
ENDBRANCH  18  20
ENDBRANCH   4  18
TORSDOF 9
ENDMDL
MODEL 4
REMARK VINA RESULT:      -6.0      3.620      4.717
REMARK  9 active torsions:
REMARK  status: ('A' for Active; 'I' for Inactive)
REMARK    1  A    between atoms: C1_2  and  P1_3 
REMARK    2  A    between atoms: P1_3  and  C2_4 
REMARK    3  A    between atoms: C2_4  and  C3_5 
REMARK    4  A    between atoms: C3_5  and  C4_7 
REMARK    5  A    between atoms: C5_8  and  C6_9 
REMARK    6  A    between atoms: C6_9  and  O1_10 
REMARK    7  A    between atoms: O1_10  and  C7_11 
REMARK    8  A    between atoms: C10_14  and  N1_15 
REMARK    9  A    between atoms: N1_15  and  C11_16 
ROOT
HETATM    1  C7  UNL     1      22.657   2.433  51.631  1.00  0.00     0.090 A 
HETATM    2  C8  UNL     1      23.340   1.252  51.753  1.00  0.00     0.041 A 
HETATM    3  C9  UNL     1      24.516   1.234  52.468  1.00  0.00     0.032 A 
HETATM    4  C10 UNL     1      24.987   2.409  53.053  1.00  0.00     0.030 A 
HETATM    5  C15 UNL     1      24.320   3.592  52.942  1.00  0.00     0.056 A 
HETATM    6  C16 UNL     1      23.126   3.612  52.216  1.00  0.00     0.069 A 
HETATM    7 CL1  UNL     1      22.285   5.160  52.090  1.00  0.00    -0.081 Cl
ENDROOT
BRANCH   1   8
HETATM    8  O1  UNL     1      21.480   2.610  50.955  1.00  0.00    -0.346 OA
BRANCH   8   9
HETATM    9  C6  UNL     1      21.284   2.346  49.571  1.00  0.00     0.203 C 
BRANCH   9  10
HETATM   10  C5  UNL     1      22.247   3.111  48.756  1.00  0.00     0.003 C 
HETATM   11  C4  UNL     1      22.220   4.430  48.670  1.00  0.00     0.049 C 
BRANCH  11  12
HETATM   12  C3  UNL     1      23.037   5.432  47.950  1.00  0.00     0.162 C 
HETATM   13  F2  UNL     1      22.882   6.155  46.791  1.00  0.00    -0.197 F 
BRANCH  12  14
HETATM   14  C2  UNL     1      24.188   5.690  48.560  1.00  0.00    -0.075 C 
BRANCH  14  15
HETATM   15  P1  UNL     1      25.588   5.594  49.457  1.00  0.00     0.031 P 
BRANCH  15  16
HETATM   16  C1  UNL     1      26.339   3.901  49.764  1.00  0.00     0.274 C 
HETATM   17  F1  UNL     1      25.304   2.979  49.594  1.00  0.00    -0.249 F 
ENDBRANCH  15  16
ENDBRANCH  14  15
ENDBRANCH  12  14
ENDBRANCH  11  12
ENDBRANCH   9  10
ENDBRANCH   8   9
ENDBRANCH   1   8
BRANCH   4  18
HETATM   18  N1  UNL     1      26.214   2.388  53.798  1.00  0.00    -0.377 N 
HETATM   19  H9  UNL     1      26.268   2.895  54.704  1.00  0.00     0.160 HD
BRANCH  18  20
HETATM   20  C11 UNL     1      27.402   1.700  53.368  1.00  0.00     0.147 A 
HETATM   21  C12 UNL     1      27.628   0.415  54.076  1.00  0.00     0.022 A 
HETATM   22  C13 UNL     1      28.735   0.460  54.803  1.00  0.00     0.114 A 
HETATM   23  N2  UNL     1      29.318   1.755  54.637  1.00  0.00    -0.275 NA
HETATM   24  C14 UNL     1      28.601   2.478  53.840  1.00  0.00     0.118 A 
ENDBRANCH  18  20
ENDBRANCH   4  18
TORSDOF 9
ENDMDL
MODEL 5
REMARK VINA RESULT:      -6.0      3.391      4.408
REMARK  9 active torsions:
REMARK  status: ('A' for Active; 'I' for Inactive)
REMARK    1  A    between atoms: C1_2  and  P1_3 
REMARK    2  A    between atoms: P1_3  and  C2_4 
REMARK    3  A    between atoms: C2_4  and  C3_5 
REMARK    4  A    between atoms: C3_5  and  C4_7 
REMARK    5  A    between atoms: C5_8  and  C6_9 
REMARK    6  A    between atoms: C6_9  and  O1_10 
REMARK    7  A    between atoms: O1_10  and  C7_11 
REMARK    8  A    between atoms: C10_14  and  N1_15 
REMARK    9  A    between atoms: N1_15  and  C11_16 
ROOT
HETATM    1  C7  UNL     1      22.675   0.426  52.798  1.00  0.00     0.090 A 
HETATM    2  C8  UNL     1      23.713   1.033  52.144  1.00  0.00     0.041 A 
HETATM    3  C9  UNL     1      25.003   0.731  52.517  1.00  0.00     0.032 A 
HETATM    4  C10 UNL     1      25.227  -0.182  53.548  1.00  0.00     0.030 A 
HETATM    5  C15 UNL     1      24.206  -0.795  54.209  1.00  0.00     0.056 A 
HETATM    6  C16 UNL     1      22.896  -0.489  53.830  1.00  0.00     0.069 A 
HETATM    7 CL1  UNL     1      21.593  -1.299  54.706  1.00  0.00    -0.081 Cl
ENDROOT
BRANCH   1   8
HETATM    8  O1  UNL     1      21.344   0.623  52.542  1.00  0.00    -0.346 OA
BRANCH   8   9
HETATM    9  C6  UNL     1      20.549   1.664  53.096  1.00  0.00     0.203 C 
BRANCH   9  10
HETATM   10  C5  UNL     1      20.424   2.783  52.142  1.00  0.00     0.003 C 
HETATM   11  C4  UNL     1      21.242   3.822  52.149  1.00  0.00     0.049 C 
BRANCH  11  12
HETATM   12  C3  UNL     1      21.349   5.053  51.334  1.00  0.00     0.162 C 
HETATM   13  F2  UNL     1      20.466   5.806  50.597  1.00  0.00    -0.197 F 
BRANCH  12  14
HETATM   14  C2  UNL     1      22.583   5.542  51.304  1.00  0.00    -0.075 C 
BRANCH  14  15
HETATM   15  P1  UNL     1      24.040   6.201  50.836  1.00  0.00     0.031 P 
BRANCH  15  16
HETATM   16  C1  UNL     1      25.342   5.061  50.105  1.00  0.00     0.274 C 
HETATM   17  F1  UNL     1      25.288   3.880  50.848  1.00  0.00    -0.249 F 
ENDBRANCH  15  16
ENDBRANCH  14  15
ENDBRANCH  12  14
ENDBRANCH  11  12
ENDBRANCH   9  10
ENDBRANCH   8   9
ENDBRANCH   1   8
BRANCH   4  18
HETATM   18  N1  UNL     1      26.574  -0.495  53.938  1.00  0.00    -0.377 N 
HETATM   19  H9  UNL     1      26.758  -0.838  54.902  1.00  0.00     0.160 HD
BRANCH  18  20
HETATM   20  C11 UNL     1      27.711  -0.364  53.068  1.00  0.00     0.147 A 
HETATM   21  C12 UNL     1      28.725  -1.432  53.257  1.00  0.00     0.022 A 
HETATM   22  C13 UNL     1      29.866  -0.930  53.708  1.00  0.00     0.114 A 
HETATM   23  N2  UNL     1      29.700   0.483  53.850  1.00  0.00    -0.275 NA
HETATM   24  C14 UNL     1      28.506   0.838  53.500  1.00  0.00     0.118 A 
ENDBRANCH  18  20
ENDBRANCH   4  18
TORSDOF 9
ENDMDL
MODEL 6
REMARK VINA RESULT:      -5.9      4.129      5.271
REMARK  9 active torsions:
REMARK  status: ('A' for Active; 'I' for Inactive)
REMARK    1  A    between atoms: C1_2  and  P1_3 
REMARK    2  A    between atoms: P1_3  and  C2_4 
REMARK    3  A    between atoms: C2_4  and  C3_5 
REMARK    4  A    between atoms: C3_5  and  C4_7 
REMARK    5  A    between atoms: C5_8  and  C6_9 
REMARK    6  A    between atoms: C6_9  and  O1_10 
REMARK    7  A    between atoms: O1_10  and  C7_11 
REMARK    8  A    between atoms: C10_14  and  N1_15 
REMARK    9  A    between atoms: N1_15  and  C11_16 
ROOT
HETATM    1  C7  UNL     1      24.065   3.155  51.988  1.00  0.00     0.090 A 
HETATM    2  C8  UNL     1      24.391   2.727  53.247  1.00  0.00     0.041 A 
HETATM    3  C9  UNL     1      25.630   2.168  53.460  1.00  0.00     0.032 A 
HETATM    4  C10 UNL     1      26.526   2.050  52.398  1.00  0.00     0.030 A 
HETATM    5  C15 UNL     1      26.219   2.472  51.139  1.00  0.00     0.056 A 
HETATM    6  C16 UNL     1      24.960   3.039  50.922  1.00  0.00     0.069 A 
HETATM    7 CL1  UNL     1      24.591   3.576  49.280  1.00  0.00    -0.081 Cl
ENDROOT
BRANCH   1   8
HETATM    8  O1  UNL     1      22.877   3.729  51.621  1.00  0.00    -0.346 OA
BRANCH   8   9
HETATM    9  C6  UNL     1      22.362   4.948  52.142  1.00  0.00     0.203 C 
BRANCH   9  10
HETATM   10  C5  UNL     1      22.434   6.016  51.126  1.00  0.00     0.003 C 
HETATM   11  C4  UNL     1      23.534   6.714  50.900  1.00  0.00     0.049 C 
BRANCH  11  12
HETATM   12  C3  UNL     1      23.884   7.812  49.971  1.00  0.00     0.162 C 
HETATM   13  F2  UNL     1      23.325   9.028  49.655  1.00  0.00    -0.197 F 
BRANCH  12  14
HETATM   14  C2  UNL     1      24.990   7.566  49.280  1.00  0.00    -0.075 C 
BRANCH  14  15
HETATM   15  P1  UNL     1      26.098   7.273  48.071  1.00  0.00     0.031 P 
BRANCH  15  16
HETATM   16  C1  UNL     1      27.644   6.294  48.495  1.00  0.00     0.274 C 
HETATM   17  F1  UNL     1      27.331   4.953  48.266  1.00  0.00    -0.249 F 
ENDBRANCH  15  16
ENDBRANCH  14  15
ENDBRANCH  12  14
ENDBRANCH  11  12
ENDBRANCH   9  10
ENDBRANCH   8   9
ENDBRANCH   1   8
BRANCH   4  18
HETATM   18  N1  UNL     1      27.819   1.466  52.622  1.00  0.00    -0.377 N 
HETATM   19  H9  UNL     1      28.599   1.691  51.972  1.00  0.00     0.160 HD
BRANCH  18  20
HETATM   20  C11 UNL     1      28.117   0.570  53.706  1.00  0.00     0.147 A 
HETATM   21  C12 UNL     1      29.567   0.285  53.855  1.00  0.00     0.022 A 
HETATM   22  C13 UNL     1      29.827  -0.993  53.622  1.00  0.00     0.114 A 
HETATM   23  N2  UNL     1      28.593  -1.643  53.307  1.00  0.00    -0.275 NA
HETATM   24  C14 UNL     1      27.613  -0.801  53.345  1.00  0.00     0.118 A 
ENDBRANCH  18  20
ENDBRANCH   4  18
TORSDOF 9
ENDMDL
MODEL 7
REMARK VINA RESULT:      -5.8      3.301      5.193
REMARK  9 active torsions:
REMARK  status: ('A' for Active; 'I' for Inactive)
REMARK    1  A    between atoms: C1_2  and  P1_3 
REMARK    2  A    between atoms: P1_3  and  C2_4 
REMARK    3  A    between atoms: C2_4  and  C3_5 
REMARK    4  A    between atoms: C3_5  and  C4_7 
REMARK    5  A    between atoms: C5_8  and  C6_9 
REMARK    6  A    between atoms: C6_9  and  O1_10 
REMARK    7  A    between atoms: O1_10  and  C7_11 
REMARK    8  A    between atoms: C10_14  and  N1_15 
REMARK    9  A    between atoms: N1_15  and  C11_16 
ROOT
HETATM    1  C7  UNL     1      22.732   2.480  51.291  1.00  0.00     0.090 A 
HETATM    2  C8  UNL     1      23.849   1.958  50.697  1.00  0.00     0.041 A 
HETATM    3  C9  UNL     1      24.893   2.800  50.387  1.00  0.00     0.032 A 
HETATM    4  C10 UNL     1      24.795   4.159  50.683  1.00  0.00     0.030 A 
HETATM    5  C15 UNL     1      23.691   4.695  51.274  1.00  0.00     0.056 A 
HETATM    6  C16 UNL     1      22.630   3.841  51.589  1.00  0.00     0.069 A 
HETATM    7 CL1  UNL     1      21.212   4.566  52.355  1.00  0.00    -0.081 Cl
ENDROOT
BRANCH   1   8
HETATM    8  O1  UNL     1      21.617   1.774  51.658  1.00  0.00    -0.346 OA
BRANCH   8   9
HETATM    9  C6  UNL     1      21.610   0.413  52.073  1.00  0.00     0.203 C 
BRANCH   9  10
HETATM   10  C5  UNL     1      22.332   0.258  53.350  1.00  0.00     0.003 C 
HETATM   11  C4  UNL     1      23.359  -0.562  53.495  1.00  0.00     0.049 C 
BRANCH  11  12
HETATM   12  C3  UNL     1      24.246  -0.910  54.627  1.00  0.00     0.162 C 
HETATM   13  F2  UNL     1      24.072  -1.545  55.834  1.00  0.00    -0.197 F 
BRANCH  12  14
HETATM   14  C2  UNL     1      25.500  -0.516  54.437  1.00  0.00    -0.075 C 
BRANCH  14  15
HETATM   15  P1  UNL     1      26.889   0.378  54.225  1.00  0.00     0.031 P 
BRANCH  15  16
HETATM   16  C1  UNL     1      26.725   2.162  53.660  1.00  0.00     0.274 C 
HETATM   17  F1  UNL     1      25.369   2.480  53.762  1.00  0.00    -0.249 F 
ENDBRANCH  15  16
ENDBRANCH  14  15
ENDBRANCH  12  14
ENDBRANCH  11  12
ENDBRANCH   9  10
ENDBRANCH   8   9
ENDBRANCH   1   8
BRANCH   4  18
HETATM   18  N1  UNL     1      25.885   5.036  50.358  1.00  0.00    -0.377 N 
HETATM   19  H9  UNL     1      26.439   5.466  51.126  1.00  0.00     0.160 HD
BRANCH  18  20
HETATM   20  C11 UNL     1      26.272   5.371  49.014  1.00  0.00     0.147 A 
HETATM   21  C12 UNL     1      27.582   4.797  48.617  1.00  0.00     0.022 A 
HETATM   22  C13 UNL     1      28.471   5.753  48.388  1.00  0.00     0.114 A 
HETATM   23  N2  UNL     1      27.831   7.011  48.611  1.00  0.00    -0.275 NA
HETATM   24  C14 UNL     1      26.598   6.839  48.963  1.00  0.00     0.118 A 
ENDBRANCH  18  20
ENDBRANCH   4  18
TORSDOF 9
ENDMDL
MODEL 8
REMARK VINA RESULT:      -5.8      3.375      4.373
REMARK  9 active torsions:
REMARK  status: ('A' for Active; 'I' for Inactive)
REMARK    1  A    between atoms: C1_2  and  P1_3 
REMARK    2  A    between atoms: P1_3  and  C2_4 
REMARK    3  A    between atoms: C2_4  and  C3_5 
REMARK    4  A    between atoms: C3_5  and  C4_7 
REMARK    5  A    between atoms: C5_8  and  C6_9 
REMARK    6  A    between atoms: C6_9  and  O1_10 
REMARK    7  A    between atoms: O1_10  and  C7_11 
REMARK    8  A    between atoms: C10_14  and  N1_15 
REMARK    9  A    between atoms: N1_15  and  C11_16 
ROOT
HETATM    1  C7  UNL     1      22.625   0.840  52.863  1.00  0.00     0.090 A 
HETATM    2  C8  UNL     1      22.997  -0.429  53.218  1.00  0.00     0.041 A 
HETATM    3  C9  UNL     1      24.300  -0.659  53.598  1.00  0.00     0.032 A 
HETATM    4  C10 UNL     1      25.211   0.397  53.615  1.00  0.00     0.030 A 
HETATM    5  C15 UNL     1      24.857   1.666  53.266  1.00  0.00     0.056 A 
HETATM    6  C16 UNL     1      23.535   1.900  52.880  1.00  0.00     0.069 A 
HETATM    7 CL1  UNL     1      23.107   3.555  52.432  1.00  0.00    -0.081 Cl
ENDROOT
BRANCH   1   8
HETATM    8  O1  UNL     1      21.373   1.224  52.465  1.00  0.00    -0.346 OA
BRANCH   8   9
HETATM    9  C6  UNL     1      20.659   0.672  51.365  1.00  0.00     0.203 C 
BRANCH   9  10
HETATM   10  C5  UNL     1      21.453   0.780  50.126  1.00  0.00     0.003 C 
HETATM   11  C4  UNL     1      21.709   1.936  49.539  1.00  0.00     0.049 C 
BRANCH  11  12
HETATM   12  C3  UNL     1      22.456   2.331  48.325  1.00  0.00     0.162 C 
HETATM   13  F2  UNL     1      22.825   1.692  47.164  1.00  0.00    -0.197 F 
BRANCH  12  14
HETATM   14  C2  UNL     1      22.869   3.593  48.363  1.00  0.00    -0.075 C 
BRANCH  14  15
HETATM   15  P1  UNL     1      22.965   5.254  48.308  1.00  0.00     0.031 P 
BRANCH  15  16
HETATM   16  C1  UNL     1      22.953   6.205  49.928  1.00  0.00     0.274 C 
HETATM   17  F1  UNL     1      24.184   5.954  50.536  1.00  0.00    -0.249 F 
ENDBRANCH  15  16
ENDBRANCH  14  15
ENDBRANCH  12  14
ENDBRANCH  11  12
ENDBRANCH   9  10
ENDBRANCH   8   9
ENDBRANCH   1   8
BRANCH   4  18
HETATM   18  N1  UNL     1      26.570   0.156  54.011  1.00  0.00    -0.377 N 
HETATM   19  H9  UNL     1      26.793   0.037  55.019  1.00  0.00     0.160 HD
BRANCH  18  20
HETATM   20  C11 UNL     1      27.670   0.065  53.088  1.00  0.00     0.147 A 
HETATM   21  C12 UNL     1      28.466  -1.179  53.239  1.00  0.00     0.022 A 
HETATM   22  C13 UNL     1      29.702  -0.908  53.633  1.00  0.00     0.114 A 
HETATM   23  N2  UNL     1      29.819   0.510  53.771  1.00  0.00    -0.275 NA
HETATM   24  C14 UNL     1      28.702   1.090  53.474  1.00  0.00     0.118 A 
ENDBRANCH  18  20
ENDBRANCH   4  18
TORSDOF 9
ENDMDL
MODEL 9
REMARK VINA RESULT:      -5.8      3.221      4.384
REMARK  9 active torsions:
REMARK  status: ('A' for Active; 'I' for Inactive)
REMARK    1  A    between atoms: C1_2  and  P1_3 
REMARK    2  A    between atoms: P1_3  and  C2_4 
REMARK    3  A    between atoms: C2_4  and  C3_5 
REMARK    4  A    between atoms: C3_5  and  C4_7 
REMARK    5  A    between atoms: C5_8  and  C6_9 
REMARK    6  A    between atoms: C6_9  and  O1_10 
REMARK    7  A    between atoms: O1_10  and  C7_11 
REMARK    8  A    between atoms: C10_14  and  N1_15 
REMARK    9  A    between atoms: N1_15  and  C11_16 
ROOT
HETATM    1  C7  UNL     1      22.181   0.258  52.133  1.00  0.00     0.090 A 
HETATM    2  C8  UNL     1      22.447  -0.624  53.145  1.00  0.00     0.041 A 
HETATM    3  C9  UNL     1      23.649  -0.534  53.808  1.00  0.00     0.032 A 
HETATM    4  C10 UNL     1      24.569   0.447  53.440  1.00  0.00     0.030 A 
HETATM    5  C15 UNL     1      24.320   1.334  52.435  1.00  0.00     0.056 A 
HETATM    6  C16 UNL     1      23.099   1.243  51.762  1.00  0.00     0.069 A 
HETATM    7 CL1  UNL     1      22.806   2.406  50.464  1.00  0.00    -0.081 Cl
ENDROOT
BRANCH   1   8
HETATM    8  O1  UNL     1      21.035   0.295  51.384  1.00  0.00    -0.346 OA
BRANCH   8   9
HETATM    9  C6  UNL     1      19.806   0.882  51.797  1.00  0.00     0.203 C 
BRANCH   9  10
HETATM   10  C5  UNL     1      18.759  -0.150  51.930  1.00  0.00     0.003 C 
HETATM   11  C4  UNL     1      18.644  -0.918  52.999  1.00  0.00     0.049 C 
BRANCH  11  12
HETATM   12  C3  UNL     1      17.718  -2.003  53.393  1.00  0.00     0.162 C 
HETATM   13  F2  UNL     1      17.752  -3.016  54.322  1.00  0.00    -0.197 F 
BRANCH  12  14
HETATM   14  C2  UNL     1      16.596  -2.003  52.683  1.00  0.00    -0.075 C 
BRANCH  14  15
HETATM   15  P1  UNL     1      15.078  -2.322  52.076  1.00  0.00     0.031 P 
BRANCH  15  16
HETATM   16  C1  UNL     1      14.539  -4.114  51.917  1.00  0.00     0.274 C 
HETATM   17  F1  UNL     1      15.026  -4.560  50.686  1.00  0.00    -0.249 F 
ENDBRANCH  15  16
ENDBRANCH  14  15
ENDBRANCH  12  14
ENDBRANCH  11  12
ENDBRANCH   9  10
ENDBRANCH   8   9
ENDBRANCH   1   8
BRANCH   4  18
HETATM   18  N1  UNL     1      25.824   0.540  54.132  1.00  0.00    -0.377 N 
HETATM   19  H9  UNL     1      25.829   0.630  55.167  1.00  0.00     0.160 HD
BRANCH  18  20
HETATM   20  C11 UNL     1      27.104   0.517  53.476  1.00  0.00     0.147 A 
HETATM   21  C12 UNL     1      27.343  -0.719  52.690  1.00  0.00     0.022 A 
HETATM   22  C13 UNL     1      28.348  -1.418  53.196  1.00  0.00     0.114 A 
HETATM   23  N2  UNL     1      28.845  -0.712  54.336  1.00  0.00    -0.275 NA
HETATM   24  C14 UNL     1      28.175   0.377  54.525  1.00  0.00     0.118 A 
ENDBRANCH  18  20
ENDBRANCH   4  18
TORSDOF 9
ENDMDL
