MODEL 1
REMARK VINA RESULT:      -6.8      0.000      0.000
REMARK  8 active torsions:
REMARK  status: ('A' for Active; 'I' for Inactive)
REMARK    1  A    between atoms: C2_2  and  N1_3 
REMARK    2  A    between atoms: C2_2  and  N4_11 
REMARK    3  A    between atoms: N1_3  and  C3_4 
REMARK    4  A    between atoms: C3_4  and  C4_5 
REMARK       I    between atoms: N4_11  and  C8_12 
REMARK    5  A    between atoms: C8_12  and  C9_14 
REMARK    6  A    between atoms: C10_15  and  C11_16 
REMARK    7  A    between atoms: C11_16  and  C12_17 
REMARK    8  A    between atoms: C12_17  and  N5_18 
ROOT
HETATM    1  N4  UNL     1      25.482   4.247  50.556  1.00  0.00    -0.291 N 
HETATM    2  C8  UNL     1      26.568   3.950  49.694  1.00  0.00     0.302 C 
HETATM    3  O1  UNL     1      26.921   2.751  49.560  1.00  0.00    -0.258 OA
HETATM    4  H7  UNL     1      25.236   5.258  50.626  1.00  0.00     0.172 HD
ENDROOT
BRANCH   1   5
HETATM    5  C2  UNL     1      24.850   3.159  51.223  1.00  0.00     0.172 C 
HETATM    6  C1  UNL     1      23.819   2.643  50.541  1.00  0.00     0.080 C 
BRANCH   5   7
HETATM    7  N1  UNL     1      25.216   2.676  52.402  1.00  0.00    -0.398 NA
BRANCH   7   8
HETATM    8  C3  UNL     1      25.468   2.189  53.438  1.00  0.00     0.216 C 
BRANCH   8   9
HETATM    9  C4  UNL     1      26.464   1.139  53.655  1.00  0.00     0.088 A 
HETATM   10  C5  UNL     1      26.393   0.105  52.746  1.00  0.00     0.053 A 
HETATM   11  C6  UNL     1      27.298  -0.932  52.878  1.00  0.00     0.120 A 
HETATM   12  N2  UNL     1      28.195  -0.884  53.877  1.00  0.00    -0.254 NA
HETATM   13  C7  UNL     1      28.261   0.117  54.755  1.00  0.00     0.233 A 
HETATM   14  N3  UNL     1      27.376   1.147  54.640  1.00  0.00    -0.240 NA
ENDBRANCH   8   9
ENDBRANCH   7   8
ENDBRANCH   5   7
ENDBRANCH   1   5
BRANCH   2  15
HETATM   15  C9  UNL     1      27.300   4.947  48.956  1.00  0.00    -0.005 C 
HETATM   16  C10 UNL     1      27.930   5.780  48.350  1.00  0.00    -0.095 C 
BRANCH  16  17
HETATM   17  C11 UNL     1      28.704   6.788  47.585  1.00  0.00     0.124 C 
BRANCH  17  18
HETATM   18  C12 UNL     1      29.921   7.067  48.410  1.00  0.00     0.284 C 
BRANCH  18  19
HETATM   19  N5  UNL     1      30.878   6.003  48.336  1.00  0.00     0.093 N 
HETATM   20  C13 UNL     1      31.529   6.054  47.042  1.00  0.00     0.298 C 
HETATM   21  C14 UNL     1      32.554   4.969  46.963  1.00  0.00     0.198 C 
HETATM   22  O2  UNL     1      33.489   4.976  47.967  1.00  0.00    -0.388 OA
HETATM   23  C15 UNL     1      33.261   5.908  48.947  1.00  0.00     0.198 C 
HETATM   24  C16 UNL     1      31.831   5.987  49.424  1.00  0.00     0.298 C 
ENDBRANCH  18  19
ENDBRANCH  17  18
ENDBRANCH  16  17
ENDBRANCH   2  15
TORSDOF 8
ENDMDL
MODEL 2
REMARK VINA RESULT:      -6.8      1.307      1.712
REMARK  8 active torsions:
REMARK  status: ('A' for Active; 'I' for Inactive)
REMARK    1  A    between atoms: C2_2  and  N1_3 
REMARK    2  A    between atoms: C2_2  and  N4_11 
REMARK    3  A    between atoms: N1_3  and  C3_4 
REMARK    4  A    between atoms: C3_4  and  C4_5 
REMARK       I    between atoms: N4_11  and  C8_12 
REMARK    5  A    between atoms: C8_12  and  C9_14 
REMARK    6  A    between atoms: C10_15  and  C11_16 
REMARK    7  A    between atoms: C11_16  and  C12_17 
REMARK    8  A    between atoms: C12_17  and  N5_18 
ROOT
HETATM    1  N4  UNL     1      25.043   4.034  50.888  1.00  0.00    -0.291 N 
HETATM    2  C8  UNL     1      26.146   4.011  49.997  1.00  0.00     0.302 C 
HETATM    3  O1  UNL     1      26.804   2.947  49.877  1.00  0.00    -0.258 OA
HETATM    4  H7  UNL     1      24.538   4.944  50.944  1.00  0.00     0.172 HD
ENDROOT
BRANCH   1   5
HETATM    5  C2  UNL     1      24.745   2.837  51.599  1.00  0.00     0.172 C 
HETATM    6  C1  UNL     1      23.752   2.124  51.050  1.00  0.00     0.080 C 
BRANCH   5   7
HETATM    7  N1  UNL     1      25.364   2.433  52.700  1.00  0.00    -0.398 NA
BRANCH   7   8
HETATM    8  C3  UNL     1      25.951   2.160  53.677  1.00  0.00     0.216 C 
BRANCH   8   9
HETATM    9  C4  UNL     1      26.909   1.061  53.806  1.00  0.00     0.088 A 
HETATM   10  C5  UNL     1      26.705   0.034  52.910  1.00  0.00     0.053 A 
HETATM   11  C6  UNL     1      27.566  -1.047  52.961  1.00  0.00     0.120 A 
HETATM   12  N2  UNL     1      28.551  -1.045  53.875  1.00  0.00    -0.254 NA
HETATM   13  C7  UNL     1      28.745  -0.050  54.742  1.00  0.00     0.233 A 
HETATM   14  N3  UNL     1      27.906   1.022  54.704  1.00  0.00    -0.240 NA
ENDBRANCH   8   9
ENDBRANCH   7   8
ENDBRANCH   5   7
ENDBRANCH   1   5
BRANCH   2  15
HETATM   15  C9  UNL     1      26.565   5.145  49.213  1.00  0.00    -0.005 C 
HETATM   16  C10 UNL     1      26.915   6.084  48.539  1.00  0.00    -0.095 C 
BRANCH  16  17
HETATM   17  C11 UNL     1      27.323   7.249  47.717  1.00  0.00     0.124 C 
BRANCH  17  18
HETATM   18  C12 UNL     1      28.771   7.032  47.408  1.00  0.00     0.284 C 
BRANCH  18  19
HETATM   19  N5  UNL     1      29.602   7.226  48.559  1.00  0.00     0.093 N 
HETATM   20  C13 UNL     1      30.897   6.628  48.302  1.00  0.00     0.298 C 
HETATM   21  C14 UNL     1      31.786   6.851  49.482  1.00  0.00     0.198 C 
HETATM   22  O2  UNL     1      31.934   8.161  49.861  1.00  0.00    -0.388 OA
HETATM   23  C15 UNL     1      31.147   9.044  49.166  1.00  0.00     0.198 C 
HETATM   24  C16 UNL     1      29.715   8.605  48.982  1.00  0.00     0.298 C 
ENDBRANCH  18  19
ENDBRANCH  17  18
ENDBRANCH  16  17
ENDBRANCH   2  15
TORSDOF 8
ENDMDL
MODEL 3
REMARK VINA RESULT:      -6.6      2.483      3.544
REMARK  8 active torsions:
REMARK  status: ('A' for Active; 'I' for Inactive)
REMARK    1  A    between atoms: C2_2  and  N1_3 
REMARK    2  A    between atoms: C2_2  and  N4_11 
REMARK    3  A    between atoms: N1_3  and  C3_4 
REMARK    4  A    between atoms: C3_4  and  C4_5 
REMARK       I    between atoms: N4_11  and  C8_12 
REMARK    5  A    between atoms: C8_12  and  C9_14 
REMARK    6  A    between atoms: C10_15  and  C11_16 
REMARK    7  A    between atoms: C11_16  and  C12_17 
REMARK    8  A    between atoms: C12_17  and  N5_18 
ROOT
HETATM    1  N4  UNL     1      25.392   4.163  50.662  1.00  0.00    -0.291 N 
HETATM    2  C8  UNL     1      26.465   3.960  49.758  1.00  0.00     0.302 C 
HETATM    3  O1  UNL     1      26.899   2.793  49.588  1.00  0.00    -0.258 OA
HETATM    4  H7  UNL     1      25.077   5.151  50.760  1.00  0.00     0.172 HD
ENDROOT
BRANCH   1   5
HETATM    5  C2  UNL     1      24.865   3.020  51.329  1.00  0.00     0.172 C 
HETATM    6  C1  UNL     1      23.858   2.434  50.667  1.00  0.00     0.080 C 
BRANCH   5   7
HETATM    7  N1  UNL     1      25.300   2.551  52.491  1.00  0.00    -0.398 NA
BRANCH   7   8
HETATM    8  C3  UNL     1      25.741   2.210  53.521  1.00  0.00     0.216 C 
BRANCH   8   9
HETATM    9  C4  UNL     1      26.697   1.118  53.708  1.00  0.00     0.088 A 
HETATM   10  C5  UNL     1      26.540   0.079  52.817  1.00  0.00     0.053 A 
HETATM   11  C6  UNL     1      27.403  -0.997  52.922  1.00  0.00     0.120 A 
HETATM   12  N2  UNL     1      28.343  -0.979  53.881  1.00  0.00    -0.254 NA
HETATM   13  C7  UNL     1      28.492   0.027  54.743  1.00  0.00     0.233 A 
HETATM   14  N3  UNL     1      27.651   1.095  54.653  1.00  0.00    -0.240 NA
ENDBRANCH   8   9
ENDBRANCH   7   8
ENDBRANCH   5   7
ENDBRANCH   1   5
BRANCH   2  15
HETATM   15  C9  UNL     1      27.096   5.020  49.015  1.00  0.00    -0.005 C 
HETATM   16  C10 UNL     1      27.631   5.896  48.377  1.00  0.00    -0.095 C 
BRANCH  16  17
HETATM   17  C11 UNL     1      28.265   6.981  47.590  1.00  0.00     0.124 C 
BRANCH  17  18
HETATM   18  C12 UNL     1      29.052   7.784  48.578  1.00  0.00     0.284 C 
BRANCH  18  19
HETATM   19  N5  UNL     1      28.443   9.051  48.851  1.00  0.00     0.093 N 
HETATM   20  C13 UNL     1      27.824   9.540  47.635  1.00  0.00     0.298 C 
HETATM   21  C14 UNL     1      27.156  10.847  47.912  1.00  0.00     0.198 C 
HETATM   22  O2  UNL     1      26.243  10.829  48.936  1.00  0.00    -0.388 OA
HETATM   23  C15 UNL     1      26.178   9.640  49.617  1.00  0.00     0.198 C 
HETATM   24  C16 UNL     1      27.518   9.037  49.963  1.00  0.00     0.298 C 
ENDBRANCH  18  19
ENDBRANCH  17  18
ENDBRANCH  16  17
ENDBRANCH   2  15
TORSDOF 8
ENDMDL
MODEL 4
REMARK VINA RESULT:      -6.4      2.000      2.615
REMARK  8 active torsions:
REMARK  status: ('A' for Active; 'I' for Inactive)
REMARK    1  A    between atoms: C2_2  and  N1_3 
REMARK    2  A    between atoms: C2_2  and  N4_11 
REMARK    3  A    between atoms: N1_3  and  C3_4 
REMARK    4  A    between atoms: C3_4  and  C4_5 
REMARK       I    between atoms: N4_11  and  C8_12 
REMARK    5  A    between atoms: C8_12  and  C9_14 
REMARK    6  A    between atoms: C10_15  and  C11_16 
REMARK    7  A    between atoms: C11_16  and  C12_17 
REMARK    8  A    between atoms: C12_17  and  N5_18 
ROOT
HETATM    1  N4  UNL     1      25.372   3.671  51.146  1.00  0.00    -0.291 N 
HETATM    2  C8  UNL     1      26.252   3.684  50.035  1.00  0.00     0.302 C 
HETATM    3  O1  UNL     1      26.810   2.610  49.694  1.00  0.00    -0.258 OA
HETATM    4  H7  UNL     1      24.941   4.591  51.380  1.00  0.00     0.172 HD
ENDROOT
BRANCH   1   5
HETATM    5  C2  UNL     1      25.170   2.430  51.815  1.00  0.00     0.172 C 
HETATM    6  C1  UNL     1      23.993   1.857  51.530  1.00  0.00     0.080 C 
BRANCH   5   7
HETATM    7  N1  UNL     1      26.036   1.866  52.645  1.00  0.00    -0.398 NA
BRANCH   7   8
HETATM    8  C3  UNL     1      26.867   1.381  53.315  1.00  0.00     0.216 C 
BRANCH   8   9
HETATM    9  C4  UNL     1      27.358   0.009  53.188  1.00  0.00     0.088 A 
HETATM   10  C5  UNL     1      28.690  -0.140  53.511  1.00  0.00     0.053 A 
HETATM   11  C6  UNL     1      29.238  -1.407  53.418  1.00  0.00     0.120 A 
HETATM   12  N2  UNL     1      28.453  -2.422  53.021  1.00  0.00    -0.254 NA
HETATM   13  C7  UNL     1      27.165  -2.275  52.709  1.00  0.00     0.233 A 
HETATM   14  N3  UNL     1      26.610  -1.034  52.795  1.00  0.00    -0.240 NA
ENDBRANCH   8   9
ENDBRANCH   7   8
ENDBRANCH   5   7
ENDBRANCH   1   5
BRANCH   2  15
HETATM   15  C9  UNL     1      26.552   4.864  49.264  1.00  0.00    -0.005 C 
HETATM   16  C10 UNL     1      26.786   5.862  48.626  1.00  0.00    -0.095 C 
BRANCH  16  17
HETATM   17  C11 UNL     1      27.095   7.092  47.857  1.00  0.00     0.124 C 
BRANCH  17  18
HETATM   18  C12 UNL     1      27.675   8.050  48.850  1.00  0.00     0.284 C 
BRANCH  18  19
HETATM   19  N5  UNL     1      28.972   8.515  48.456  1.00  0.00     0.093 N 
HETATM   20  C13 UNL     1      29.330   9.647  49.287  1.00  0.00     0.298 C 
HETATM   21  C14 UNL     1      30.696  10.123  48.909  1.00  0.00     0.198 C 
HETATM   22  O2  UNL     1      31.679   9.167  48.957  1.00  0.00    -0.388 OA
HETATM   23  C15 UNL     1      31.227   7.901  49.229  1.00  0.00     0.198 C 
HETATM   24  C16 UNL     1      29.994   7.492  48.461  1.00  0.00     0.298 C 
ENDBRANCH  18  19
ENDBRANCH  17  18
ENDBRANCH  16  17
ENDBRANCH   2  15
TORSDOF 8
ENDMDL
MODEL 5
REMARK VINA RESULT:      -6.3      2.992      3.707
REMARK  8 active torsions:
REMARK  status: ('A' for Active; 'I' for Inactive)
REMARK    1  A    between atoms: C2_2  and  N1_3 
REMARK    2  A    between atoms: C2_2  and  N4_11 
REMARK    3  A    between atoms: N1_3  and  C3_4 
REMARK    4  A    between atoms: C3_4  and  C4_5 
REMARK       I    between atoms: N4_11  and  C8_12 
REMARK    5  A    between atoms: C8_12  and  C9_14 
REMARK    6  A    between atoms: C10_15  and  C11_16 
REMARK    7  A    between atoms: C11_16  and  C12_17 
REMARK    8  A    between atoms: C12_17  and  N5_18 
ROOT
HETATM    1  N4  UNL     1      25.088   4.030  51.351  1.00  0.00    -0.291 N 
HETATM    2  C8  UNL     1      25.367   3.909  49.966  1.00  0.00     0.302 C 
HETATM    3  O1  UNL     1      24.534   3.320  49.232  1.00  0.00    -0.258 OA
HETATM    4  H7  UNL     1      25.816   4.528  51.907  1.00  0.00     0.172 HD
ENDROOT
BRANCH   1   5
HETATM    5  C2  UNL     1      23.870   3.472  51.831  1.00  0.00     0.172 C 
HETATM    6  C1  UNL     1      22.983   4.393  52.232  1.00  0.00     0.080 C 
BRANCH   5   7
HETATM    7  N1  UNL     1      23.601   2.175  51.893  1.00  0.00    -0.398 NA
BRANCH   7   8
HETATM    8  C3  UNL     1      23.282   1.047  51.907  1.00  0.00     0.216 C 
BRANCH   8   9
HETATM    9  C4  UNL     1      22.805   0.320  53.083  1.00  0.00     0.088 A 
HETATM   10  C5  UNL     1      21.517   0.639  53.455  1.00  0.00     0.053 A 
HETATM   11  C6  UNL     1      20.986  -0.002  54.559  1.00  0.00     0.120 A 
HETATM   12  N2  UNL     1      21.744  -0.898  55.212  1.00  0.00    -0.254 NA
HETATM   13  C7  UNL     1      22.991  -1.205  54.851  1.00  0.00     0.233 A 
HETATM   14  N3  UNL     1      23.529  -0.582  53.765  1.00  0.00    -0.240 NA
ENDBRANCH   8   9
ENDBRANCH   7   8
ENDBRANCH   5   7
ENDBRANCH   1   5
BRANCH   2  15
HETATM   15  C9  UNL     1      26.558   4.424  49.342  1.00  0.00    -0.005 C 
HETATM   16  C10 UNL     1      27.547   4.860  48.801  1.00  0.00    -0.095 C 
BRANCH  16  17
HETATM   17  C11 UNL     1      28.760   5.414  48.154  1.00  0.00     0.124 C 
BRANCH  17  18
HETATM   18  C12 UNL     1      28.416   6.828  47.803  1.00  0.00     0.284 C 
BRANCH  18  19
HETATM   19  N5  UNL     1      29.132   7.773  48.608  1.00  0.00     0.093 N 
HETATM   20  C13 UNL     1      30.542   7.440  48.569  1.00  0.00     0.298 C 
HETATM   21  C14 UNL     1      31.307   8.436  49.378  1.00  0.00     0.198 C 
HETATM   22  O2  UNL     1      31.118   9.747  49.018  1.00  0.00    -0.388 OA
HETATM   23  C15 UNL     1      30.165   9.937  48.050  1.00  0.00     0.198 C 
HETATM   24  C16 UNL     1      28.891   9.154  48.255  1.00  0.00     0.298 C 
ENDBRANCH  18  19
ENDBRANCH  17  18
ENDBRANCH  16  17
ENDBRANCH   2  15
TORSDOF 8
ENDMDL
MODEL 6
REMARK VINA RESULT:      -6.2      3.665      9.286
REMARK  8 active torsions:
REMARK  status: ('A' for Active; 'I' for Inactive)
REMARK    1  A    between atoms: C2_2  and  N1_3 
REMARK    2  A    between atoms: C2_2  and  N4_11 
REMARK    3  A    between atoms: N1_3  and  C3_4 
REMARK    4  A    between atoms: C3_4  and  C4_5 
REMARK       I    between atoms: N4_11  and  C8_12 
REMARK    5  A    between atoms: C8_12  and  C9_14 
REMARK    6  A    between atoms: C10_15  and  C11_16 
REMARK    7  A    between atoms: C11_16  and  C12_17 
REMARK    8  A    between atoms: C12_17  and  N5_18 
ROOT
HETATM    1  N4  UNL     1      28.472   6.187  48.791  1.00  0.00    -0.291 N 
HETATM    2  C8  UNL     1      27.161   5.649  48.847  1.00  0.00     0.302 C 
HETATM    3  O1  UNL     1      26.212   6.321  48.371  1.00  0.00    -0.258 OA
HETATM    4  H7  UNL     1      29.216   5.583  49.202  1.00  0.00     0.172 HD
ENDROOT
BRANCH   1   5
HETATM    5  C2  UNL     1      28.635   7.468  48.192  1.00  0.00     0.172 C 
HETATM    6  C1  UNL     1      28.922   7.412  46.884  1.00  0.00     0.080 C 
BRANCH   5   7
HETATM    7  N1  UNL     1      28.524   8.625  48.831  1.00  0.00    -0.398 NA
BRANCH   7   8
HETATM    8  C3  UNL     1      28.351   9.612  49.439  1.00  0.00     0.216 C 
BRANCH   8   9
HETATM    9  C4  UNL     1      28.646  10.961  48.956  1.00  0.00     0.088 A 
HETATM   10  C5  UNL     1      29.844  11.066  48.284  1.00  0.00     0.053 A 
HETATM   11  C6  UNL     1      30.202  12.308  47.793  1.00  0.00     0.120 A 
HETATM   12  N2  UNL     1      29.372  13.345  47.994  1.00  0.00    -0.254 NA
HETATM   13  C7  UNL     1      28.214  13.242  48.645  1.00  0.00     0.233 A 
HETATM   14  N3  UNL     1      27.846  12.024  49.135  1.00  0.00    -0.240 NA
ENDBRANCH   8   9
ENDBRANCH   7   8
ENDBRANCH   5   7
ENDBRANCH   1   5
BRANCH   2  15
HETATM   15  C9  UNL     1      26.846   4.367  49.423  1.00  0.00    -0.005 C 
HETATM   16  C10 UNL     1      26.598   3.294  49.919  1.00  0.00    -0.095 C 
BRANCH  16  17
HETATM   17  C11 UNL     1      26.271   1.986  50.537  1.00  0.00     0.124 C 
BRANCH  17  18
HETATM   18  C12 UNL     1      26.428   2.190  52.012  1.00  0.00     0.284 C 
BRANCH  18  19
HETATM   19  N5  UNL     1      26.892   1.007  52.673  1.00  0.00     0.093 N 
HETATM   20  C13 UNL     1      28.188   1.283  53.260  1.00  0.00     0.298 C 
HETATM   21  C14 UNL     1      28.671   0.066  53.982  1.00  0.00     0.198 C 
HETATM   22  O2  UNL     1      27.813  -0.426  54.933  1.00  0.00    -0.388 OA
HETATM   23  C15 UNL     1      26.598   0.210  54.984  1.00  0.00     0.198 C 
HETATM   24  C16 UNL     1      25.962   0.465  53.639  1.00  0.00     0.298 C 
ENDBRANCH  18  19
ENDBRANCH  17  18
ENDBRANCH  16  17
ENDBRANCH   2  15
TORSDOF 8
ENDMDL
MODEL 7
REMARK VINA RESULT:      -6.1      2.373      2.874
REMARK  8 active torsions:
REMARK  status: ('A' for Active; 'I' for Inactive)
REMARK    1  A    between atoms: C2_2  and  N1_3 
REMARK    2  A    between atoms: C2_2  and  N4_11 
REMARK    3  A    between atoms: N1_3  and  C3_4 
REMARK    4  A    between atoms: C3_4  and  C4_5 
REMARK       I    between atoms: N4_11  and  C8_12 
REMARK    5  A    between atoms: C8_12  and  C9_14 
REMARK    6  A    between atoms: C10_15  and  C11_16 
REMARK    7  A    between atoms: C11_16  and  C12_17 
REMARK    8  A    between atoms: C12_17  and  N5_18 
ROOT
HETATM    1  N4  UNL     1      26.015   3.575  49.460  1.00  0.00    -0.291 N 
HETATM    2  C8  UNL     1      26.292   4.965  49.420  1.00  0.00     0.302 C 
HETATM    3  O1  UNL     1      25.508   5.753  50.006  1.00  0.00    -0.258 OA
HETATM    4  H7  UNL     1      26.700   2.972  48.956  1.00  0.00     0.172 HD
ENDROOT
BRANCH   1   5
HETATM    5  C2  UNL     1      24.855   3.152  50.170  1.00  0.00     0.172 C 
HETATM    6  C1  UNL     1      23.772   3.024  49.392  1.00  0.00     0.080 C 
BRANCH   5   7
HETATM    7  N1  UNL     1      24.810   2.902  51.471  1.00  0.00    -0.398 NA
BRANCH   7   8
HETATM    8  C3  UNL     1      24.722   2.761  52.631  1.00  0.00     0.216 C 
BRANCH   8   9
HETATM    9  C4  UNL     1      25.251   1.622  53.384  1.00  0.00     0.088 A 
HETATM   10  C5  UNL     1      24.522   0.463  53.228  1.00  0.00     0.053 A 
HETATM   11  C6  UNL     1      24.951  -0.664  53.905  1.00  0.00     0.120 A 
HETATM   12  N2  UNL     1      26.048  -0.575  54.676  1.00  0.00    -0.254 NA
HETATM   13  C7  UNL     1      26.751   0.548  54.825  1.00  0.00     0.233 A 
HETATM   14  N3  UNL     1      26.341   1.667  54.165  1.00  0.00    -0.240 NA
ENDBRANCH   8   9
ENDBRANCH   7   8
ENDBRANCH   5   7
ENDBRANCH   1   5
BRANCH   2  15
HETATM   15  C9  UNL     1      27.427   5.535  48.741  1.00  0.00    -0.005 C 
HETATM   16  C10 UNL     1      28.371   6.007  48.154  1.00  0.00    -0.095 C 
BRANCH  16  17
HETATM   17  C11 UNL     1      29.522   6.610  47.440  1.00  0.00     0.124 C 
BRANCH  17  18
HETATM   18  C12 UNL     1      30.477   7.037  48.510  1.00  0.00     0.284 C 
BRANCH  18  19
HETATM   19  N5  UNL     1      30.734   8.446  48.472  1.00  0.00     0.093 N 
HETATM   20  C13 UNL     1      30.655   8.895  47.096  1.00  0.00     0.298 C 
HETATM   21  C14 UNL     1      30.889  10.370  47.044  1.00  0.00     0.198 C 
HETATM   22  O2  UNL     1      30.057  11.120  47.838  1.00  0.00    -0.388 OA
HETATM   23  C15 UNL     1      29.224  10.383  48.641  1.00  0.00     0.198 C 
HETATM   24  C16 UNL     1      29.887   9.226  49.347  1.00  0.00     0.298 C 
ENDBRANCH  18  19
ENDBRANCH  17  18
ENDBRANCH  16  17
ENDBRANCH   2  15
TORSDOF 8
ENDMDL
MODEL 8
REMARK VINA RESULT:      -6.0      2.498      8.028
REMARK  8 active torsions:
REMARK  status: ('A' for Active; 'I' for Inactive)
REMARK    1  A    between atoms: C2_2  and  N1_3 
REMARK    2  A    between atoms: C2_2  and  N4_11 
REMARK    3  A    between atoms: N1_3  and  C3_4 
REMARK    4  A    between atoms: C3_4  and  C4_5 
REMARK       I    between atoms: N4_11  and  C8_12 
REMARK    5  A    between atoms: C8_12  and  C9_14 
REMARK    6  A    between atoms: C10_15  and  C11_16 
REMARK    7  A    between atoms: C11_16  and  C12_17 
REMARK    8  A    between atoms: C12_17  and  N5_18 
ROOT
HETATM    1  N4  UNL     1      27.697   8.093  49.627  1.00  0.00    -0.291 N 
HETATM    2  C8  UNL     1      27.502   7.042  48.696  1.00  0.00     0.302 C 
HETATM    3  O1  UNL     1      28.050   7.125  47.568  1.00  0.00    -0.258 OA
HETATM    4  H7  UNL     1      27.217   7.967  50.544  1.00  0.00     0.172 HD
ENDROOT
BRANCH   1   5
HETATM    5  C2  UNL     1      28.510   9.190  49.224  1.00  0.00     0.172 C 
HETATM    6  C1  UNL     1      27.806  10.248  48.799  1.00  0.00     0.080 C 
BRANCH   5   7
HETATM    7  N1  UNL     1      29.836   9.203  49.251  1.00  0.00    -0.398 NA
BRANCH   7   8
HETATM    8  C3  UNL     1      31.005   9.121  49.277  1.00  0.00     0.216 C 
BRANCH   8   9
HETATM    9  C4  UNL     1      31.769   7.891  49.069  1.00  0.00     0.088 A 
HETATM   10  C5  UNL     1      33.070   8.101  48.668  1.00  0.00     0.053 A 
HETATM   11  C6  UNL     1      33.865   6.991  48.448  1.00  0.00     0.120 A 
HETATM   12  N2  UNL     1      33.335   5.771  48.633  1.00  0.00    -0.254 NA
HETATM   13  C7  UNL     1      32.075   5.570  49.020  1.00  0.00     0.233 A 
HETATM   14  N3  UNL     1      31.279   6.653  49.241  1.00  0.00    -0.240 NA
ENDBRANCH   8   9
ENDBRANCH   7   8
ENDBRANCH   5   7
ENDBRANCH   1   5
BRANCH   2  15
HETATM   15  C9  UNL     1      26.705   5.872  48.965  1.00  0.00    -0.005 C 
HETATM   16  C10 UNL     1      26.039   4.886  49.171  1.00  0.00    -0.095 C 
BRANCH  16  17
HETATM   17  C11 UNL     1      25.239   3.666  49.438  1.00  0.00     0.124 C 
BRANCH  17  18
HETATM   18  C12 UNL     1      24.899   3.722  50.894  1.00  0.00     0.284 C 
BRANCH  18  19
HETATM   19  N5  UNL     1      25.111   2.463  51.545  1.00  0.00     0.093 N 
HETATM   20  C13 UNL     1      26.463   2.020  51.269  1.00  0.00     0.298 C 
HETATM   21  C14 UNL     1      26.710   0.723  51.968  1.00  0.00     0.198 C 
HETATM   22  O2  UNL     1      26.481   0.738  53.321  1.00  0.00    -0.388 OA
HETATM   23  C15 UNL     1      25.949   1.911  53.793  1.00  0.00     0.198 C 
HETATM   24  C16 UNL     1      24.821   2.472  52.962  1.00  0.00     0.298 C 
ENDBRANCH  18  19
ENDBRANCH  17  18
ENDBRANCH  16  17
ENDBRANCH   2  15
TORSDOF 8
ENDMDL
MODEL 9
REMARK VINA RESULT:      -6.0      2.120      2.912
REMARK  8 active torsions:
REMARK  status: ('A' for Active; 'I' for Inactive)
REMARK    1  A    between atoms: C2_2  and  N1_3 
REMARK    2  A    between atoms: C2_2  and  N4_11 
REMARK    3  A    between atoms: N1_3  and  C3_4 
REMARK    4  A    between atoms: C3_4  and  C4_5 
REMARK       I    between atoms: N4_11  and  C8_12 
REMARK    5  A    between atoms: C8_12  and  C9_14 
REMARK    6  A    between atoms: C10_15  and  C11_16 
REMARK    7  A    between atoms: C11_16  and  C12_17 
REMARK    8  A    between atoms: C12_17  and  N5_18 
ROOT
HETATM    1  N4  UNL     1      25.776   6.673  50.466  1.00  0.00    -0.291 N 
HETATM    2  C8  UNL     1      26.106   6.014  49.255  1.00  0.00     0.302 C 
HETATM    3  O1  UNL     1      25.198   5.409  48.630  1.00  0.00    -0.258 OA
HETATM    4  H7  UNL     1      26.570   7.156  50.938  1.00  0.00     0.172 HD
ENDROOT
BRANCH   1   5
HETATM    5  C2  UNL     1      24.423   6.609  50.905  1.00  0.00     0.172 C 
HETATM    6  C1  UNL     1      23.757   7.762  50.751  1.00  0.00     0.080 C 
BRANCH   5   7
HETATM    7  N1  UNL     1      23.841   5.535  51.422  1.00  0.00    -0.398 NA
BRANCH   7   8
HETATM    8  C3  UNL     1      23.413   4.554  51.899  1.00  0.00     0.216 C 
BRANCH   8   9
HETATM    9  C4  UNL     1      24.128   3.281  51.994  1.00  0.00     0.088 A 
HETATM   10  C5  UNL     1      23.476   2.329  52.749  1.00  0.00     0.053 A 
HETATM   11  C6  UNL     1      24.083   1.094  52.892  1.00  0.00     0.120 A 
HETATM   12  N2  UNL     1      25.267   0.884  52.295  1.00  0.00    -0.254 NA
HETATM   13  C7  UNL     1      25.895   1.807  51.566  1.00  0.00     0.233 A 
HETATM   14  N3  UNL     1      25.312   3.029  51.415  1.00  0.00    -0.240 NA
ENDBRANCH   8   9
ENDBRANCH   7   8
ENDBRANCH   5   7
ENDBRANCH   1   5
BRANCH   2  15
HETATM   15  C9  UNL     1      27.431   5.994  48.690  1.00  0.00    -0.005 C 
HETATM   16  C10 UNL     1      28.534   5.979  48.198  1.00  0.00    -0.095 C 
BRANCH  16  17
HETATM   17  C11 UNL     1      29.893   5.983  47.606  1.00  0.00     0.124 C 
BRANCH  17  18
HETATM   18  C12 UNL     1      30.835   6.073  48.766  1.00  0.00     0.284 C 
BRANCH  18  19
HETATM   19  N5  UNL     1      31.966   5.207  48.611  1.00  0.00     0.093 N 
HETATM   20  C13 UNL     1      31.790   4.427  47.403  1.00  0.00     0.298 C 
HETATM   21  C14 UNL     1      32.978   3.541  47.210  1.00  0.00     0.198 C 
HETATM   22  O2  UNL     1      34.188   4.187  47.187  1.00  0.00    -0.388 OA
HETATM   23  C15 UNL     1      34.119   5.529  47.463  1.00  0.00     0.198 C 
HETATM   24  C16 UNL     1      33.241   5.889  48.636  1.00  0.00     0.298 C 
ENDBRANCH  18  19
ENDBRANCH  17  18
ENDBRANCH  16  17
ENDBRANCH   2  15
TORSDOF 8
ENDMDL
