MODEL 1
REMARK VINA RESULT:      -7.8      0.000      0.000
REMARK  3 active torsions:
REMARK  status: ('A' for Active; 'I' for Inactive)
REMARK    1  A    between atoms: N1_1  and  C1_2 
REMARK    2  A    between atoms: N2_3  and  C2_4 
REMARK    3  A    between atoms: C8_10  and  N3_11 
ROOT
HETATM    1  C2  UNL     1      21.692   1.043  52.518  1.00  0.00     0.053 A 
HETATM    2  C3  UNL     1      21.313   0.894  51.175  1.00  0.00     0.035 A 
HETATM    3  C4  UNL     1      22.208   1.374  50.251  1.00  0.00    -0.054 A 
HETATM    4  C5  UNL     1      23.434   1.976  50.452  1.00  0.00     0.016 A 
HETATM    5  C6  UNL     1      23.194   1.819  51.784  1.00  0.00    -0.031 A 
HETATM    6  C7  UNL     1      22.855   1.613  53.063  1.00  0.00     0.077 A 
HETATM    7  C8  UNL     1      24.196   2.264  53.325  1.00  0.00     0.143 C 
HETATM    8  C14 UNL     1      23.822   3.111  52.222  1.00  0.00    -0.028 C 
HETATM    9  C15 UNL     1      23.682   4.355  51.603  1.00  0.00     0.009 C 
HETATM   10  C16 UNL     1      22.767   3.910  50.573  1.00  0.00     0.195 C 
HETATM   11  O1  UNL     1      23.004   3.928  49.264  1.00  0.00    -0.387 OA
HETATM   12  C17 UNL     1      22.042   3.156  48.543  1.00  0.00     0.172 C 
HETATM   13  C18 UNL     1      22.192   1.641  48.825  1.00  0.00     0.065 C 
ENDROOT
BRANCH   7  14
HETATM   14  N3  UNL     1      25.295   1.393  53.106  1.00  0.00    -0.355 N 
HETATM   15  C9  UNL     1      26.511   2.163  53.271  1.00  0.00     0.090 A 
HETATM   16  C10 UNL     1      27.725   1.613  53.113  1.00  0.00     0.033 A 
HETATM   17  C11 UNL     1      27.972   0.196  52.763  1.00  0.00     0.240 A 
HETATM   18  F1  UNL     1      28.738  -0.451  53.710  1.00  0.00    -0.239 F 
HETATM   19  C12 UNL     1      26.680  -0.501  52.616  1.00  0.00     0.065 A 
HETATM   20 CL1  UNL     1      26.646  -2.210  52.199  1.00  0.00    -0.084 Cl
HETATM   21  C13 UNL     1      25.483   0.027  52.768  1.00  0.00     0.114 A 
ENDBRANCH   7  14
BRANCH   1  22
HETATM   22  N2  UNL     1      20.821   0.569  53.572  1.00  0.00    -0.248 NA
HETATM   23  C1  UNL     1      21.016  -0.596  54.079  1.00  0.00     0.200 C 
BRANCH  23  24
HETATM   24  N1  UNL     1      21.953  -1.652  53.863  1.00  0.00    -0.394 N 
HETATM   25  H1  UNL     1      21.594  -2.508  54.356  1.00  0.00     0.156 HD
HETATM   26  H2  UNL     1      22.757  -1.321  53.272  1.00  0.00     0.156 HD
ENDBRANCH  23  24
ENDBRANCH   1  22
TORSDOF 3
ENDMDL
MODEL 2
REMARK VINA RESULT:      -7.7      2.162      3.127
REMARK  3 active torsions:
REMARK  status: ('A' for Active; 'I' for Inactive)
REMARK    1  A    between atoms: N1_1  and  C1_2 
REMARK    2  A    between atoms: N2_3  and  C2_4 
REMARK    3  A    between atoms: C8_10  and  N3_11 
ROOT
HETATM    1  C2  UNL     1      22.847   2.073  49.949  1.00  0.00     0.053 A 
HETATM    2  C3  UNL     1      23.408   2.954  49.011  1.00  0.00     0.035 A 
HETATM    3  C4  UNL     1      24.297   3.869  49.518  1.00  0.00    -0.054 A 
HETATM    4  C5  UNL     1      24.726   4.043  50.819  1.00  0.00     0.016 A 
HETATM    5  C6  UNL     1      23.898   3.009  51.138  1.00  0.00    -0.031 A 
HETATM    6  C7  UNL     1      23.057   1.986  51.335  1.00  0.00     0.077 A 
HETATM    7  C8  UNL     1      23.507   2.142  52.773  1.00  0.00     0.143 C 
HETATM    8  C14 UNL     1      23.459   3.549  52.468  1.00  0.00    -0.028 C 
HETATM    9  C15 UNL     1      23.109   4.871  52.755  1.00  0.00     0.009 C 
HETATM   10  C16 UNL     1      23.277   5.368  51.405  1.00  0.00     0.195 C 
HETATM   11  O1  UNL     1      24.156   6.288  51.020  1.00  0.00    -0.387 OA
HETATM   12  C17 UNL     1      24.276   6.341  49.597  1.00  0.00     0.172 C 
HETATM   13  C18 UNL     1      24.950   5.068  49.030  1.00  0.00     0.065 C 
ENDROOT
BRANCH   7  14
HETATM   14  N3  UNL     1      24.792   1.595  53.021  1.00  0.00    -0.355 N 
HETATM   15  C9  UNL     1      24.662   0.153  53.053  1.00  0.00     0.090 A 
HETATM   16  C10 UNL     1      25.714  -0.649  53.283  1.00  0.00     0.033 A 
HETATM   17  C11 UNL     1      27.097  -0.181  53.522  1.00  0.00     0.240 A 
HETATM   18  F1  UNL     1      27.989  -0.691  52.601  1.00  0.00    -0.239 F 
HETATM   19  C12 UNL     1      27.128   1.293  53.470  1.00  0.00     0.065 A 
HETATM   20 CL1  UNL     1      28.644   2.149  53.720  1.00  0.00    -0.084 Cl
HETATM   21  C13 UNL     1      26.104   2.090  53.247  1.00  0.00     0.114 A 
ENDBRANCH   7  14
BRANCH   1  22
HETATM   22  N2  UNL     1      21.898   1.068  49.519  1.00  0.00    -0.248 NA
HETATM   23  C1  UNL     1      20.652   1.371  49.426  1.00  0.00     0.200 C 
BRANCH  23  24
HETATM   24  N1  UNL     1      19.876   2.549  49.654  1.00  0.00    -0.394 N 
HETATM   25  H1  UNL     1      20.022   3.194  48.836  1.00  0.00     0.156 HD
HETATM   26  H2  UNL     1      19.357   2.483  50.564  1.00  0.00     0.156 HD
ENDBRANCH  23  24
ENDBRANCH   1  22
TORSDOF 3
ENDMDL
MODEL 3
REMARK VINA RESULT:      -7.1      8.760     10.245
REMARK  3 active torsions:
REMARK  status: ('A' for Active; 'I' for Inactive)
REMARK    1  A    between atoms: N1_1  and  C1_2 
REMARK    2  A    between atoms: N2_3  and  C2_4 
REMARK    3  A    between atoms: C8_10  and  N3_11 
ROOT
HETATM    1  C2  UNL     1      28.994   6.176  47.908  1.00  0.00     0.053 A 
HETATM    2  C3  UNL     1      28.638   7.300  47.146  1.00  0.00     0.035 A 
HETATM    3  C4  UNL     1      29.658   8.176  46.871  1.00  0.00    -0.054 A 
HETATM    4  C5  UNL     1      30.991   8.105  47.227  1.00  0.00     0.016 A 
HETATM    5  C6  UNL     1      30.670   6.940  47.856  1.00  0.00    -0.031 A 
HETATM    6  C7  UNL     1      30.244   5.810  48.435  1.00  0.00     0.077 A 
HETATM    7  C8  UNL     1      31.697   5.695  48.842  1.00  0.00     0.143 C 
HETATM    8  C14 UNL     1      31.594   7.120  49.026  1.00  0.00    -0.028 C 
HETATM    9  C15 UNL     1      31.803   8.297  49.748  1.00  0.00     0.009 C 
HETATM   10  C16 UNL     1      30.841   9.095  49.016  1.00  0.00     0.195 C 
HETATM   11  O1  UNL     1      31.122  10.171  48.286  1.00  0.00    -0.387 OA
HETATM   12  C17 UNL     1      30.019  10.550  47.460  1.00  0.00     0.172 C 
HETATM   13  C18 UNL     1      29.764   9.519  46.334  1.00  0.00     0.065 C 
ENDROOT
BRANCH   7  14
HETATM   14  N3  UNL     1      32.542   5.255  47.789  1.00  0.00    -0.355 N 
HETATM   15  C9  UNL     1      33.810   4.866  48.370  1.00  0.00     0.090 A 
HETATM   16  C10 UNL     1      34.826   4.415  47.618  1.00  0.00     0.033 A 
HETATM   17  C11 UNL     1      34.783   4.260  46.146  1.00  0.00     0.240 A 
HETATM   18  F1  UNL     1      35.033   2.962  45.750  1.00  0.00    -0.239 F 
HETATM   19  C12 UNL     1      33.459   4.680  45.650  1.00  0.00     0.065 A 
HETATM   20 CL1  UNL     1      33.103   4.610  43.929  1.00  0.00    -0.084 Cl
HETATM   21  C13 UNL     1      32.456   5.124  46.378  1.00  0.00     0.114 A 
ENDBRANCH   7  14
BRANCH   1  22
HETATM   22  N2  UNL     1      27.992   5.191  48.254  1.00  0.00    -0.248 NA
HETATM   23  C1  UNL     1      27.022   5.519  49.031  1.00  0.00     0.200 C 
BRANCH  23  24
HETATM   24  N1  UNL     1      26.627   6.711  49.710  1.00  0.00    -0.394 N 
HETATM   25  H1  UNL     1      27.495   7.267  49.916  1.00  0.00     0.156 HD
HETATM   26  H2  UNL     1      25.584   6.742  49.833  1.00  0.00     0.156 HD
ENDBRANCH  23  24
ENDBRANCH   1  22
TORSDOF 3
ENDMDL
MODEL 4
REMARK VINA RESULT:      -7.1      1.646      2.209
REMARK  3 active torsions:
REMARK  status: ('A' for Active; 'I' for Inactive)
REMARK    1  A    between atoms: N1_1  and  C1_2 
REMARK    2  A    between atoms: N2_3  and  C2_4 
REMARK    3  A    between atoms: C8_10  and  N3_11 
ROOT
HETATM    1  C2  UNL     1      21.171   0.748  51.135  1.00  0.00     0.053 A 
HETATM    2  C3  UNL     1      21.294   0.951  49.752  1.00  0.00     0.035 A 
HETATM    3  C4  UNL     1      22.290   1.813  49.366  1.00  0.00    -0.054 A 
HETATM    4  C5  UNL     1      23.198   2.504  50.144  1.00  0.00     0.016 A 
HETATM    5  C6  UNL     1      22.589   1.924  51.215  1.00  0.00    -0.031 A 
HETATM    6  C7  UNL     1      21.918   1.298  52.191  1.00  0.00     0.077 A 
HETATM    7  C8  UNL     1      22.899   2.034  53.078  1.00  0.00     0.143 C 
HETATM    8  C14 UNL     1      22.703   3.105  52.134  1.00  0.00    -0.028 C 
HETATM    9  C15 UNL     1      22.468   4.442  51.805  1.00  0.00     0.009 C 
HETATM   10  C16 UNL     1      22.073   4.192  50.434  1.00  0.00     0.195 C 
HETATM   11  O1  UNL     1      22.706   4.633  49.351  1.00  0.00    -0.387 OA
HETATM   12  C17 UNL     1      22.248   3.976  48.168  1.00  0.00     0.172 C 
HETATM   13  C18 UNL     1      22.669   2.487  48.139  1.00  0.00     0.065 C 
ENDROOT
BRANCH   7  14
HETATM   14  N3  UNL     1      24.189   1.443  53.100  1.00  0.00    -0.355 N 
HETATM   15  C9  UNL     1      24.030   0.043  53.437  1.00  0.00     0.090 A 
HETATM   16  C10 UNL     1      25.082  -0.783  53.548  1.00  0.00     0.033 A 
HETATM   17  C11 UNL     1      26.493  -0.387  53.344  1.00  0.00     0.240 A 
HETATM   18  F1  UNL     1      27.103  -1.119  52.346  1.00  0.00    -0.239 F 
HETATM   19  C12 UNL     1      26.552   1.048  53.007  1.00  0.00     0.065 A 
HETATM   20 CL1  UNL     1      28.105   1.817  52.708  1.00  0.00    -0.084 Cl
HETATM   21  C13 UNL     1      25.529   1.869  52.897  1.00  0.00     0.114 A 
ENDBRANCH   7  14
BRANCH   1  22
HETATM   22  N2  UNL     1      20.153  -0.142  51.648  1.00  0.00    -0.248 NA
HETATM   23  C1  UNL     1      18.952   0.291  51.803  1.00  0.00     0.200 C 
BRANCH  23  24
HETATM   24  N1  UNL     1      18.288   1.536  51.582  1.00  0.00    -0.394 N 
HETATM   25  H1  UNL     1      18.754   2.261  52.184  1.00  0.00     0.156 HD
HETATM   26  H2  UNL     1      17.511   1.425  50.884  1.00  0.00     0.156 HD
ENDBRANCH  23  24
ENDBRANCH   1  22
TORSDOF 3
ENDMDL
MODEL 5
REMARK VINA RESULT:      -7.0      3.487      5.021
REMARK  3 active torsions:
REMARK  status: ('A' for Active; 'I' for Inactive)
REMARK    1  A    between atoms: N1_1  and  C1_2 
REMARK    2  A    between atoms: N2_3  and  C2_4 
REMARK    3  A    between atoms: C8_10  and  N3_11 
ROOT
HETATM    1  C2  UNL     1      23.701   2.338  52.129  1.00  0.00     0.053 A 
HETATM    2  C3  UNL     1      23.313   1.451  51.114  1.00  0.00     0.035 A 
HETATM    3  C4  UNL     1      22.716   2.027  50.020  1.00  0.00    -0.054 A 
HETATM    4  C5  UNL     1      22.450   3.359  49.770  1.00  0.00     0.016 A 
HETATM    5  C6  UNL     1      23.004   3.608  50.990  1.00  0.00    -0.031 A 
HETATM    6  C7  UNL     1      23.569   3.735  52.198  1.00  0.00     0.077 A 
HETATM    7  C8  UNL     1      23.298   5.206  51.959  1.00  0.00     0.143 C 
HETATM    8  C14 UNL     1      22.073   4.722  51.374  1.00  0.00    -0.028 C 
HETATM    9  C15 UNL     1      20.690   4.751  51.189  1.00  0.00     0.009 C 
HETATM   10  C16 UNL     1      20.586   3.423  50.620  1.00  0.00     0.195 C 
HETATM   11  O1  UNL     1      20.167   3.137  49.391  1.00  0.00    -0.387 OA
HETATM   12  C17 UNL     1      20.461   1.785  49.034  1.00  0.00     0.172 C 
HETATM   13  C18 UNL     1      21.982   1.554  48.863  1.00  0.00     0.065 C 
ENDROOT
BRANCH   7  14
HETATM   14  N3  UNL     1      24.225   5.810  51.070  1.00  0.00    -0.355 N 
HETATM   15  C9  UNL     1      23.943   7.230  51.032  1.00  0.00     0.090 A 
HETATM   16  C10 UNL     1      24.651   8.073  50.264  1.00  0.00     0.033 A 
HETATM   17  C11 UNL     1      25.774   7.675  49.386  1.00  0.00     0.240 A 
HETATM   18  F1  UNL     1      26.945   8.332  49.705  1.00  0.00    -0.239 F 
HETATM   19  C12 UNL     1      25.982   6.219  49.491  1.00  0.00     0.065 A 
HETATM   20 CL1  UNL     1      27.256   5.444  48.558  1.00  0.00    -0.084 Cl
HETATM   21  C13 UNL     1      25.295   5.382  50.240  1.00  0.00     0.114 A 
ENDBRANCH   7  14
BRANCH   1  22
HETATM   22  N2  UNL     1      24.340   1.833  53.326  1.00  0.00    -0.248 NA
HETATM   23  C1  UNL     1      25.612   1.959  53.465  1.00  0.00     0.200 C 
BRANCH  23  24
HETATM   24  N1  UNL     1      26.667   2.517  52.681  1.00  0.00    -0.394 N 
HETATM   25  H1  UNL     1      27.574   2.111  53.025  1.00  0.00     0.156 HD
HETATM   26  H2  UNL     1      26.286   3.183  51.964  1.00  0.00     0.156 HD
ENDBRANCH  23  24
ENDBRANCH   1  22
TORSDOF 3
ENDMDL
MODEL 6
REMARK VINA RESULT:      -6.9      2.651      4.057
REMARK  3 active torsions:
REMARK  status: ('A' for Active; 'I' for Inactive)
REMARK    1  A    between atoms: N1_1  and  C1_2 
REMARK    2  A    between atoms: N2_3  and  C2_4 
REMARK    3  A    between atoms: C8_10  and  N3_11 
ROOT
HETATM    1  C2  UNL     1      22.946   4.499  51.836  1.00  0.00     0.053 A 
HETATM    2  C3  UNL     1      21.581   4.611  52.143  1.00  0.00     0.035 A 
HETATM    3  C4  UNL     1      20.844   3.462  51.991  1.00  0.00    -0.054 A 
HETATM    4  C5  UNL     1      21.255   2.207  51.587  1.00  0.00     0.016 A 
HETATM    5  C6  UNL     1      22.500   2.749  51.470  1.00  0.00    -0.031 A 
HETATM    6  C7  UNL     1      23.676   3.384  51.392  1.00  0.00     0.077 A 
HETATM    7  C8  UNL     1      24.167   2.022  50.950  1.00  0.00     0.143 C 
HETATM    8  C14 UNL     1      22.908   1.971  50.252  1.00  0.00    -0.028 C 
HETATM    9  C15 UNL     1      22.122   1.715  49.126  1.00  0.00     0.009 C 
HETATM   10  C16 UNL     1      20.967   2.466  49.574  1.00  0.00     0.195 C 
HETATM   11  O1  UNL     1      19.762   1.962  49.822  1.00  0.00    -0.387 OA
HETATM   12  C17 UNL     1      18.935   2.891  50.526  1.00  0.00     0.172 C 
HETATM   13  C18 UNL     1      19.434   3.123  51.972  1.00  0.00     0.065 C 
ENDROOT
BRANCH   7  14
HETATM   14  N3  UNL     1      24.329   1.108  52.024  1.00  0.00    -0.355 N 
HETATM   15  C9  UNL     1      25.743   0.827  52.158  1.00  0.00     0.090 A 
HETATM   16  C10 UNL     1      26.212  -0.020  53.088  1.00  0.00     0.033 A 
HETATM   17  C11 UNL     1      25.374  -0.751  54.064  1.00  0.00     0.240 A 
HETATM   18  F1  UNL     1      25.724  -0.468  55.368  1.00  0.00    -0.239 F 
HETATM   19  C12 UNL     1      23.958  -0.402  53.848  1.00  0.00     0.065 A 
HETATM   20 CL1  UNL     1      22.712  -1.119  54.863  1.00  0.00    -0.084 Cl
HETATM   21  C13 UNL     1      23.485   0.426  52.940  1.00  0.00     0.114 A 
ENDBRANCH   7  14
BRANCH   1  22
HETATM   22  N2  UNL     1      23.812   5.651  51.963  1.00  0.00    -0.248 NA
HETATM   23  C1  UNL     1      23.934   6.465  50.975  1.00  0.00     0.200 C 
BRANCH  23  24
HETATM   24  N1  UNL     1      23.391   6.546  49.656  1.00  0.00    -0.394 N 
HETATM   25  H1  UNL     1      22.897   7.469  49.568  1.00  0.00     0.156 HD
HETATM   26  H2  UNL     1      23.616   5.680  49.107  1.00  0.00     0.156 HD
ENDBRANCH  23  24
ENDBRANCH   1  22
TORSDOF 3
ENDMDL
MODEL 7
REMARK VINA RESULT:      -6.8      4.021      5.995
REMARK  3 active torsions:
REMARK  status: ('A' for Active; 'I' for Inactive)
REMARK    1  A    between atoms: N1_1  and  C1_2 
REMARK    2  A    between atoms: N2_3  and  C2_4 
REMARK    3  A    between atoms: C8_10  and  N3_11 
ROOT
HETATM    1  C2  UNL     1      22.952   1.514  51.183  1.00  0.00     0.053 A 
HETATM    2  C3  UNL     1      23.551   1.407  52.447  1.00  0.00     0.035 A 
HETATM    3  C4  UNL     1      24.579   2.285  52.692  1.00  0.00    -0.054 A 
HETATM    4  C5  UNL     1      25.103   3.266  51.873  1.00  0.00     0.016 A 
HETATM    5  C6  UNL     1      24.186   2.863  50.950  1.00  0.00    -0.031 A 
HETATM    6  C7  UNL     1      23.247   2.387  50.122  1.00  0.00     0.077 A 
HETATM    7  C8  UNL     1      23.791   3.456  49.197  1.00  0.00     0.143 C 
HETATM    8  C14 UNL     1      25.062   3.058  49.746  1.00  0.00    -0.028 C 
HETATM    9  C15 UNL     1      26.408   2.704  49.631  1.00  0.00     0.009 C 
HETATM   10  C16 UNL     1      26.522   2.113  50.948  1.00  0.00     0.195 C 
HETATM   11  O1  UNL     1      27.312   2.544  51.926  1.00  0.00    -0.387 OA
HETATM   12  C17 UNL     1      26.979   1.942  53.179  1.00  0.00     0.172 C 
HETATM   13  C18 UNL     1      25.607   2.430  53.703  1.00  0.00     0.065 C 
ENDROOT
BRANCH   7  14
HETATM   14  N3  UNL     1      23.344   4.762  49.525  1.00  0.00    -0.355 N 
HETATM   15  C9  UNL     1      21.898   4.772  49.437  1.00  0.00     0.090 A 
HETATM   16  C10 UNL     1      21.181   5.880  49.680  1.00  0.00     0.033 A 
HETATM   17  C11 UNL     1      21.754   7.191  50.060  1.00  0.00     0.240 A 
HETATM   18  F1  UNL     1      21.274   7.639  51.273  1.00  0.00    -0.239 F 
HETATM   19  C12 UNL     1      23.223   7.080  50.123  1.00  0.00     0.065 A 
HETATM   20 CL1  UNL     1      24.192   8.485  50.550  1.00  0.00    -0.084 Cl
HETATM   21  C13 UNL     1      23.938   6.001  49.885  1.00  0.00     0.114 A 
ENDBRANCH   7  14
BRANCH   1  22
HETATM   22  N2  UNL     1      21.859   0.637  50.824  1.00  0.00    -0.248 NA
HETATM   23  C1  UNL     1      20.655   0.962  51.140  1.00  0.00     0.200 C 
BRANCH  23  24
HETATM   24  N1  UNL     1      20.048   2.064  51.815  1.00  0.00    -0.394 N 
HETATM   25  H1  UNL     1      19.449   1.678  52.588  1.00  0.00     0.156 HD
HETATM   26  H2  UNL     1      20.344   2.974  51.384  1.00  0.00     0.156 HD
ENDBRANCH  23  24
ENDBRANCH   1  22
TORSDOF 3
ENDMDL
MODEL 8
REMARK VINA RESULT:      -6.8      4.389      6.048
REMARK  3 active torsions:
REMARK  status: ('A' for Active; 'I' for Inactive)
REMARK    1  A    between atoms: N1_1  and  C1_2 
REMARK    2  A    between atoms: N2_3  and  C2_4 
REMARK    3  A    between atoms: C8_10  and  N3_11 
ROOT
HETATM    1  C2  UNL     1      22.798   2.004  49.362  1.00  0.00     0.053 A 
HETATM    2  C3  UNL     1      22.352   1.416  50.556  1.00  0.00     0.035 A 
HETATM    3  C4  UNL     1      22.985   1.840  51.698  1.00  0.00    -0.054 A 
HETATM    4  C5  UNL     1      23.994   2.772  51.843  1.00  0.00     0.016 A 
HETATM    5  C6  UNL     1      23.941   2.910  50.489  1.00  0.00    -0.031 A 
HETATM    6  C7  UNL     1      23.802   2.966  49.158  1.00  0.00     0.077 A 
HETATM    7  C8  UNL     1      24.904   3.997  49.276  1.00  0.00     0.143 C 
HETATM    8  C14 UNL     1      25.416   3.101  50.281  1.00  0.00    -0.028 C 
HETATM    9  C15 UNL     1      26.442   2.380  50.895  1.00  0.00     0.009 C 
HETATM   10  C16 UNL     1      25.577   1.486  51.637  1.00  0.00     0.195 C 
HETATM   11  O1  UNL     1      25.502   1.401  52.962  1.00  0.00    -0.387 OA
HETATM   12  C17 UNL     1      24.357   0.654  53.379  1.00  0.00     0.172 C 
HETATM   13  C18 UNL     1      23.039   1.409  53.081  1.00  0.00     0.065 C 
ENDROOT
BRANCH   7  14
HETATM   14  N3  UNL     1      24.445   5.260  49.733  1.00  0.00    -0.355 N 
HETATM   15  C9  UNL     1      25.597   6.128  49.867  1.00  0.00     0.090 A 
HETATM   16  C10 UNL     1      25.483   7.395  50.297  1.00  0.00     0.033 A 
HETATM   17  C11 UNL     1      24.209   8.048  50.673  1.00  0.00     0.240 A 
HETATM   18  F1  UNL     1      23.958   9.177  49.921  1.00  0.00    -0.239 F 
HETATM   19  C12 UNL     1      23.101   7.088  50.504  1.00  0.00     0.065 A 
HETATM   20 CL1  UNL     1      21.453   7.576  50.877  1.00  0.00    -0.084 Cl
HETATM   21  C13 UNL     1      23.200   5.844  50.085  1.00  0.00     0.114 A 
ENDBRANCH   7  14
BRANCH   1  22
HETATM   22  N2  UNL     1      22.197   1.627  48.101  1.00  0.00    -0.248 NA
HETATM   23  C1  UNL     1      21.245   2.341  47.615  1.00  0.00     0.200 C 
BRANCH  23  24
HETATM   24  N1  UNL     1      20.554   3.522  48.023  1.00  0.00    -0.394 N 
HETATM   25  H1  UNL     1      20.536   3.538  49.074  1.00  0.00     0.156 HD
HETATM   26  H2  UNL     1      20.239   4.077  47.189  1.00  0.00     0.156 HD
ENDBRANCH  23  24
ENDBRANCH   1  22
TORSDOF 3
ENDMDL
MODEL 9
REMARK VINA RESULT:      -6.7     10.191     12.508
REMARK  3 active torsions:
REMARK  status: ('A' for Active; 'I' for Inactive)
REMARK    1  A    between atoms: N1_1  and  C1_2 
REMARK    2  A    between atoms: N2_3  and  C2_4 
REMARK    3  A    between atoms: C8_10  and  N3_11 
ROOT
HETATM    1  C2  UNL     1      32.822   6.123  44.910  1.00  0.00     0.053 A 
HETATM    2  C3  UNL     1      32.929   4.750  45.184  1.00  0.00     0.035 A 
HETATM    3  C4  UNL     1      32.969   4.414  46.515  1.00  0.00    -0.054 A 
HETATM    4  C5  UNL     1      32.909   5.232  47.625  1.00  0.00     0.016 A 
HETATM    5  C6  UNL     1      32.828   6.271  46.748  1.00  0.00    -0.031 A 
HETATM    6  C7  UNL     1      32.751   7.211  45.796  1.00  0.00     0.077 A 
HETATM    7  C8  UNL     1      32.678   8.141  46.989  1.00  0.00     0.143 C 
HETATM    8  C14 UNL     1      33.649   7.237  47.552  1.00  0.00    -0.028 C 
HETATM    9  C15 UNL     1      34.836   6.955  48.230  1.00  0.00     0.009 C 
HETATM   10  C16 UNL     1      34.922   5.570  47.817  1.00  0.00     0.195 C 
HETATM   11  O1  UNL     1      34.882   4.516  48.626  1.00  0.00    -0.387 OA
HETATM   12  C17 UNL     1      34.689   3.300  47.899  1.00  0.00     0.172 C 
HETATM   13  C18 UNL     1      33.273   3.220  47.280  1.00  0.00     0.065 C 
ENDROOT
BRANCH   7  14
HETATM   14  N3  UNL     1      31.402   8.160  47.609  1.00  0.00    -0.355 N 
HETATM   15  C9  UNL     1      31.358   9.302  48.499  1.00  0.00     0.090 A 
HETATM   16  C10 UNL     1      30.275   9.580  49.241  1.00  0.00     0.033 A 
HETATM   17  C11 UNL     1      29.026   8.786  49.245  1.00  0.00     0.240 A 
HETATM   18  F1  UNL     1      27.926   9.539  48.889  1.00  0.00    -0.239 F 
HETATM   19  C12 UNL     1      29.168   7.651  48.314  1.00  0.00     0.065 A 
HETATM   20 CL1  UNL     1      27.839   6.518  48.101  1.00  0.00    -0.084 Cl
HETATM   21  C13 UNL     1      30.224   7.367  47.581  1.00  0.00     0.114 A 
ENDBRANCH   7  14
BRANCH   1  22
HETATM   22  N2  UNL     1      32.772   6.585  43.540  1.00  0.00    -0.248 NA
HETATM   23  C1  UNL     1      33.866   6.863  42.925  1.00  0.00     0.200 C 
BRANCH  23  24
HETATM   24  N1  UNL     1      35.254   6.836  43.262  1.00  0.00    -0.394 N 
HETATM   25  H1  UNL     1      35.458   7.682  43.852  1.00  0.00     0.156 HD
HETATM   26  H2  UNL     1      35.722   5.992  42.848  1.00  0.00     0.156 HD
ENDBRANCH  23  24
ENDBRANCH   1  22
TORSDOF 3
ENDMDL
