MODEL 1
REMARK VINA RESULT:      -8.2      0.000      0.000
REMARK  5 active torsions:
REMARK  status: ('A' for Active; 'I' for Inactive)
REMARK    1  A    between atoms: N1_2  and  N2_3 
REMARK    2  A    between atoms: C4_8  and  N5_9 
REMARK    3  A    between atoms: N5_9  and  C5_10 
REMARK    4  A    between atoms: N6_18  and  C12_19 
REMARK    5  A    between atoms: C14_21  and  N7_22 
ROOT
HETATM    1  N2  UNL     1      23.317  -0.236  53.437  1.00  0.00     0.014 NA
HETATM    2  C2  UNL     1      23.096   0.974  53.048  1.00  0.00     0.746 C 
HETATM    3  N3  UNL     1      21.781   1.388  52.625  1.00  0.00    -0.054 NA
HETATM    4  C3  UNL     1      21.530   2.520  52.021  1.00  0.00     0.254 C 
HETATM    5  N4  UNL     1      22.385   3.586  51.636  1.00  0.00    -0.226 NA
HETATM    6  C4  UNL     1      23.555   3.843  52.105  1.00  0.00     0.124 C 
HETATM    7  C11 UNL     1      24.410   3.211  53.130  1.00  0.00     0.226 C 
HETATM    8  N6  UNL     1      24.304   1.759  53.111  1.00  0.00    -0.175 N 
ENDROOT
BRANCH   6   9
HETATM    9  N5  UNL     1      24.105   5.001  51.465  1.00  0.00    -0.343 N 
HETATM   10  H6  UNL     1      23.717   5.967  51.683  1.00  0.00     0.167 HD
BRANCH   9  11
HETATM   11  C5  UNL     1      25.178   4.960  50.520  1.00  0.00     0.035 A 
HETATM   12  C6  UNL     1      25.913   3.812  50.205  1.00  0.00     0.029 A 
HETATM   13  C7  UNL     1      26.925   3.912  49.272  1.00  0.00     0.004 A 
HETATM   14  C8  UNL     1      27.259   5.086  48.626  1.00  0.00     0.024 A 
HETATM   15  C9  UNL     1      26.515   6.188  48.964  1.00  0.00     0.036 A 
HETATM   16 CL1  UNL     1      26.930   7.695  48.145  1.00  0.00    -0.084 Cl
HETATM   17  C10 UNL     1      25.509   6.140  49.875  1.00  0.00     0.053 A 
ENDBRANCH   9  11
ENDBRANCH   6   9
BRANCH   8  18
HETATM   18  C12 UNL     1      25.545   1.033  53.164  1.00  0.00     0.035 A 
HETATM   19  C13 UNL     1      26.201   0.966  54.310  1.00  0.00     0.054 A 
HETATM   20  C14 UNL     1      27.412   0.183  54.105  1.00  0.00     0.024 A 
HETATM   21  C15 UNL     1      27.458  -0.203  52.839  1.00  0.00     0.008 A 
HETATM   22  C16 UNL     1      26.269   0.297  52.095  1.00  0.00     0.087 A 
BRANCH  20  23
HETATM   23  N7  UNL     1      28.502  -0.229  54.952  1.00  0.00    -0.399 N 
HETATM   24  H14 UNL     1      29.183   0.519  55.212  1.00  0.00     0.156 HD
HETATM   25  H15 UNL     1      28.393  -1.254  55.153  1.00  0.00     0.156 HD
ENDBRANCH  20  23
ENDBRANCH   8  18
BRANCH   1  26
HETATM   26  N1  UNL     1      22.250  -1.136  53.438  1.00  0.00    -0.303 N 
HETATM   27  C1  UNL     1      21.221  -1.697  54.289  1.00  0.00     0.170 C 
HETATM   28  H4  UNL     1      22.242  -1.495  52.456  1.00  0.00     0.182 HD
ENDBRANCH   1  26
TORSDOF 5
ENDMDL
MODEL 2
REMARK VINA RESULT:      -8.2      1.856      2.498
REMARK  5 active torsions:
REMARK  status: ('A' for Active; 'I' for Inactive)
REMARK    1  A    between atoms: N1_2  and  N2_3 
REMARK    2  A    between atoms: C4_8  and  N5_9 
REMARK    3  A    between atoms: N5_9  and  C5_10 
REMARK    4  A    between atoms: N6_18  and  C12_19 
REMARK    5  A    between atoms: C14_21  and  N7_22 
ROOT
HETATM    1  N2  UNL     1      24.852  -0.035  53.794  1.00  0.00     0.014 NA
HETATM    2  C2  UNL     1      24.888   0.853  52.858  1.00  0.00     0.746 C 
HETATM    3  N3  UNL     1      23.672   1.403  52.312  1.00  0.00    -0.054 NA
HETATM    4  C3  UNL     1      23.623   2.135  51.230  1.00  0.00     0.254 C 
HETATM    5  N4  UNL     1      24.645   2.573  50.348  1.00  0.00    -0.226 NA
HETATM    6  C4  UNL     1      25.904   2.644  50.603  1.00  0.00     0.124 C 
HETATM    7  C11 UNL     1      26.729   2.336  51.788  1.00  0.00     0.226 C 
HETATM    8  N6  UNL     1      26.250   1.159  52.498  1.00  0.00    -0.175 N 
ENDROOT
BRANCH   6   9
HETATM    9  N5  UNL     1      26.617   3.133  49.460  1.00  0.00    -0.343 N 
HETATM   10  H6  UNL     1      27.066   2.451  48.778  1.00  0.00     0.167 HD
BRANCH   9  11
HETATM   11  C5  UNL     1      26.777   4.520  49.150  1.00  0.00     0.035 A 
HETATM   12  C6  UNL     1      25.817   5.506  49.405  1.00  0.00     0.029 A 
HETATM   13  C7  UNL     1      26.102   6.810  49.055  1.00  0.00     0.004 A 
HETATM   14  C8  UNL     1      27.286   7.204  48.463  1.00  0.00     0.024 A 
HETATM   15  C9  UNL     1      28.200   6.207  48.230  1.00  0.00     0.036 A 
HETATM   16 CL1  UNL     1      29.718   6.697  47.476  1.00  0.00    -0.084 Cl
HETATM   17  C10 UNL     1      27.967   4.910  48.557  1.00  0.00     0.053 A 
ENDBRANCH   9  11
ENDBRANCH   6   9
BRANCH   8  18
HETATM   18  C12 UNL     1      27.251   0.198  52.880  1.00  0.00     0.035 A 
HETATM   19  C13 UNL     1      27.060  -1.078  52.591  1.00  0.00     0.054 A 
HETATM   20  C14 UNL     1      28.203  -1.838  53.077  1.00  0.00     0.024 A 
HETATM   21  C15 UNL     1      29.057  -1.003  53.648  1.00  0.00     0.008 A 
HETATM   22  C16 UNL     1      28.544   0.394  53.586  1.00  0.00     0.087 A 
BRANCH  20  23
HETATM   23  N7  UNL     1      28.568  -3.232  53.060  1.00  0.00    -0.399 N 
HETATM   24  H14 UNL     1      29.366  -3.499  53.678  1.00  0.00     0.156 HD
HETATM   25  H15 UNL     1      27.926  -3.732  52.396  1.00  0.00     0.156 HD
ENDBRANCH  20  23
ENDBRANCH   8  18
BRANCH   1  26
HETATM   26  N1  UNL     1      23.605  -0.449  54.265  1.00  0.00    -0.303 N 
HETATM   27  C1  UNL     1      22.973  -1.349  55.208  1.00  0.00     0.170 C 
HETATM   28  H4  UNL     1      22.937   0.127  53.704  1.00  0.00     0.182 HD
ENDBRANCH   1  26
TORSDOF 5
ENDMDL
MODEL 3
REMARK VINA RESULT:      -8.0      3.084      5.793
REMARK  5 active torsions:
REMARK  status: ('A' for Active; 'I' for Inactive)
REMARK    1  A    between atoms: N1_2  and  N2_3 
REMARK    2  A    between atoms: C4_8  and  N5_9 
REMARK    3  A    between atoms: N5_9  and  C5_10 
REMARK    4  A    between atoms: N6_18  and  C12_19 
REMARK    5  A    between atoms: C14_21  and  N7_22 
ROOT
HETATM    1  N2  UNL     1      22.500   1.690  50.560  1.00  0.00     0.014 NA
HETATM    2  C2  UNL     1      23.640   2.116  50.990  1.00  0.00     0.746 C 
HETATM    3  N3  UNL     1      24.540   2.831  50.120  1.00  0.00    -0.054 NA
HETATM    4  C3  UNL     1      25.784   3.101  50.418  1.00  0.00     0.254 C 
HETATM    5  N4  UNL     1      26.556   2.806  51.572  1.00  0.00    -0.226 NA
HETATM    6  C4  UNL     1      26.110   2.511  52.742  1.00  0.00     0.124 C 
HETATM    7  C11 UNL     1      24.758   2.370  53.318  1.00  0.00     0.226 C 
HETATM    8  N6  UNL     1      23.822   1.771  52.378  1.00  0.00    -0.175 N 
ENDROOT
BRANCH   6   9
HETATM    9  N5  UNL     1      27.198   2.278  53.646  1.00  0.00    -0.343 N 
HETATM   10  H6  UNL     1      27.406   2.975  54.422  1.00  0.00     0.167 HD
BRANCH   9  11
HETATM   11  C5  UNL     1      28.059   1.138  53.584  1.00  0.00     0.035 A 
HETATM   12  C6  UNL     1      29.428   1.162  53.872  1.00  0.00     0.029 A 
HETATM   13  C7  UNL     1      30.144  -0.014  53.774  1.00  0.00     0.004 A 
HETATM   14  C8  UNL     1      29.586  -1.222  53.406  1.00  0.00     0.024 A 
HETATM   15  C9  UNL     1      28.241  -1.203  53.132  1.00  0.00     0.036 A 
HETATM   16 CL1  UNL     1      27.515  -2.740  52.661  1.00  0.00    -0.084 Cl
HETATM   17  C10 UNL     1      27.494  -0.072  53.215  1.00  0.00     0.053 A 
ENDBRANCH   9  11
ENDBRANCH   6   9
BRANCH   8  18
HETATM   18  C12 UNL     1      22.988   0.719  52.898  1.00  0.00     0.035 A 
HETATM   19  C13 UNL     1      21.747   1.001  53.255  1.00  0.00     0.054 A 
HETATM   20  C14 UNL     1      21.118  -0.218  53.742  1.00  0.00     0.024 A 
HETATM   21  C15 UNL     1      21.994  -1.207  53.668  1.00  0.00     0.008 A 
HETATM   22  C16 UNL     1      23.290  -0.719  53.120  1.00  0.00     0.087 A 
BRANCH  20  23
HETATM   23  N7  UNL     1      19.811  -0.542  54.257  1.00  0.00    -0.399 N 
HETATM   24  H14 UNL     1      19.669  -1.538  54.539  1.00  0.00     0.156 HD
HETATM   25  H15 UNL     1      19.228   0.331  54.246  1.00  0.00     0.156 HD
ENDBRANCH  20  23
ENDBRANCH   8  18
BRANCH   1  26
HETATM   26  N1  UNL     1      22.161   1.940  49.229  1.00  0.00    -0.303 N 
HETATM   27  C1  UNL     1      21.044   1.928  48.306  1.00  0.00     0.170 C 
HETATM   28  H4  UNL     1      23.070   2.234  48.804  1.00  0.00     0.182 HD
ENDBRANCH   1  26
TORSDOF 5
ENDMDL
MODEL 4
REMARK VINA RESULT:      -7.9      1.819      2.339
REMARK  5 active torsions:
REMARK  status: ('A' for Active; 'I' for Inactive)
REMARK    1  A    between atoms: N1_2  and  N2_3 
REMARK    2  A    between atoms: C4_8  and  N5_9 
REMARK    3  A    between atoms: N5_9  and  C5_10 
REMARK    4  A    between atoms: N6_18  and  C12_19 
REMARK    5  A    between atoms: C14_21  and  N7_22 
ROOT
HETATM    1  N2  UNL     1      24.498  -0.180  53.482  1.00  0.00     0.014 NA
HETATM    2  C2  UNL     1      24.572   0.744  52.584  1.00  0.00     0.746 C 
HETATM    3  N3  UNL     1      23.385   1.248  51.940  1.00  0.00    -0.054 NA
HETATM    4  C3  UNL     1      23.397   2.018  50.883  1.00  0.00     0.254 C 
HETATM    5  N4  UNL     1      24.472   2.545  50.120  1.00  0.00    -0.226 NA
HETATM    6  C4  UNL     1      25.695   2.674  50.500  1.00  0.00     0.124 C 
HETATM    7  C11 UNL     1      26.418   2.366  51.750  1.00  0.00     0.226 C 
HETATM    8  N6  UNL     1      25.942   1.138  52.369  1.00  0.00    -0.175 N 
ENDROOT
BRANCH   6   9
HETATM    9  N5  UNL     1      26.485   3.245  49.450  1.00  0.00    -0.343 N 
HETATM   10  H6  UNL     1      26.985   2.615  48.755  1.00  0.00     0.167 HD
BRANCH   9  11
HETATM   11  C5  UNL     1      26.659   4.651  49.253  1.00  0.00     0.035 A 
HETATM   12  C6  UNL     1      27.703   5.227  48.520  1.00  0.00     0.029 A 
HETATM   13  C7  UNL     1      27.752   6.601  48.410  1.00  0.00     0.004 A 
HETATM   14  C8  UNL     1      26.825   7.450  48.982  1.00  0.00     0.024 A 
HETATM   15  C9  UNL     1      25.818   6.847  49.692  1.00  0.00     0.036 A 
HETATM   16 CL1  UNL     1      24.627   7.919  50.429  1.00  0.00    -0.084 Cl
HETATM   17  C10 UNL     1      25.726   5.499  49.830  1.00  0.00     0.053 A 
ENDBRANCH   9  11
ENDBRANCH   6   9
BRANCH   8  18
HETATM   18  C12 UNL     1      26.956   0.220  52.816  1.00  0.00     0.035 A 
HETATM   19  C13 UNL     1      26.882  -1.048  52.446  1.00  0.00     0.054 A 
HETATM   20  C14 UNL     1      28.012  -1.764  53.021  1.00  0.00     0.024 A 
HETATM   21  C15 UNL     1      28.742  -0.912  53.725  1.00  0.00     0.008 A 
HETATM   22  C16 UNL     1      28.148   0.453  53.673  1.00  0.00     0.087 A 
BRANCH  20  23
HETATM   23  N7  UNL     1      28.467  -3.131  52.979  1.00  0.00    -0.399 N 
HETATM   24  H14 UNL     1      27.803  -3.841  53.360  1.00  0.00     0.156 HD
HETATM   25  H15 UNL     1      29.426  -3.145  52.551  1.00  0.00     0.156 HD
ENDBRANCH  20  23
ENDBRANCH   8  18
BRANCH   1  26
HETATM   26  N1  UNL     1      23.237  -0.679  53.814  1.00  0.00    -0.303 N 
HETATM   27  C1  UNL     1      22.365  -0.941  54.940  1.00  0.00     0.170 C 
HETATM   28  H4  UNL     1      22.833  -0.937  52.885  1.00  0.00     0.182 HD
ENDBRANCH   1  26
TORSDOF 5
ENDMDL
MODEL 5
REMARK VINA RESULT:      -7.8      3.645      6.583
REMARK  5 active torsions:
REMARK  status: ('A' for Active; 'I' for Inactive)
REMARK    1  A    between atoms: N1_2  and  N2_3 
REMARK    2  A    between atoms: C4_8  and  N5_9 
REMARK    3  A    between atoms: N5_9  and  C5_10 
REMARK    4  A    between atoms: N6_18  and  C12_19 
REMARK    5  A    between atoms: C14_21  and  N7_22 
ROOT
HETATM    1  N2  UNL     1      26.154   2.792  50.984  1.00  0.00     0.014 NA
HETATM    2  C2  UNL     1      24.889   2.694  51.222  1.00  0.00     0.746 C 
HETATM    3  N3  UNL     1      23.982   3.755  50.861  1.00  0.00    -0.054 NA
HETATM    4  C3  UNL     1      22.739   3.820  51.258  1.00  0.00     0.254 C 
HETATM    5  N4  UNL     1      21.972   2.956  52.083  1.00  0.00    -0.226 NA
HETATM    6  C4  UNL     1      22.221   1.721  52.345  1.00  0.00     0.124 C 
HETATM    7  C11 UNL     1      23.289   0.783  51.946  1.00  0.00     0.226 C 
HETATM    8  N6  UNL     1      24.587   1.436  51.859  1.00  0.00    -0.175 N 
ENDROOT
BRANCH   6   9
HETATM    9  N5  UNL     1      21.217   1.185  53.217  1.00  0.00    -0.343 N 
HETATM   10  H6  UNL     1      21.343   1.236  54.271  1.00  0.00     0.167 HD
BRANCH   9  11
HETATM   11  C5  UNL     1      20.011   0.564  52.762  1.00  0.00     0.035 A 
HETATM   12  C6  UNL     1      19.240   1.022  51.688  1.00  0.00     0.029 A 
HETATM   13  C7  UNL     1      18.096   0.326  51.353  1.00  0.00     0.004 A 
HETATM   14  C8  UNL     1      17.664  -0.803  52.020  1.00  0.00     0.024 A 
HETATM   15  C9  UNL     1      18.447  -1.219  53.067  1.00  0.00     0.036 A 
HETATM   16 CL1  UNL     1      17.906  -2.661  53.927  1.00  0.00    -0.084 Cl
HETATM   17  C10 UNL     1      19.582  -0.568  53.434  1.00  0.00     0.053 A 
ENDBRANCH   9  11
ENDBRANCH   6   9
BRANCH   8  18
HETATM   18  C12 UNL     1      25.686   0.745  52.479  1.00  0.00     0.035 A 
HETATM   19  C13 UNL     1      26.015   1.047  53.724  1.00  0.00     0.054 A 
HETATM   20  C14 UNL     1      27.145   0.219  54.118  1.00  0.00     0.024 A 
HETATM   21  C15 UNL     1      27.473  -0.564  53.101  1.00  0.00     0.008 A 
HETATM   22  C16 UNL     1      26.577  -0.315  51.939  1.00  0.00     0.087 A 
BRANCH  20  23
HETATM   23  N7  UNL     1      27.930   0.089  55.320  1.00  0.00    -0.399 N 
HETATM   24  H14 UNL     1      27.439  -0.335  56.138  1.00  0.00     0.156 HD
HETATM   25  H15 UNL     1      28.891   0.465  55.127  1.00  0.00     0.156 HD
ENDBRANCH  20  23
ENDBRANCH   8  18
BRANCH   1  26
HETATM   26  N1  UNL     1      26.622   3.954  50.367  1.00  0.00    -0.303 N 
HETATM   27  C1  UNL     1      27.070   4.478  49.093  1.00  0.00     0.170 C 
HETATM   28  H4  UNL     1      26.627   4.650  51.147  1.00  0.00     0.182 HD
ENDBRANCH   1  26
TORSDOF 5
ENDMDL
MODEL 6
REMARK VINA RESULT:      -7.6      3.210      6.641
REMARK  5 active torsions:
REMARK  status: ('A' for Active; 'I' for Inactive)
REMARK    1  A    between atoms: N1_2  and  N2_3 
REMARK    2  A    between atoms: C4_8  and  N5_9 
REMARK    3  A    between atoms: N5_9  and  C5_10 
REMARK    4  A    between atoms: N6_18  and  C12_19 
REMARK    5  A    between atoms: C14_21  and  N7_22 
ROOT
HETATM    1  N2  UNL     1      23.665   4.468  48.531  1.00  0.00     0.014 NA
HETATM    2  C2  UNL     1      24.018   3.659  49.473  1.00  0.00     0.746 C 
HETATM    3  N3  UNL     1      23.154   2.582  49.888  1.00  0.00    -0.054 NA
HETATM    4  C3  UNL     1      23.345   1.865  50.964  1.00  0.00     0.254 C 
HETATM    5  N4  UNL     1      24.359   1.917  51.956  1.00  0.00    -0.226 NA
HETATM    6  C4  UNL     1      25.523   2.452  51.840  1.00  0.00     0.124 C 
HETATM    7  C11 UNL     1      26.222   3.160  50.749  1.00  0.00     0.226 C 
HETATM    8  N6  UNL     1      25.321   4.008  49.982  1.00  0.00    -0.175 N 
ENDROOT
BRANCH   6   9
HETATM    9  N5  UNL     1      26.263   2.303  53.059  1.00  0.00    -0.343 N 
HETATM   10  H6  UNL     1      26.037   2.914  53.899  1.00  0.00     0.167 HD
BRANCH   9  11
HETATM   11  C5  UNL     1      27.323   1.359  53.241  1.00  0.00     0.035 A 
HETATM   12  C6  UNL     1      28.605   1.684  53.697  1.00  0.00     0.029 A 
HETATM   13  C7  UNL     1      29.535   0.673  53.827  1.00  0.00     0.004 A 
HETATM   14  C8  UNL     1      29.274  -0.651  53.533  1.00  0.00     0.024 A 
HETATM   15  C9  UNL     1      28.005  -0.928  53.089  1.00  0.00     0.036 A 
HETATM   16 CL1  UNL     1      27.659  -2.615  52.710  1.00  0.00    -0.084 Cl
HETATM   17  C10 UNL     1      27.056   0.032  52.944  1.00  0.00     0.053 A 
ENDBRANCH   9  11
ENDBRANCH   6   9
BRANCH   8  18
HETATM   18  C12 UNL     1      25.789   5.340  49.703  1.00  0.00     0.035 A 
HETATM   19  C13 UNL     1      25.314   6.349  50.413  1.00  0.00     0.054 A 
HETATM   20  C14 UNL     1      25.937   7.578  49.944  1.00  0.00     0.024 A 
HETATM   21  C15 UNL     1      26.773   7.283  48.960  1.00  0.00     0.008 A 
HETATM   22  C16 UNL     1      26.771   5.817  48.695  1.00  0.00     0.087 A 
BRANCH  20  23
HETATM   23  N7  UNL     1      25.832   8.968  50.314  1.00  0.00    -0.399 N 
HETATM   24  H14 UNL     1      25.078   9.198  50.999  1.00  0.00     0.156 HD
HETATM   25  H15 UNL     1      26.572   9.503  49.795  1.00  0.00     0.156 HD
ENDBRANCH  20  23
ENDBRANCH   8  18
BRANCH   1  26
HETATM   26  N1  UNL     1      22.423   4.272  47.924  1.00  0.00    -0.303 N 
HETATM   27  C1  UNL     1      21.791   4.090  46.633  1.00  0.00     0.170 C 
HETATM   28  H4  UNL     1      21.762   4.265  48.734  1.00  0.00     0.182 HD
ENDBRANCH   1  26
TORSDOF 5
ENDMDL
MODEL 7
REMARK VINA RESULT:      -7.5      2.842      5.566
REMARK  5 active torsions:
REMARK  status: ('A' for Active; 'I' for Inactive)
REMARK    1  A    between atoms: N1_2  and  N2_3 
REMARK    2  A    between atoms: C4_8  and  N5_9 
REMARK    3  A    between atoms: N5_9  and  C5_10 
REMARK    4  A    between atoms: N6_18  and  C12_19 
REMARK    5  A    between atoms: C14_21  and  N7_22 
ROOT
HETATM    1  N2  UNL     1      20.666   2.861  51.765  1.00  0.00     0.014 NA
HETATM    2  C2  UNL     1      21.293   1.880  52.324  1.00  0.00     0.746 C 
HETATM    3  N3  UNL     1      20.592   0.925  53.146  1.00  0.00    -0.054 NA
HETATM    4  C3  UNL     1      21.185   0.044  53.909  1.00  0.00     0.254 C 
HETATM    5  N4  UNL     1      22.560  -0.221  54.140  1.00  0.00    -0.226 NA
HETATM    6  C4  UNL     1      23.546   0.112  53.384  1.00  0.00     0.124 C 
HETATM    7  C11 UNL     1      23.655   0.830  52.098  1.00  0.00     0.226 C 
HETATM    8  N6  UNL     1      22.697   1.921  51.997  1.00  0.00    -0.175 N 
ENDROOT
BRANCH   6   9
HETATM    9  N5  UNL     1      24.783  -0.332  53.955  1.00  0.00    -0.343 N 
HETATM   10  H6  UNL     1      24.814  -1.221  54.537  1.00  0.00     0.167 HD
BRANCH   9  11
HETATM   11  C5  UNL     1      26.029   0.352  53.796  1.00  0.00     0.035 A 
HETATM   12  C6  UNL     1      26.174   1.744  53.782  1.00  0.00     0.029 A 
HETATM   13  C7  UNL     1      27.437   2.274  53.620  1.00  0.00     0.004 A 
HETATM   14  C8  UNL     1      28.577   1.508  53.470  1.00  0.00     0.024 A 
HETATM   15  C9  UNL     1      28.392   0.149  53.489  1.00  0.00     0.036 A 
HETATM   16 CL1  UNL     1      29.840  -0.841  53.299  1.00  0.00    -0.084 Cl
HETATM   17  C10 UNL     1      27.169  -0.421  53.646  1.00  0.00     0.053 A 
ENDBRANCH   9  11
ENDBRANCH   6   9
BRANCH   8  18
HETATM   18  C12 UNL     1      23.213   3.175  51.517  1.00  0.00     0.035 A 
HETATM   19  C13 UNL     1      23.399   4.163  52.375  1.00  0.00     0.054 A 
HETATM   20  C14 UNL     1      23.923   5.312  51.650  1.00  0.00     0.024 A 
HETATM   21  C15 UNL     1      24.040   4.991  50.371  1.00  0.00     0.008 A 
HETATM   22  C16 UNL     1      23.599   3.587  50.142  1.00  0.00     0.087 A 
BRANCH  20  23
HETATM   23  N7  UNL     1      24.316   6.648  52.025  1.00  0.00    -0.399 N 
HETATM   24  H14 UNL     1      25.287   6.926  51.759  1.00  0.00     0.156 HD
HETATM   25  H15 UNL     1      23.508   7.102  52.517  1.00  0.00     0.156 HD
ENDBRANCH  20  23
ENDBRANCH   8  18
BRANCH   1  26
HETATM   26  N1  UNL     1      19.291   2.972  51.977  1.00  0.00    -0.303 N 
HETATM   27  C1  UNL     1      18.014   2.912  51.296  1.00  0.00     0.170 C 
HETATM   28  H4  UNL     1      19.225   3.168  53.002  1.00  0.00     0.182 HD
ENDBRANCH   1  26
TORSDOF 5
ENDMDL
MODEL 8
REMARK VINA RESULT:      -7.3      1.552      1.998
REMARK  5 active torsions:
REMARK  status: ('A' for Active; 'I' for Inactive)
REMARK    1  A    between atoms: N1_2  and  N2_3 
REMARK    2  A    between atoms: C4_8  and  N5_9 
REMARK    3  A    between atoms: N5_9  and  C5_10 
REMARK    4  A    between atoms: N6_18  and  C12_19 
REMARK    5  A    between atoms: C14_21  and  N7_22 
ROOT
HETATM    1  N2  UNL     1      23.247   0.596  53.069  1.00  0.00     0.014 NA
HETATM    2  C2  UNL     1      22.720   1.747  52.819  1.00  0.00     0.746 C 
HETATM    3  N3  UNL     1      21.313   1.871  52.533  1.00  0.00    -0.054 NA
HETATM    4  C3  UNL     1      20.755   2.958  52.065  1.00  0.00     0.254 C 
HETATM    5  N4  UNL     1      21.304   4.223  51.730  1.00  0.00    -0.226 NA
HETATM    6  C4  UNL     1      22.423   4.710  52.140  1.00  0.00     0.124 C 
HETATM    7  C11 UNL     1      23.490   4.217  53.033  1.00  0.00     0.226 C 
HETATM    8  N6  UNL     1      23.717   2.788  52.877  1.00  0.00    -0.175 N 
ENDROOT
BRANCH   6   9
HETATM    9  N5  UNL     1      22.632   6.013  51.582  1.00  0.00    -0.343 N 
HETATM   10  H6  UNL     1      21.872   6.754  51.654  1.00  0.00     0.167 HD
BRANCH   9  11
HETATM   11  C5  UNL     1      23.830   6.413  50.910  1.00  0.00     0.035 A 
HETATM   12  C6  UNL     1      24.256   7.739  50.770  1.00  0.00     0.029 A 
HETATM   13  C7  UNL     1      25.435   7.986  50.096  1.00  0.00     0.004 A 
HETATM   14  C8  UNL     1      26.227   6.995  49.549  1.00  0.00     0.024 A 
HETATM   15  C9  UNL     1      25.774   5.710  49.709  1.00  0.00     0.036 A 
HETATM   16 CL1  UNL     1      26.777   4.434  49.015  1.00  0.00    -0.084 Cl
HETATM   17  C10 UNL     1      24.621   5.416  50.363  1.00  0.00     0.053 A 
ENDBRANCH   9  11
ENDBRANCH   6   9
BRANCH   8  18
HETATM   18  C12 UNL     1      25.091   2.373  52.769  1.00  0.00     0.035 A 
HETATM   19  C13 UNL     1      25.868   2.443  53.837  1.00  0.00     0.054 A 
HETATM   20  C14 UNL     1      27.197   1.971  53.473  1.00  0.00     0.024 A 
HETATM   21  C15 UNL     1      27.190   1.628  52.194  1.00  0.00     0.008 A 
HETATM   22  C16 UNL     1      25.843   1.846  51.600  1.00  0.00     0.087 A 
BRANCH  20  23
HETATM   23  N7  UNL     1      28.441   1.813  54.184  1.00  0.00    -0.399 N 
HETATM   24  H14 UNL     1      29.011   2.680  54.298  1.00  0.00     0.156 HD
HETATM   25  H15 UNL     1      28.534   0.805  54.464  1.00  0.00     0.156 HD
ENDBRANCH  20  23
ENDBRANCH   8  18
BRANCH   1  26
HETATM   26  N1  UNL     1      22.418  -0.527  53.055  1.00  0.00    -0.303 N 
HETATM   27  C1  UNL     1      21.866  -1.559  53.909  1.00  0.00     0.170 C 
HETATM   28  H4  UNL     1      22.127  -0.594  52.053  1.00  0.00     0.182 HD
ENDBRANCH   1  26
TORSDOF 5
ENDMDL
MODEL 9
REMARK VINA RESULT:      -7.1      3.211      6.378
REMARK  5 active torsions:
REMARK  status: ('A' for Active; 'I' for Inactive)
REMARK    1  A    between atoms: N1_2  and  N2_3 
REMARK    2  A    between atoms: C4_8  and  N5_9 
REMARK    3  A    between atoms: N5_9  and  C5_10 
REMARK    4  A    between atoms: N6_18  and  C12_19 
REMARK    5  A    between atoms: C14_21  and  N7_22 
ROOT
HETATM    1  N2  UNL     1      23.024   5.415  50.348  1.00  0.00     0.014 NA
HETATM    2  C2  UNL     1      22.158   4.476  50.532  1.00  0.00     0.746 C 
HETATM    3  N3  UNL     1      20.787   4.785  50.853  1.00  0.00    -0.054 NA
HETATM    4  C3  UNL     1      19.914   3.900  51.260  1.00  0.00     0.254 C 
HETATM    5  N4  UNL     1      20.032   2.504  51.486  1.00  0.00    -0.226 NA
HETATM    6  C4  UNL     1      20.933   1.720  51.007  1.00  0.00     0.124 C 
HETATM    7  C11 UNL     1      22.094   1.915  50.117  1.00  0.00     0.226 C 
HETATM    8  N6  UNL     1      22.769   3.180  50.368  1.00  0.00    -0.175 N 
ENDROOT
BRANCH   6   9
HETATM    9  N5  UNL     1      20.718   0.378  51.463  1.00  0.00    -0.343 N 
HETATM   10  H6  UNL     1      20.081  -0.276  50.918  1.00  0.00     0.167 HD
BRANCH   9  11
HETATM   11  C5  UNL     1      21.318  -0.174  52.638  1.00  0.00     0.035 A 
HETATM   12  C6  UNL     1      20.610  -0.797  53.672  1.00  0.00     0.029 A 
HETATM   13  C7  UNL     1      21.315  -1.287  54.752  1.00  0.00     0.004 A 
HETATM   14  C8  UNL     1      22.687  -1.198  54.876  1.00  0.00     0.024 A 
HETATM   15  C9  UNL     1      23.344  -0.580  53.842  1.00  0.00     0.036 A 
HETATM   16 CL1  UNL     1      25.098  -0.460  53.987  1.00  0.00    -0.084 Cl
HETATM   17  C10 UNL     1      22.695  -0.082  52.757  1.00  0.00     0.053 A 
ENDBRANCH   9  11
ENDBRANCH   6   9
BRANCH   8  18
HETATM   18  C12 UNL     1      24.204   3.126  50.461  1.00  0.00     0.035 A 
HETATM   19  C13 UNL     1      24.760   2.743  51.597  1.00  0.00     0.054 A 
HETATM   20  C14 UNL     1      26.207   2.771  51.437  1.00  0.00     0.024 A 
HETATM   21  C15 UNL     1      26.490   3.171  50.207  1.00  0.00     0.008 A 
HETATM   22  C16 UNL     1      25.241   3.444  49.445  1.00  0.00     0.087 A 
BRANCH  20  23
HETATM   23  N7  UNL     1      27.323   2.468  52.298  1.00  0.00    -0.399 N 
HETATM   24  H14 UNL     1      27.387   3.035  53.172  1.00  0.00     0.156 HD
HETATM   25  H15 UNL     1      27.880   1.697  51.854  1.00  0.00     0.156 HD
ENDBRANCH  20  23
ENDBRANCH   8  18
BRANCH   1  26
HETATM   26  N1  UNL     1      22.598   6.739  50.469  1.00  0.00    -0.303 N 
HETATM   27  C1  UNL     1      23.034   8.108  50.281  1.00  0.00     0.170 C 
HETATM   28  H4  UNL     1      21.619   6.642  50.822  1.00  0.00     0.182 HD
ENDBRANCH   1  26
TORSDOF 5
ENDMDL
