MODEL 1
REMARK VINA RESULT:      -9.7      0.000      0.000
REMARK  2 active torsions:
REMARK  status: ('A' for Active; 'I' for Inactive)
REMARK    1  A    between atoms: C9_11  and  C10_12 
REMARK    2  A    between atoms: C10_12  and  C11_13 
ROOT
HETATM    1  C1  UNL     1      22.622  -0.857  55.007  1.00  0.00     0.018 C 
HETATM    2  C2  UNL     1      21.767  -0.425  54.255  1.00  0.00    -0.075 C 
HETATM    3  C3  UNL     1      20.739   0.067  53.356  1.00  0.00     0.047 A 
HETATM    4  C4  UNL     1      19.659  -0.816  53.232  1.00  0.00     0.023 A 
HETATM    5  C5  UNL     1      18.630  -0.438  52.419  1.00  0.00     0.004 A 
HETATM    6  C6  UNL     1      18.706   0.772  51.777  1.00  0.00     0.033 A 
HETATM    7  C7  UNL     1      19.772   1.626  51.908  1.00  0.00     0.077 A 
HETATM    8  C8  UNL     1      20.818   1.303  52.698  1.00  0.00     0.094 A 
HETATM    9  N1  UNL     1      22.039   1.886  53.062  1.00  0.00    -0.297 N 
HETATM   10  N2  UNL     1      23.294   2.157  52.594  1.00  0.00    -0.304 N 
HETATM   11  C9  UNL     1      24.574   2.437  52.119  1.00  0.00     0.030 C 
HETATM   12  C17 UNL     1      25.029   2.835  50.973  1.00  0.00     0.028 C 
HETATM   13  C18 UNL     1      24.700   3.213  49.628  1.00  0.00     0.021 C 
HETATM   14  C19 UNL     1      23.518   3.269  49.070  1.00  0.00     0.118 C 
HETATM   15  N3  UNL     1      22.145   3.037  49.397  1.00  0.00    -0.255 NA
HETATM   16  C20 UNL     1      21.436   4.048  49.838  1.00  0.00     0.222 C 
HETATM   17  N4  UNL     1      20.173   3.438  50.044  1.00  0.00    -0.294 N 
HETATM   18  N5  UNL     1      19.612   2.806  51.149  1.00  0.00    -0.298 N 
HETATM   19  H5  UNL     1      21.990   2.216  54.044  1.00  0.00     0.187 HD
HETATM   20  H6  UNL     1      23.311   1.217  52.092  1.00  0.00     0.186 HD
HETATM   21  H16 UNL     1      19.606   3.511  49.172  1.00  0.00     0.187 HD
HETATM   22  H17 UNL     1      18.822   3.363  51.545  1.00  0.00     0.187 HD
ENDROOT
BRANCH  11  23
HETATM   23  C10 UNL     1      25.392   2.157  53.325  1.00  0.00     0.099 C 
BRANCH  23  24
HETATM   24  C11 UNL     1      26.118   0.857  53.207  1.00  0.00    -0.031 A 
HETATM   25  C12 UNL     1      25.666  -0.407  52.957  1.00  0.00     0.011 A 
HETATM   26  C13 UNL     1      26.550  -1.453  52.903  1.00  0.00     0.024 A 
HETATM   27  C14 UNL     1      27.910  -1.299  53.092  1.00  0.00     0.035 A 
HETATM   28 CL1  UNL     1      28.919  -2.727  52.995  1.00  0.00    -0.084 Cl
HETATM   29  C15 UNL     1      28.360  -0.017  53.344  1.00  0.00     0.048 A 
HETATM   30  C16 UNL     1      27.488   1.052  53.403  1.00  0.00     0.042 A 
HETATM   31 CL2  UNL     1      28.277   2.584  53.734  1.00  0.00    -0.084 Cl
ENDBRANCH  23  24
ENDBRANCH  11  23
TORSDOF 2
ENDMDL
MODEL 2
REMARK VINA RESULT:      -9.3      1.589      1.899
REMARK  2 active torsions:
REMARK  status: ('A' for Active; 'I' for Inactive)
REMARK    1  A    between atoms: C9_11  and  C10_12 
REMARK    2  A    between atoms: C10_12  and  C11_13 
ROOT
HETATM    1  C1  UNL     1      21.543  -0.388  54.808  1.00  0.00     0.018 C 
HETATM    2  C2  UNL     1      20.619  -0.287  54.020  1.00  0.00    -0.075 C 
HETATM    3  C3  UNL     1      19.513  -0.190  53.084  1.00  0.00     0.047 A 
HETATM    4  C4  UNL     1      18.580  -1.223  53.240  1.00  0.00     0.023 A 
HETATM    5  C5  UNL     1      17.493  -1.214  52.415  1.00  0.00     0.004 A 
HETATM    6  C6  UNL     1      17.372  -0.206  51.492  1.00  0.00     0.033 A 
HETATM    7  C7  UNL     1      18.296   0.799  51.353  1.00  0.00     0.077 A 
HETATM    8  C8  UNL     1      19.391   0.839  52.140  1.00  0.00     0.094 A 
HETATM    9  N1  UNL     1      20.513   1.665  52.283  1.00  0.00    -0.297 N 
HETATM   10  N2  UNL     1      21.705   1.989  51.696  1.00  0.00    -0.304 N 
HETATM   11  C9  UNL     1      22.919   2.322  51.098  1.00  0.00     0.030 C 
HETATM   12  C17 UNL     1      23.289   2.482  49.868  1.00  0.00     0.028 C 
HETATM   13  C18 UNL     1      22.884   2.458  48.490  1.00  0.00     0.021 C 
HETATM   14  C19 UNL     1      21.699   2.201  48.000  1.00  0.00     0.118 C 
HETATM   15  N3  UNL     1      20.383   1.863  48.447  1.00  0.00    -0.255 NA
HETATM   16  C20 UNL     1      19.535   2.838  48.664  1.00  0.00     0.222 C 
HETATM   17  N4  UNL     1      18.383   2.123  49.082  1.00  0.00    -0.294 N 
HETATM   18  N5  UNL     1      17.944   1.714  50.336  1.00  0.00    -0.298 N 
HETATM   19  H5  UNL     1      20.430   2.220  53.155  1.00  0.00     0.187 HD
HETATM   20  H6  UNL     1      21.858   0.966  51.440  1.00  0.00     0.186 HD
HETATM   21  H16 UNL     1      17.798   1.892  48.250  1.00  0.00     0.187 HD
HETATM   22  H17 UNL     1      17.084   2.232  50.625  1.00  0.00     0.187 HD
ENDROOT
BRANCH  11  23
HETATM   23  C10 UNL     1      23.789   2.476  52.291  1.00  0.00     0.099 C 
BRANCH  23  24
HETATM   24  C11 UNL     1      24.636   1.266  52.512  1.00  0.00    -0.031 A 
HETATM   25  C12 UNL     1      24.367   0.078  53.129  1.00  0.00     0.011 A 
HETATM   26  C13 UNL     1      25.334  -0.890  53.207  1.00  0.00     0.024 A 
HETATM   27  C14 UNL     1      26.602  -0.729  52.682  1.00  0.00     0.035 A 
HETATM   28 CL1  UNL     1      27.736  -2.053  52.856  1.00  0.00    -0.084 Cl
HETATM   29  C15 UNL     1      26.867   0.474  52.058  1.00  0.00     0.048 A 
HETATM   30  C16 UNL     1      25.909   1.464  51.968  1.00  0.00     0.042 A 
HETATM   31 CL2  UNL     1      26.463   2.905  51.135  1.00  0.00    -0.084 Cl
ENDBRANCH  23  24
ENDBRANCH  11  23
TORSDOF 2
ENDMDL
MODEL 3
REMARK VINA RESULT:      -9.1      2.955      5.950
REMARK  2 active torsions:
REMARK  status: ('A' for Active; 'I' for Inactive)
REMARK    1  A    between atoms: C9_11  and  C10_12 
REMARK    2  A    between atoms: C10_12  and  C11_13 
ROOT
HETATM    1  C1  UNL     1      21.408   2.813  50.609  1.00  0.00     0.018 C 
HETATM    2  C2  UNL     1      21.596   2.057  51.545  1.00  0.00    -0.075 C 
HETATM    3  C3  UNL     1      21.800   1.166  52.673  1.00  0.00     0.047 A 
HETATM    4  C4  UNL     1      20.672   1.069  53.499  1.00  0.00     0.023 A 
HETATM    5  C5  UNL     1      20.759   0.243  54.581  1.00  0.00     0.004 A 
HETATM    6  C6  UNL     1      21.928  -0.441  54.799  1.00  0.00     0.033 A 
HETATM    7  C7  UNL     1      23.024  -0.334  53.981  1.00  0.00     0.077 A 
HETATM    8  C8  UNL     1      22.996   0.469  52.897  1.00  0.00     0.094 A 
HETATM    9  N1  UNL     1      23.881   0.832  51.874  1.00  0.00    -0.297 N 
HETATM   10  N2  UNL     1      24.991   1.587  51.616  1.00  0.00    -0.304 N 
HETATM   11  C9  UNL     1      26.123   2.356  51.350  1.00  0.00     0.030 C 
HETATM   12  C17 UNL     1      27.210   2.594  52.013  1.00  0.00     0.028 C 
HETATM   13  C18 UNL     1      27.948   2.345  53.219  1.00  0.00     0.021 C 
HETATM   14  C19 UNL     1      27.607   1.594  54.234  1.00  0.00     0.118 C 
HETATM   15  N3  UNL     1      26.529   0.755  54.658  1.00  0.00    -0.255 NA
HETATM   16  C20 UNL     1      26.592  -0.523  54.373  1.00  0.00     0.222 C 
HETATM   17  N4  UNL     1      25.382  -0.998  54.939  1.00  0.00    -0.294 N 
HETATM   18  N5  UNL     1      24.101  -1.138  54.417  1.00  0.00    -0.298 N 
HETATM   19  H5  UNL     1      23.587   0.389  50.983  1.00  0.00     0.187 HD
HETATM   20  H6  UNL     1      24.621   2.351  52.260  1.00  0.00     0.186 HD
HETATM   21  H16 UNL     1      25.550  -1.282  55.929  1.00  0.00     0.187 HD
HETATM   22  H17 UNL     1      23.838  -2.144  54.318  1.00  0.00     0.187 HD
ENDROOT
BRANCH  11  23
HETATM   23  C10 UNL     1      25.791   2.897  50.008  1.00  0.00     0.099 C 
BRANCH  23  24
HETATM   24  C11 UNL     1      25.373   4.329  50.082  1.00  0.00    -0.031 A 
HETATM   25  C12 UNL     1      24.294   4.922  50.672  1.00  0.00     0.011 A 
HETATM   26  C13 UNL     1      24.130   6.281  50.592  1.00  0.00     0.024 A 
HETATM   27  C14 UNL     1      25.017   7.107  49.930  1.00  0.00     0.035 A 
HETATM   28 CL1  UNL     1      24.678   8.826  49.909  1.00  0.00    -0.084 Cl
HETATM   29  C15 UNL     1      26.106   6.500  49.336  1.00  0.00     0.048 A 
HETATM   30  C16 UNL     1      26.293   5.133  49.404  1.00  0.00     0.042 A 
HETATM   31 CL2  UNL     1      27.740   4.580  48.581  1.00  0.00    -0.084 Cl
ENDBRANCH  23  24
ENDBRANCH  11  23
TORSDOF 2
ENDMDL
MODEL 4
REMARK VINA RESULT:      -8.9      1.849      4.129
REMARK  2 active torsions:
REMARK  status: ('A' for Active; 'I' for Inactive)
REMARK    1  A    between atoms: C9_11  and  C10_12 
REMARK    2  A    between atoms: C10_12  and  C11_13 
ROOT
HETATM    1  C1  UNL     1      24.139   3.919  50.638  1.00  0.00     0.018 C 
HETATM    2  C2  UNL     1      23.066   3.477  51.007  1.00  0.00    -0.075 C 
HETATM    3  C3  UNL     1      21.778   2.975  51.451  1.00  0.00     0.047 A 
HETATM    4  C4  UNL     1      20.780   3.958  51.443  1.00  0.00     0.023 A 
HETATM    5  C5  UNL     1      19.527   3.581  51.831  1.00  0.00     0.004 A 
HETATM    6  C6  UNL     1      19.314   2.277  52.200  1.00  0.00     0.033 A 
HETATM    7  C7  UNL     1      20.303   1.326  52.203  1.00  0.00     0.077 A 
HETATM    8  C8  UNL     1      21.561   1.643  51.831  1.00  0.00     0.094 A 
HETATM    9  N1  UNL     1      22.788   0.977  51.718  1.00  0.00    -0.297 N 
HETATM   10  N2  UNL     1      23.817   0.463  52.458  1.00  0.00    -0.304 N 
HETATM   11  C9  UNL     1      24.866  -0.064  53.209  1.00  0.00     0.030 C 
HETATM   12  C17 UNL     1      24.918  -0.715  54.327  1.00  0.00     0.028 C 
HETATM   13  C18 UNL     1      24.166  -1.279  55.413  1.00  0.00     0.021 C 
HETATM   14  C19 UNL     1      22.869  -1.276  55.585  1.00  0.00     0.118 C 
HETATM   15  N3  UNL     1      21.682  -0.810  54.936  1.00  0.00    -0.255 NA
HETATM   16  C20 UNL     1      21.071  -1.623  54.110  1.00  0.00     0.222 C 
HETATM   17  N4  UNL     1      19.980  -0.825  53.683  1.00  0.00    -0.294 N 
HETATM   18  N5  UNL     1      19.832   0.062  52.622  1.00  0.00    -0.298 N 
HETATM   19  H5  UNL     1      23.018   0.835  50.716  1.00  0.00     0.187 HD
HETATM   20  H6  UNL     1      23.748   1.289  53.128  1.00  0.00     0.186 HD
HETATM   21  H16 UNL     1      19.169  -0.975  54.322  1.00  0.00     0.187 HD
HETATM   22  H17 UNL     1      19.162  -0.306  51.909  1.00  0.00     0.187 HD
ENDROOT
BRANCH  11  23
HETATM   23  C10 UNL     1      26.032   0.314  52.373  1.00  0.00     0.099 C 
BRANCH  23  24
HETATM   24  C11 UNL     1      27.274  -0.392  52.811  1.00  0.00    -0.031 A 
HETATM   25  C12 UNL     1      27.637  -1.705  52.734  1.00  0.00     0.011 A 
HETATM   26  C13 UNL     1      28.852  -2.110  53.222  1.00  0.00     0.024 A 
HETATM   27  C14 UNL     1      29.756  -1.243  53.803  1.00  0.00     0.035 A 
HETATM   28 CL1  UNL     1      31.271  -1.903  54.383  1.00  0.00    -0.084 Cl
HETATM   29  C15 UNL     1      29.382   0.085  53.877  1.00  0.00     0.048 A 
HETATM   30  C16 UNL     1      28.163   0.517  53.392  1.00  0.00     0.042 A 
HETATM   31 CL2  UNL     1      27.898   2.240  53.590  1.00  0.00    -0.084 Cl
ENDBRANCH  23  24
ENDBRANCH  11  23
TORSDOF 2
ENDMDL
MODEL 5
REMARK VINA RESULT:      -8.8      1.723      4.525
REMARK  2 active torsions:
REMARK  status: ('A' for Active; 'I' for Inactive)
REMARK    1  A    between atoms: C9_11  and  C10_12 
REMARK    2  A    between atoms: C10_12  and  C11_13 
ROOT
HETATM    1  C1  UNL     1      25.539   3.808  50.526  1.00  0.00     0.018 C 
HETATM    2  C2  UNL     1      24.361   3.692  50.810  1.00  0.00    -0.075 C 
HETATM    3  C3  UNL     1      22.955   3.577  51.154  1.00  0.00     0.047 A 
HETATM    4  C4  UNL     1      22.287   4.808  51.124  1.00  0.00     0.023 A 
HETATM    5  C5  UNL     1      20.955   4.804  51.419  1.00  0.00     0.004 A 
HETATM    6  C6  UNL     1      20.348   3.612  51.722  1.00  0.00     0.033 A 
HETATM    7  C7  UNL     1      21.017   2.414  51.748  1.00  0.00     0.077 A 
HETATM    8  C8  UNL     1      22.336   2.359  51.467  1.00  0.00     0.094 A 
HETATM    9  N1  UNL     1      23.323   1.367  51.403  1.00  0.00    -0.297 N 
HETATM   10  N2  UNL     1      24.103   0.560  52.183  1.00  0.00    -0.304 N 
HETATM   11  C9  UNL     1      24.900  -0.264  52.976  1.00  0.00     0.030 C 
HETATM   12  C17 UNL     1      24.682  -0.926  54.068  1.00  0.00     0.028 C 
HETATM   13  C18 UNL     1      23.725  -1.267  55.082  1.00  0.00     0.021 C 
HETATM   14  C19 UNL     1      22.475  -0.890  55.174  1.00  0.00     0.118 C 
HETATM   15  N3  UNL     1      21.523  -0.086  54.472  1.00  0.00    -0.255 NA
HETATM   16  C20 UNL     1      20.762  -0.669  53.578  1.00  0.00     0.222 C 
HETATM   17  N4  UNL     1      19.982   0.422  53.118  1.00  0.00    -0.294 N 
HETATM   18  N5  UNL     1      20.172   1.334  52.086  1.00  0.00    -0.298 N 
HETATM   19  H5  UNL     1      23.572   1.185  50.412  1.00  0.00     0.187 HD
HETATM   20  H6  UNL     1      24.230   1.356  52.880  1.00  0.00     0.186 HD
HETATM   21  H16 UNL     1      19.119   0.501  53.699  1.00  0.00     0.187 HD
HETATM   22  H17 UNL     1      19.476   1.192  51.319  1.00  0.00     0.187 HD
ENDROOT
BRANCH  11  23
HETATM   23  C10 UNL     1      26.181  -0.226  52.228  1.00  0.00     0.099 C 
BRANCH  23  24
HETATM   24  C11 UNL     1      27.201   0.612  52.930  1.00  0.00    -0.031 A 
HETATM   25  C12 UNL     1      27.251   1.954  53.171  1.00  0.00     0.011 A 
HETATM   26  C13 UNL     1      28.318   2.490  53.845  1.00  0.00     0.024 A 
HETATM   27  C14 UNL     1      29.375   1.730  54.306  1.00  0.00     0.035 A 
HETATM   28 CL1  UNL     1      30.671   2.552  55.150  1.00  0.00    -0.084 Cl
HETATM   29  C15 UNL     1      29.317   0.372  54.058  1.00  0.00     0.048 A 
HETATM   30  C16 UNL     1      28.252  -0.191  53.382  1.00  0.00     0.042 A 
HETATM   31 CL2  UNL     1      28.387  -1.928  53.180  1.00  0.00    -0.084 Cl
ENDBRANCH  23  24
ENDBRANCH  11  23
TORSDOF 2
ENDMDL
MODEL 6
REMARK VINA RESULT:      -8.7      2.781      5.178
REMARK  2 active torsions:
REMARK  status: ('A' for Active; 'I' for Inactive)
REMARK    1  A    between atoms: C9_11  and  C10_12 
REMARK    2  A    between atoms: C10_12  and  C11_13 
ROOT
HETATM    1  C1  UNL     1      26.169   0.714  53.220  1.00  0.00     0.018 C 
HETATM    2  C2  UNL     1      24.978   0.500  53.360  1.00  0.00    -0.075 C 
HETATM    3  C3  UNL     1      23.564   0.222  53.533  1.00  0.00     0.047 A 
HETATM    4  C4  UNL     1      23.327  -0.913  54.320  1.00  0.00     0.023 A 
HETATM    5  C5  UNL     1      22.026  -1.251  54.554  1.00  0.00     0.004 A 
HETATM    6  C6  UNL     1      21.033  -0.472  54.016  1.00  0.00     0.033 A 
HETATM    7  C7  UNL     1      21.282   0.636  53.247  1.00  0.00     0.077 A 
HETATM    8  C8  UNL     1      22.550   1.017  52.981  1.00  0.00     0.094 A 
HETATM    9  N1  UNL     1      23.176   2.041  52.258  1.00  0.00    -0.297 N 
HETATM   10  N2  UNL     1      23.460   2.455  50.987  1.00  0.00    -0.304 N 
HETATM   11  C9  UNL     1      23.749   2.881  49.692  1.00  0.00     0.030 C 
HETATM   12  C17 UNL     1      23.081   2.870  48.583  1.00  0.00     0.028 C 
HETATM   13  C18 UNL     1      21.845   2.516  47.941  1.00  0.00     0.021 C 
HETATM   14  C19 UNL     1      20.786   1.966  48.475  1.00  0.00     0.118 C 
HETATM   15  N3  UNL     1      20.324   1.489  49.742  1.00  0.00    -0.255 NA
HETATM   16  C20 UNL     1      19.668   2.321  50.513  1.00  0.00     0.222 C 
HETATM   17  N4  UNL     1      19.391   1.505  51.638  1.00  0.00    -0.294 N 
HETATM   18  N5  UNL     1      20.095   1.267  52.813  1.00  0.00    -0.298 N 
HETATM   19  H5  UNL     1      23.595   2.726  52.915  1.00  0.00     0.187 HD
HETATM   20  H6  UNL     1      23.644   1.446  50.699  1.00  0.00     0.186 HD
HETATM   21  H16 UNL     1      18.477   1.022  51.500  1.00  0.00     0.187 HD
HETATM   22  H17 UNL     1      19.601   1.669  53.641  1.00  0.00     0.187 HD
ENDROOT
BRANCH  11  23
HETATM   23  C10 UNL     1      25.126   3.407  49.867  1.00  0.00     0.099 C 
BRANCH  23  24
HETATM   24  C11 UNL     1      25.136   4.898  49.958  1.00  0.00    -0.031 A 
HETATM   25  C12 UNL     1      24.242   5.773  50.507  1.00  0.00     0.011 A 
HETATM   26  C13 UNL     1      24.483   7.121  50.455  1.00  0.00     0.024 A 
HETATM   27  C14 UNL     1      25.608   7.662  49.865  1.00  0.00     0.035 A 
HETATM   28 CL1  UNL     1      25.782   9.405  49.873  1.00  0.00    -0.084 Cl
HETATM   29  C15 UNL     1      26.508   6.771  49.313  1.00  0.00     0.048 A 
HETATM   30  C16 UNL     1      26.287   5.408  49.352  1.00  0.00     0.042 A 
HETATM   31 CL2  UNL     1      27.559   4.469  48.592  1.00  0.00    -0.084 Cl
ENDBRANCH  23  24
ENDBRANCH  11  23
TORSDOF 2
ENDMDL
MODEL 7
REMARK VINA RESULT:      -8.7      3.164      6.995
REMARK  2 active torsions:
REMARK  status: ('A' for Active; 'I' for Inactive)
REMARK    1  A    between atoms: C9_11  and  C10_12 
REMARK    2  A    between atoms: C10_12  and  C11_13 
ROOT
HETATM    1  C1  UNL     1      25.168   3.019  50.515  1.00  0.00     0.018 C 
HETATM    2  C2  UNL     1      25.467   2.116  51.276  1.00  0.00    -0.075 C 
HETATM    3  C3  UNL     1      25.839   1.030  52.165  1.00  0.00     0.047 A 
HETATM    4  C4  UNL     1      27.048   0.423  51.804  1.00  0.00     0.023 A 
HETATM    5  C5  UNL     1      27.493  -0.601  52.588  1.00  0.00     0.004 A 
HETATM    6  C6  UNL     1      26.744  -0.975  53.675  1.00  0.00     0.033 A 
HETATM    7  C7  UNL     1      25.561  -0.370  54.015  1.00  0.00     0.077 A 
HETATM    8  C8  UNL     1      25.072   0.647  53.274  1.00  0.00     0.094 A 
HETATM    9  N1  UNL     1      23.940   1.473  53.298  1.00  0.00    -0.297 N 
HETATM   10  N2  UNL     1      22.598   1.482  53.043  1.00  0.00    -0.304 N 
HETATM   11  C9  UNL     1      21.228   1.494  52.784  1.00  0.00     0.030 C 
HETATM   12  C17 UNL     1      20.278   0.637  52.987  1.00  0.00     0.028 C 
HETATM   13  C18 UNL     1      19.935  -0.661  53.496  1.00  0.00     0.021 C 
HETATM   14  C19 UNL     1      20.724  -1.549  54.044  1.00  0.00     0.118 C 
HETATM   15  N3  UNL     1      22.102  -1.721  54.387  1.00  0.00    -0.255 NA
HETATM   16  C20 UNL     1      22.487  -1.368  55.589  1.00  0.00     0.222 C 
HETATM   17  N4  UNL     1      23.869  -1.680  55.545  1.00  0.00    -0.294 N 
HETATM   18  N5  UNL     1      24.982  -0.934  55.174  1.00  0.00    -0.298 N 
HETATM   19  H5  UNL     1      24.211   2.429  53.598  1.00  0.00     0.187 HD
HETATM   20  H6  UNL     1      22.755   0.864  52.189  1.00  0.00     0.186 HD
HETATM   21  H16 UNL     1      24.013  -2.663  55.864  1.00  0.00     0.187 HD
HETATM   22  H17 UNL     1      25.591  -0.724  55.996  1.00  0.00     0.187 HD
ENDROOT
BRANCH  11  23
HETATM   23  C10 UNL     1      21.067   2.835  52.168  1.00  0.00     0.099 C 
BRANCH  23  24
HETATM   24  C11 UNL     1      21.295   2.791  50.692  1.00  0.00    -0.031 A 
HETATM   25  C12 UNL     1      21.323   1.745  49.816  1.00  0.00     0.011 A 
HETATM   26  C13 UNL     1      21.563   1.971  48.485  1.00  0.00     0.024 A 
HETATM   27  C14 UNL     1      21.784   3.231  47.965  1.00  0.00     0.035 A 
HETATM   28 CL1  UNL     1      22.079   3.368  46.244  1.00  0.00    -0.084 Cl
HETATM   29  C15 UNL     1      21.754   4.285  48.857  1.00  0.00     0.048 A 
HETATM   30  C16 UNL     1      21.515   4.082  50.202  1.00  0.00     0.042 A 
HETATM   31 CL2  UNL     1      21.522   5.559  51.148  1.00  0.00    -0.084 Cl
ENDBRANCH  23  24
ENDBRANCH  11  23
TORSDOF 2
ENDMDL
MODEL 8
REMARK VINA RESULT:      -8.7      1.693      4.608
REMARK  2 active torsions:
REMARK  status: ('A' for Active; 'I' for Inactive)
REMARK    1  A    between atoms: C9_11  and  C10_12 
REMARK    2  A    between atoms: C10_12  and  C11_13 
ROOT
HETATM    1  C1  UNL     1      26.040   5.621  49.653  1.00  0.00     0.018 C 
HETATM    2  C2  UNL     1      24.980   5.277  49.161  1.00  0.00    -0.075 C 
HETATM    3  C3  UNL     1      23.711   4.891  48.572  1.00  0.00     0.047 A 
HETATM    4  C4  UNL     1      23.124   5.921  47.825  1.00  0.00     0.023 A 
HETATM    5  C5  UNL     1      21.933   5.653  47.217  1.00  0.00     0.004 A 
HETATM    6  C6  UNL     1      21.381   4.405  47.365  1.00  0.00     0.033 A 
HETATM    7  C7  UNL     1      21.968   3.407  48.101  1.00  0.00     0.077 A 
HETATM    8  C8  UNL     1      23.146   3.617  48.725  1.00  0.00     0.094 A 
HETATM    9  N1  UNL     1      24.013   2.878  49.540  1.00  0.00    -0.297 N 
HETATM   10  N2  UNL     1      24.156   2.385  50.807  1.00  0.00    -0.304 N 
HETATM   11  C9  UNL     1      24.303   1.879  52.098  1.00  0.00     0.030 C 
HETATM   12  C17 UNL     1      23.480   1.339  52.939  1.00  0.00     0.028 C 
HETATM   13  C18 UNL     1      22.126   0.928  53.183  1.00  0.00     0.021 C 
HETATM   14  C19 UNL     1      21.097   1.018  52.381  1.00  0.00     0.118 C 
HETATM   15  N3  UNL     1      20.775   1.481  51.066  1.00  0.00    -0.255 NA
HETATM   16  C20 UNL     1      20.841   0.624  50.077  1.00  0.00     0.222 C 
HETATM   17  N4  UNL     1      20.464   1.435  48.976  1.00  0.00    -0.294 N 
HETATM   18  N5  UNL     1      21.206   2.218  48.099  1.00  0.00    -0.298 N 
HETATM   19  H5  UNL     1      24.866   2.626  49.006  1.00  0.00     0.187 HD
HETATM   20  H6  UNL     1      23.725   3.275  51.203  1.00  0.00     0.186 HD
HETATM   21  H16 UNL     1      19.430   1.392  48.852  1.00  0.00     0.187 HD
HETATM   22  H17 UNL     1      21.200   1.818  47.133  1.00  0.00     0.187 HD
ENDROOT
BRANCH  11  23
HETATM   23  C10 UNL     1      25.751   2.109  52.329  1.00  0.00     0.099 C 
BRANCH  23  24
HETATM   24  C11 UNL     1      26.487   0.823  52.519  1.00  0.00    -0.031 A 
HETATM   25  C12 UNL     1      26.138  -0.465  52.233  1.00  0.00     0.011 A 
HETATM   26  C13 UNL     1      27.005  -1.490  52.513  1.00  0.00     0.024 A 
HETATM   27  C14 UNL     1      28.246  -1.288  53.084  1.00  0.00     0.035 A 
HETATM   28 CL1  UNL     1      29.248  -2.693  53.386  1.00  0.00    -0.084 Cl
HETATM   29  C15 UNL     1      28.593   0.018  53.370  1.00  0.00     0.048 A 
HETATM   30  C16 UNL     1      27.737   1.066  53.097  1.00  0.00     0.042 A 
HETATM   31 CL2  UNL     1      28.382   2.635  53.542  1.00  0.00    -0.084 Cl
ENDBRANCH  23  24
ENDBRANCH  11  23
TORSDOF 2
ENDMDL
MODEL 9
REMARK VINA RESULT:      -8.4      3.671      6.958
REMARK  2 active torsions:
REMARK  status: ('A' for Active; 'I' for Inactive)
REMARK    1  A    between atoms: C9_11  and  C10_12 
REMARK    2  A    between atoms: C10_12  and  C11_13 
ROOT
HETATM    1  C1  UNL     1      24.218  -1.080  54.735  1.00  0.00     0.018 C 
HETATM    2  C2  UNL     1      25.006  -0.297  54.235  1.00  0.00    -0.075 C 
HETATM    3  C3  UNL     1      25.959   0.636  53.661  1.00  0.00     0.047 A 
HETATM    4  C4  UNL     1      27.191   0.632  54.329  1.00  0.00     0.023 A 
HETATM    5  C5  UNL     1      28.162   1.466  53.855  1.00  0.00     0.004 A 
HETATM    6  C6  UNL     1      27.885   2.250  52.764  1.00  0.00     0.033 A 
HETATM    7  C7  UNL     1      26.673   2.242  52.122  1.00  0.00     0.077 A 
HETATM    8  C8  UNL     1      25.675   1.439  52.548  1.00  0.00     0.094 A 
HETATM    9  N1  UNL     1      24.352   1.171  52.173  1.00  0.00    -0.297 N 
HETATM   10  N2  UNL     1      23.089   1.691  52.204  1.00  0.00    -0.304 N 
HETATM   11  C9  UNL     1      21.799   2.220  52.232  1.00  0.00     0.030 C 
HETATM   12  C17 UNL     1      21.325   3.413  52.063  1.00  0.00     0.028 C 
HETATM   13  C18 UNL     1      21.632   4.788  51.786  1.00  0.00     0.021 C 
HETATM   14  C19 UNL     1      22.804   5.326  51.567  1.00  0.00     0.118 C 
HETATM   15  N3  UNL     1      24.182   4.949  51.491  1.00  0.00    -0.255 NA
HETATM   16  C20 UNL     1      24.667   4.620  50.319  1.00  0.00     0.222 C 
HETATM   17  N4  UNL     1      26.014   4.318  50.647  1.00  0.00    -0.294 N 
HETATM   18  N5  UNL     1      26.638   3.136  51.028  1.00  0.00    -0.298 N 
HETATM   19  H5  UNL     1      24.298   0.235  51.729  1.00  0.00     0.187 HD
HETATM   20  H6  UNL     1      23.271   2.076  53.181  1.00  0.00     0.186 HD
HETATM   21  H16 UNL     1      26.592   5.182  50.566  1.00  0.00     0.187 HD
HETATM   22  H17 UNL     1      27.292   2.795  50.288  1.00  0.00     0.187 HD
ENDROOT
BRANCH  11  23
HETATM   23  C10 UNL     1      21.000   1.004  52.524  1.00  0.00     0.099 C 
BRANCH  23  24
HETATM   24  C11 UNL     1      19.863   0.851  51.567  1.00  0.00    -0.031 A 
HETATM   25  C12 UNL     1      19.603   1.462  50.374  1.00  0.00     0.011 A 
HETATM   26  C13 UNL     1      18.467   1.146  49.675  1.00  0.00     0.024 A 
HETATM   27  C14 UNL     1      17.544   0.219  50.120  1.00  0.00     0.035 A 
HETATM   28 CL1  UNL     1      16.137  -0.083  49.122  1.00  0.00    -0.084 Cl
HETATM   29  C15 UNL     1      17.815  -0.395  51.328  1.00  0.00     0.048 A 
HETATM   30  C16 UNL     1      18.953  -0.093  52.049  1.00  0.00     0.042 A 
HETATM   31 CL2  UNL     1      19.092  -0.991  53.550  1.00  0.00    -0.084 Cl
ENDBRANCH  23  24
ENDBRANCH  11  23
TORSDOF 2
ENDMDL
