MODEL 1
REMARK VINA RESULT:      -9.5      0.000      0.000
REMARK  4 active torsions:
REMARK  status: ('A' for Active; 'I' for Inactive)
REMARK    1  A    between atoms: C2_2  and  C3_3 
REMARK    2  A    between atoms: C7_9  and  N3_10 
REMARK    3  A    between atoms: C17_20  and  N4_21 
REMARK       I    between atoms: N4_21  and  C18_22 
REMARK    4  A    between atoms: C18_22  and  C19_24 
ROOT
HETATM    1  C3  UNL     1      23.093   0.643  52.959  1.00  0.00    -0.023 A 
HETATM    2  C4  UNL     1      22.210   1.424  52.367  1.00  0.00    -0.020 A 
HETATM    3  C5  UNL     1      20.836   1.480  51.884  1.00  0.00     0.126 C 
HETATM    4  N1  UNL     1      20.065   2.483  52.141  1.00  0.00    -0.254 NA
HETATM    5  C6  UNL     1      18.738   2.495  51.650  1.00  0.00     0.228 C 
HETATM    6  N2  UNL     1      18.469   2.745  50.438  1.00  0.00    -0.247 NA
HETATM    7  C7  UNL     1      19.347   3.047  49.360  1.00  0.00     0.347 C 
HETATM    8  C8  UNL     1      20.631   3.723  49.729  1.00  0.00     0.066 C 
HETATM    9  C9  UNL     1      21.741   2.737  49.936  1.00  0.00    -0.014 C 
HETATM   10  C10 UNL     1      22.799   3.124  50.685  1.00  0.00    -0.068 C 
HETATM   11  C11 UNL     1      23.915   3.966  50.173  1.00  0.00     0.061 C 
HETATM   12  C12 UNL     1      23.634   4.494  48.813  1.00  0.00    -0.026 C 
HETATM   13  C13 UNL     1      22.438   4.543  48.189  1.00  0.00    -0.029 C 
HETATM   14  C14 UNL     1      21.086   4.733  48.731  1.00  0.00     0.039 C 
HETATM   15  C15 UNL     1      22.899   2.716  52.107  1.00  0.00     0.074 A 
HETATM   16  C16 UNL     1      24.254   2.549  52.625  1.00  0.00     0.017 A 
HETATM   17  C17 UNL     1      24.389   1.312  53.140  1.00  0.00     0.038 A 
ENDROOT
BRANCH  17  18
HETATM   18  N4  UNL     1      25.574   0.797  53.733  1.00  0.00    -0.325 N 
HETATM   19  C18 UNL     1      26.546  -0.088  53.252  1.00  0.00     0.247 C 
HETATM   20  O1  UNL     1      26.597  -0.649  52.146  1.00  0.00    -0.271 OA
HETATM   21  H21 UNL     1      25.731   1.158  54.716  1.00  0.00     0.169 HD
BRANCH  19  22
HETATM   22  C19 UNL     1      27.712  -0.485  54.069  1.00  0.00     0.203 C 
HETATM   23  C20 UNL     1      28.955  -0.744  53.261  1.00  0.00     0.215 C 
HETATM   24  O2  UNL     1      29.922   0.149  53.782  1.00  0.00    -0.301 OA
HETATM   25  C21 UNL     1      29.310   1.166  54.520  1.00  0.00     0.361 C 
HETATM   26  O3  UNL     1      29.572   2.347  54.872  1.00  0.00    -0.238 OA
HETATM   27  N5  UNL     1      28.048   0.619  54.947  1.00  0.00    -0.321 N 
HETATM   28  H25 UNL     1      27.402   0.891  55.739  1.00  0.00     0.165 HD
ENDBRANCH  19  22
ENDBRANCH  17  18
BRANCH   1  29
HETATM   29  C2  UNL     1      22.828  -0.723  53.389  1.00  0.00     0.037 C 
HETATM   30  C1  UNL     1      22.158  -0.899  54.701  1.00  0.00     0.010 C 
ENDBRANCH   1  29
BRANCH   7  31
HETATM   31  N3  UNL     1      19.590   1.803  48.613  1.00  0.00     0.103 N 
HETATM   32  H9  UNL     1      19.033   1.772  47.729  1.00  0.00     0.315 HD
HETATM   33  H10 UNL     1      19.466   0.978  49.207  1.00  0.00     0.315 HD
ENDBRANCH   7  31
TORSDOF 4
ENDMDL
MODEL 2
REMARK VINA RESULT:      -9.1      1.604      3.831
REMARK  4 active torsions:
REMARK  status: ('A' for Active; 'I' for Inactive)
REMARK    1  A    between atoms: C2_2  and  C3_3 
REMARK    2  A    between atoms: C7_9  and  N3_10 
REMARK    3  A    between atoms: C17_20  and  N4_21 
REMARK       I    between atoms: N4_21  and  C18_22 
REMARK    4  A    between atoms: C18_22  and  C19_24 
ROOT
HETATM    1  C3  UNL     1      23.402   1.470  52.275  1.00  0.00    -0.023 A 
HETATM    2  C4  UNL     1      22.235   1.310  51.679  1.00  0.00    -0.020 A 
HETATM    3  C5  UNL     1      21.222   1.998  50.891  1.00  0.00     0.126 C 
HETATM    4  N1  UNL     1      20.711   1.470  49.829  1.00  0.00    -0.254 NA
HETATM    5  C6  UNL     1      19.728   2.175  49.094  1.00  0.00     0.228 C 
HETATM    6  N2  UNL     1      18.527   2.266  49.489  1.00  0.00    -0.247 NA
HETATM    7  C7  UNL     1      17.916   1.736  50.659  1.00  0.00     0.347 C 
HETATM    8  C8  UNL     1      18.519   0.476  51.201  1.00  0.00     0.066 C 
HETATM    9  C9  UNL     1      19.548   0.759  52.253  1.00  0.00    -0.014 C 
HETATM   10  C10 UNL     1      20.473  -0.198  52.506  1.00  0.00    -0.068 C 
HETATM   11  C11 UNL     1      20.220  -1.391  53.360  1.00  0.00     0.061 C 
HETATM   12  C12 UNL     1      18.788  -1.512  53.736  1.00  0.00    -0.026 C 
HETATM   13  C13 UNL     1      17.739  -0.884  53.164  1.00  0.00    -0.029 C 
HETATM   14  C14 UNL     1      17.518  -0.471  51.771  1.00  0.00     0.039 C 
HETATM   15  C15 UNL     1      21.830  -0.100  51.918  1.00  0.00     0.074 A 
HETATM   16  C16 UNL     1      22.907  -0.689  52.710  1.00  0.00     0.017 A 
HETATM   17  C17 UNL     1      23.858   0.238  52.934  1.00  0.00     0.038 A 
ENDROOT
BRANCH  17  18
HETATM   18  N4  UNL     1      25.056   0.021  53.669  1.00  0.00    -0.325 N 
HETATM   19  C18 UNL     1      26.369  -0.230  53.255  1.00  0.00     0.247 C 
HETATM   20  O1  UNL     1      26.807  -0.323  52.097  1.00  0.00    -0.271 OA
HETATM   21  H21 UNL     1      24.907   0.060  54.717  1.00  0.00     0.169 HD
BRANCH  19  22
HETATM   22  C19 UNL     1      27.469  -0.425  54.223  1.00  0.00     0.203 C 
HETATM   23  C20 UNL     1      28.763  -0.855  53.588  1.00  0.00     0.215 C 
HETATM   24  O2  UNL     1      29.701   0.138  53.962  1.00  0.00    -0.301 OA
HETATM   25  C21 UNL     1      29.050   1.293  54.402  1.00  0.00     0.361 C 
HETATM   26  O3  UNL     1      29.301   2.524  54.495  1.00  0.00    -0.238 OA
HETATM   27  N5  UNL     1      27.755   0.852  54.849  1.00  0.00    -0.321 N 
HETATM   28  H25 UNL     1      27.056   1.294  55.509  1.00  0.00     0.165 HD
ENDBRANCH  19  22
ENDBRANCH  17  18
BRANCH   1  29
HETATM   29  C2  UNL     1      24.158   2.714  52.286  1.00  0.00     0.037 C 
HETATM   30  C1  UNL     1      25.105   2.937  51.166  1.00  0.00     0.010 C 
ENDBRANCH   1  29
BRANCH   7  31
HETATM   31  N3  UNL     1      17.890   2.799  51.676  1.00  0.00     0.103 N 
HETATM   32  H9  UNL     1      16.967   2.839  52.163  1.00  0.00     0.315 HD
HETATM   33  H10 UNL     1      18.190   3.698  51.287  1.00  0.00     0.315 HD
ENDBRANCH   7  31
TORSDOF 4
ENDMDL
MODEL 3
REMARK VINA RESULT:      -9.1      3.629      8.413
REMARK  4 active torsions:
REMARK  status: ('A' for Active; 'I' for Inactive)
REMARK    1  A    between atoms: C2_2  and  C3_3 
REMARK    2  A    between atoms: C7_9  and  N3_10 
REMARK    3  A    between atoms: C17_20  and  N4_21 
REMARK       I    between atoms: N4_21  and  C18_22 
REMARK    4  A    between atoms: C18_22  and  C19_24 
ROOT
HETATM    1  C3  UNL     1      25.899   2.970  50.406  1.00  0.00    -0.023 A 
HETATM    2  C4  UNL     1      26.289   2.533  51.589  1.00  0.00    -0.020 A 
HETATM    3  C5  UNL     1      27.457   2.125  52.357  1.00  0.00     0.126 C 
HETATM    4  N1  UNL     1      27.667   2.554  53.556  1.00  0.00    -0.254 NA
HETATM    5  C6  UNL     1      28.815   2.130  54.267  1.00  0.00     0.228 C 
HETATM    6  N2  UNL     1      28.898   0.978  54.787  1.00  0.00    -0.247 NA
HETATM    7  C7  UNL     1      27.952  -0.084  54.791  1.00  0.00     0.347 C 
HETATM    8  C8  UNL     1      26.511   0.321  54.717  1.00  0.00     0.066 C 
HETATM    9  C9  UNL     1      26.009   0.336  53.305  1.00  0.00    -0.014 C 
HETATM   10  C10 UNL     1      24.915   1.085  53.032  1.00  0.00    -0.068 C 
HETATM   11  C11 UNL     1      23.519   0.648  53.310  1.00  0.00     0.061 C 
HETATM   12  C12 UNL     1      23.477  -0.609  54.099  1.00  0.00    -0.026 C 
HETATM   13  C13 UNL     1      24.488  -1.167  54.798  1.00  0.00    -0.029 C 
HETATM   14  C14 UNL     1      25.603  -0.544  55.525  1.00  0.00     0.039 C 
HETATM   15  C15 UNL     1      25.062   2.429  52.423  1.00  0.00     0.074 A 
HETATM   16  C16 UNL     1      23.964   2.857  51.561  1.00  0.00     0.017 A 
HETATM   17  C17 UNL     1      24.447   3.186  50.347  1.00  0.00     0.038 A 
ENDROOT
BRANCH  17  18
HETATM   18  N4  UNL     1      23.666   3.647  49.252  1.00  0.00    -0.325 N 
HETATM   19  C18 UNL     1      23.412   4.937  48.770  1.00  0.00     0.247 C 
HETATM   20  O1  UNL     1      23.831   6.019  49.208  1.00  0.00    -0.271 OA
HETATM   21  H21 UNL     1      23.200   2.860  48.719  1.00  0.00     0.169 HD
BRANCH  19  22
HETATM   22  C19 UNL     1      22.550   5.173  47.592  1.00  0.00     0.203 C 
HETATM   23  C20 UNL     1      21.975   3.915  47.001  1.00  0.00     0.215 C 
HETATM   24  O2  UNL     1      20.572   4.098  47.047  1.00  0.00    -0.301 OA
HETATM   25  C21 UNL     1      20.235   5.121  47.936  1.00  0.00     0.361 C 
HETATM   26  O3  UNL     1      19.238   5.462  48.628  1.00  0.00    -0.238 OA
HETATM   27  N5  UNL     1      21.405   5.956  48.018  1.00  0.00    -0.321 N 
HETATM   28  H25 UNL     1      21.525   6.964  48.316  1.00  0.00     0.165 HD
ENDBRANCH  19  22
ENDBRANCH  17  18
BRANCH   1  29
HETATM   29  C2  UNL     1      26.792   3.213  49.282  1.00  0.00     0.037 C 
HETATM   30  C1  UNL     1      27.126   4.626  48.980  1.00  0.00     0.010 C 
ENDBRANCH   1  29
BRANCH   7  31
HETATM   31  N3  UNL     1      28.306  -1.010  53.705  1.00  0.00     0.103 N 
HETATM   32  H9  UNL     1      28.629  -1.931  54.076  1.00  0.00     0.315 HD
HETATM   33  H10 UNL     1      28.961  -0.580  53.043  1.00  0.00     0.315 HD
ENDBRANCH   7  31
TORSDOF 4
ENDMDL
MODEL 4
REMARK VINA RESULT:      -9.1      4.008      7.814
REMARK  4 active torsions:
REMARK  status: ('A' for Active; 'I' for Inactive)
REMARK    1  A    between atoms: C2_2  and  C3_3 
REMARK    2  A    between atoms: C7_9  and  N3_10 
REMARK    3  A    between atoms: C17_20  and  N4_21 
REMARK       I    between atoms: N4_21  and  C18_22 
REMARK    4  A    between atoms: C18_22  and  C19_24 
ROOT
HETATM    1  C3  UNL     1      21.724   0.262  53.202  1.00  0.00    -0.023 A 
HETATM    2  C4  UNL     1      22.992   0.376  52.855  1.00  0.00    -0.020 A 
HETATM    3  C5  UNL     1      24.355   0.254  53.353  1.00  0.00     0.126 C 
HETATM    4  N1  UNL     1      25.267  -0.378  52.692  1.00  0.00    -0.254 NA
HETATM    5  C6  UNL     1      26.579  -0.471  53.213  1.00  0.00     0.228 C 
HETATM    6  N2  UNL     1      27.389   0.503  53.178  1.00  0.00    -0.247 NA
HETATM    7  C7  UNL     1      27.207   1.814  52.658  1.00  0.00     0.347 C 
HETATM    8  C8  UNL     1      26.234   1.941  51.525  1.00  0.00     0.066 C 
HETATM    9  C9  UNL     1      24.859   2.287  52.008  1.00  0.00    -0.014 C 
HETATM   10  C10 UNL     1      23.814   2.001  51.196  1.00  0.00    -0.068 C 
HETATM   11  C11 UNL     1      23.403   2.848  50.043  1.00  0.00     0.061 C 
HETATM   12  C12 UNL     1      24.386   3.927  49.767  1.00  0.00    -0.026 C 
HETATM   13  C13 UNL     1      25.656   4.006  50.217  1.00  0.00    -0.029 C 
HETATM   14  C14 UNL     1      26.636   2.948  50.501  1.00  0.00     0.039 C 
HETATM   15  C15 UNL     1      23.001   0.782  51.425  1.00  0.00     0.074 A 
HETATM   16  C16 UNL     1      21.597   0.875  51.034  1.00  0.00     0.017 A 
HETATM   17  C17 UNL     1      20.816   0.566  52.087  1.00  0.00     0.038 A 
ENDROOT
BRANCH  17  18
HETATM   18  N4  UNL     1      19.394   0.550  52.075  1.00  0.00    -0.325 N 
HETATM   19  C18 UNL     1      18.472  -0.422  52.480  1.00  0.00     0.247 C 
HETATM   20  O1  UNL     1      18.697  -1.543  52.964  1.00  0.00    -0.271 OA
HETATM   21  H21 UNL     1      18.977   1.442  51.687  1.00  0.00     0.169 HD
BRANCH  19  22
HETATM   22  C19 UNL     1      17.014  -0.209  52.370  1.00  0.00     0.203 C 
HETATM   23  C20 UNL     1      16.483  -0.375  50.972  1.00  0.00     0.215 C 
HETATM   24  O2  UNL     1      15.504  -1.394  51.073  1.00  0.00    -0.301 OA
HETATM   25  C21 UNL     1      15.661  -2.117  52.257  1.00  0.00     0.361 C 
HETATM   26  O3  UNL     1      15.375  -3.265  52.692  1.00  0.00    -0.238 OA
HETATM   27  N5  UNL     1      16.345  -1.227  53.158  1.00  0.00    -0.321 N 
HETATM   28  H25 UNL     1      16.415  -1.219  54.214  1.00  0.00     0.165 HD
ENDBRANCH  19  22
ENDBRANCH  17  18
BRANCH   1  29
HETATM   29  C2  UNL     1      21.264  -0.120  54.530  1.00  0.00     0.037 C 
HETATM   30  C1  UNL     1      21.575  -1.499  54.980  1.00  0.00     0.010 C 
ENDBRANCH   1  29
BRANCH   7  31
HETATM   31  N3  UNL     1      26.847   2.698  53.777  1.00  0.00     0.103 N 
HETATM   32  H9  UNL     1      25.873   2.518  54.109  1.00  0.00     0.315 HD
HETATM   33  H10 UNL     1      27.030   3.681  53.553  1.00  0.00     0.315 HD
ENDBRANCH   7  31
TORSDOF 4
ENDMDL
MODEL 5
REMARK VINA RESULT:      -8.8      4.746      6.804
REMARK  4 active torsions:
REMARK  status: ('A' for Active; 'I' for Inactive)
REMARK    1  A    between atoms: C2_2  and  C3_3 
REMARK    2  A    between atoms: C7_9  and  N3_10 
REMARK    3  A    between atoms: C17_20  and  N4_21 
REMARK       I    between atoms: N4_21  and  C18_22 
REMARK    4  A    between atoms: C18_22  and  C19_24 
ROOT
HETATM    1  C3  UNL     1      25.346   5.387  48.916  1.00  0.00    -0.023 A 
HETATM    2  C4  UNL     1      24.628   4.330  49.249  1.00  0.00    -0.020 A 
HETATM    3  C5  UNL     1      23.265   3.829  49.353  1.00  0.00     0.126 C 
HETATM    4  N1  UNL     1      22.929   2.670  48.893  1.00  0.00    -0.254 NA
HETATM    5  C6  UNL     1      21.592   2.222  49.017  1.00  0.00     0.228 C 
HETATM    6  N2  UNL     1      21.122   1.797  50.114  1.00  0.00    -0.247 NA
HETATM    7  C7  UNL     1      21.754   1.672  51.382  1.00  0.00     0.347 C 
HETATM    8  C8  UNL     1      23.235   1.441  51.357  1.00  0.00     0.066 C 
HETATM    9  C9  UNL     1      24.001   2.725  51.459  1.00  0.00    -0.014 C 
HETATM   10  C10 UNL     1      25.278   2.736  51.010  1.00  0.00    -0.068 C 
HETATM   11  C11 UNL     1      26.435   2.218  51.790  1.00  0.00     0.061 C 
HETATM   12  C12 UNL     1      26.004   1.512  53.024  1.00  0.00    -0.026 C 
HETATM   13  C13 UNL     1      24.766   1.057  53.311  1.00  0.00    -0.029 C 
HETATM   14  C14 UNL     1      23.716   0.525  52.430  1.00  0.00     0.039 C 
HETATM   15  C15 UNL     1      25.595   3.281  49.668  1.00  0.00     0.074 A 
HETATM   16  C16 UNL     1      26.917   3.886  49.527  1.00  0.00     0.017 A 
HETATM   17  C17 UNL     1      26.787   5.149  49.077  1.00  0.00     0.038 A 
ENDROOT
BRANCH  17  18
HETATM   18  N4  UNL     1      27.864   6.042  48.821  1.00  0.00    -0.325 N 
HETATM   19  C18 UNL     1      29.150   5.826  48.314  1.00  0.00     0.247 C 
HETATM   20  O1  UNL     1      29.667   4.756  47.955  1.00  0.00    -0.271 OA
HETATM   21  H21 UNL     1      27.631   7.046  49.065  1.00  0.00     0.169 HD
BRANCH  19  22
HETATM   22  C19 UNL     1      30.113   6.932  48.133  1.00  0.00     0.203 C 
HETATM   23  C20 UNL     1      29.828   7.791  46.930  1.00  0.00     0.215 C 
HETATM   24  O2  UNL     1      29.667   9.100  47.446  1.00  0.00    -0.301 OA
HETATM   25  C21 UNL     1      29.432   9.064  48.822  1.00  0.00     0.361 C 
HETATM   26  O3  UNL     1      28.886   9.794  49.693  1.00  0.00    -0.238 OA
HETATM   27  N5  UNL     1      30.003   7.822  49.274  1.00  0.00    -0.321 N 
HETATM   28  H25 UNL     1      30.321   7.506  50.232  1.00  0.00     0.165 HD
ENDBRANCH  19  22
ENDBRANCH  17  18
BRANCH   1  29
HETATM   29  C2  UNL     1      24.788   6.646  48.445  1.00  0.00     0.037 C 
HETATM   30  C1  UNL     1      24.352   7.619  49.477  1.00  0.00     0.010 C 
ENDBRANCH   1  29
BRANCH   7  31
HETATM   31  N3  UNL     1      21.410   2.860  52.178  1.00  0.00     0.103 N 
HETATM   32  H9  UNL     1      21.828   3.727  51.773  1.00  0.00     0.315 HD
HETATM   33  H10 UNL     1      21.625   2.723  53.170  1.00  0.00     0.315 HD
ENDBRANCH   7  31
TORSDOF 4
ENDMDL
MODEL 6
REMARK VINA RESULT:      -8.7      7.203      9.029
REMARK  4 active torsions:
REMARK  status: ('A' for Active; 'I' for Inactive)
REMARK    1  A    between atoms: C2_2  and  C3_3 
REMARK    2  A    between atoms: C7_9  and  N3_10 
REMARK    3  A    between atoms: C17_20  and  N4_21 
REMARK       I    between atoms: N4_21  and  C18_22 
REMARK    4  A    between atoms: C18_22  and  C19_24 
ROOT
HETATM    1  C3  UNL     1      29.386   8.201  48.814  1.00  0.00    -0.023 A 
HETATM    2  C4  UNL     1      28.083   8.026  48.711  1.00  0.00    -0.020 A 
HETATM    3  C5  UNL     1      26.795   8.662  48.955  1.00  0.00     0.126 C 
HETATM    4  N1  UNL     1      25.858   8.664  48.067  1.00  0.00    -0.254 NA
HETATM    5  C6  UNL     1      24.622   9.293  48.347  1.00  0.00     0.228 C 
HETATM    6  N2  UNL     1      23.751   8.763  49.100  1.00  0.00    -0.247 NA
HETATM    7  C7  UNL     1      23.787   7.520  49.791  1.00  0.00     0.347 C 
HETATM    8  C8  UNL     1      24.615   6.442  49.160  1.00  0.00     0.066 C 
HETATM    9  C9  UNL     1      26.011   6.422  49.705  1.00  0.00    -0.014 C 
HETATM   10  C10 UNL     1      26.974   5.840  48.952  1.00  0.00    -0.068 C 
HETATM   11  C11 UNL     1      27.196   4.370  48.881  1.00  0.00     0.061 C 
HETATM   12  C12 UNL     1      26.120   3.611  49.567  1.00  0.00    -0.026 C 
HETATM   13  C13 UNL     1      24.906   4.071  49.936  1.00  0.00    -0.029 C 
HETATM   14  C14 UNL     1      24.036   5.077  49.310  1.00  0.00     0.039 C 
HETATM   15  C15 UNL     1      27.886   6.672  48.130  1.00  0.00     0.074 A 
HETATM   16  C16 UNL     1      29.227   6.131  47.929  1.00  0.00     0.017 A 
HETATM   17  C17 UNL     1      30.140   7.035  48.334  1.00  0.00     0.038 A 
ENDROOT
BRANCH  17  18
HETATM   18  N4  UNL     1      31.550   6.853  48.286  1.00  0.00    -0.325 N 
HETATM   19  C18 UNL     1      32.430   6.687  47.210  1.00  0.00     0.247 C 
HETATM   20  O1  UNL     1      32.168   6.662  45.997  1.00  0.00    -0.271 OA
HETATM   21  H21 UNL     1      31.995   6.843  49.247  1.00  0.00     0.169 HD
BRANCH  19  22
HETATM   22  C19 UNL     1      33.884   6.512  47.411  1.00  0.00     0.203 C 
HETATM   23  C20 UNL     1      34.238   5.851  48.715  1.00  0.00     0.215 C 
HETATM   24  O2  UNL     1      34.974   4.697  48.351  1.00  0.00    -0.301 OA
HETATM   25  C21 UNL     1      34.768   4.382  47.007  1.00  0.00     0.361 C 
HETATM   26  O3  UNL     1      34.833   3.362  46.269  1.00  0.00    -0.238 OA
HETATM   27  N5  UNL     1      34.380   5.619  46.381  1.00  0.00    -0.321 N 
HETATM   28  H25 UNL     1      34.409   5.930  45.370  1.00  0.00     0.165 HD
ENDBRANCH  19  22
ENDBRANCH  17  18
BRANCH   1  29
HETATM   29  C2  UNL     1      30.017   9.404  49.340  1.00  0.00     0.037 C 
HETATM   30  C1  UNL     1      30.537  10.380  48.351  1.00  0.00     0.010 C 
ENDBRANCH   1  29
BRANCH   7  31
HETATM   31  N3  UNL     1      24.213   7.784  51.174  1.00  0.00     0.103 N 
HETATM   32  H9  UNL     1      24.414   8.798  51.326  1.00  0.00     0.315 HD
HETATM   33  H10 UNL     1      24.979   7.165  51.456  1.00  0.00     0.315 HD
ENDBRANCH   7  31
TORSDOF 4
ENDMDL
MODEL 7
REMARK VINA RESULT:      -8.7      4.895      6.842
REMARK  4 active torsions:
REMARK  status: ('A' for Active; 'I' for Inactive)
REMARK    1  A    between atoms: C2_2  and  C3_3 
REMARK    2  A    between atoms: C7_9  and  N3_10 
REMARK    3  A    between atoms: C17_20  and  N4_21 
REMARK       I    between atoms: N4_21  and  C18_22 
REMARK    4  A    between atoms: C18_22  and  C19_24 
ROOT
HETATM    1  C3  UNL     1      25.738   6.045  48.820  1.00  0.00    -0.023 A 
HETATM    2  C4  UNL     1      24.915   5.057  49.117  1.00  0.00    -0.020 A 
HETATM    3  C5  UNL     1      23.509   4.720  49.292  1.00  0.00     0.126 C 
HETATM    4  N1  UNL     1      22.991   3.663  48.761  1.00  0.00    -0.254 NA
HETATM    5  C6  UNL     1      21.619   3.374  48.959  1.00  0.00     0.228 C 
HETATM    6  N2  UNL     1      21.180   2.902  50.049  1.00  0.00    -0.247 NA
HETATM    7  C7  UNL     1      21.883   2.574  51.242  1.00  0.00     0.347 C 
HETATM    8  C8  UNL     1      23.314   2.165  51.068  1.00  0.00     0.066 C 
HETATM    9  C9  UNL     1      24.247   3.328  51.219  1.00  0.00    -0.014 C 
HETATM   10  C10 UNL     1      25.478   3.226  50.665  1.00  0.00    -0.068 C 
HETATM   11  C11 UNL     1      26.612   2.494  51.293  1.00  0.00     0.061 C 
HETATM   12  C12 UNL     1      26.184   1.726  52.490  1.00  0.00    -0.026 C 
HETATM   13  C13 UNL     1      24.922   1.401  52.840  1.00  0.00    -0.029 C 
HETATM   14  C14 UNL     1      23.749   1.094  52.009  1.00  0.00     0.039 C 
HETATM   15  C15 UNL     1      25.764   3.860  49.355  1.00  0.00     0.074 A 
HETATM   16  C16 UNL     1      27.140   4.308  49.156  1.00  0.00     0.017 A 
HETATM   17  C17 UNL     1      27.144   5.616  48.834  1.00  0.00     0.038 A 
ENDROOT
BRANCH  17  18
HETATM   18  N4  UNL     1      28.306   6.390  48.567  1.00  0.00    -0.325 N 
HETATM   19  C18 UNL     1      29.587   6.027  48.134  1.00  0.00     0.247 C 
HETATM   20  O1  UNL     1      30.017   4.893  47.871  1.00  0.00    -0.271 OA
HETATM   21  H21 UNL     1      28.156   7.425  48.733  1.00  0.00     0.169 HD
BRANCH  19  22
HETATM   22  C19 UNL     1      30.652   7.028  47.923  1.00  0.00     0.203 C 
HETATM   23  C20 UNL     1      30.898   7.911  49.117  1.00  0.00     0.215 C 
HETATM   24  O2  UNL     1      32.264   7.721  49.437  1.00  0.00    -0.301 OA
HETATM   25  C21 UNL     1      32.755   6.558  48.840  1.00  0.00     0.361 C 
HETATM   26  O3  UNL     1      33.687   5.732  49.037  1.00  0.00    -0.238 OA
HETATM   27  N5  UNL     1      31.901   6.322  47.705  1.00  0.00    -0.321 N 
HETATM   28  H25 UNL     1      32.052   5.760  46.821  1.00  0.00     0.165 HD
ENDBRANCH  19  22
ENDBRANCH  17  18
BRANCH   1  29
HETATM   29  C2  UNL     1      25.317   7.404  48.514  1.00  0.00     0.037 C 
HETATM   30  C1  UNL     1      25.209   7.770  47.080  1.00  0.00     0.010 C 
ENDBRANCH   1  29
BRANCH   7  31
HETATM   31  N3  UNL     1      21.757   3.709  52.168  1.00  0.00     0.103 N 
HETATM   32  H9  UNL     1      21.632   3.387  53.154  1.00  0.00     0.315 HD
HETATM   33  H10 UNL     1      21.039   4.371  51.856  1.00  0.00     0.315 HD
ENDBRANCH   7  31
TORSDOF 4
ENDMDL
MODEL 8
REMARK VINA RESULT:      -8.6      3.910      6.420
REMARK  4 active torsions:
REMARK  status: ('A' for Active; 'I' for Inactive)
REMARK    1  A    between atoms: C2_2  and  C3_3 
REMARK    2  A    between atoms: C7_9  and  N3_10 
REMARK    3  A    between atoms: C17_20  and  N4_21 
REMARK       I    between atoms: N4_21  and  C18_22 
REMARK    4  A    between atoms: C18_22  and  C19_24 
ROOT
HETATM    1  C3  UNL     1      23.267   3.907  51.121  1.00  0.00    -0.023 A 
HETATM    2  C4  UNL     1      22.691   2.769  51.458  1.00  0.00    -0.020 A 
HETATM    3  C5  UNL     1      21.421   2.172  51.849  1.00  0.00     0.126 C 
HETATM    4  N1  UNL     1      20.989   1.079  51.314  1.00  0.00    -0.254 NA
HETATM    5  C6  UNL     1      19.749   0.535  51.726  1.00  0.00     0.228 C 
HETATM    6  N2  UNL     1      19.616  -0.083  52.823  1.00  0.00    -0.247 NA
HETATM    7  C7  UNL     1      20.582  -0.362  53.829  1.00  0.00     0.347 C 
HETATM    8  C8  UNL     1      21.999  -0.493  53.359  1.00  0.00     0.066 C 
HETATM    9  C9  UNL     1      22.740   0.806  53.458  1.00  0.00    -0.014 C 
HETATM   10  C10 UNL     1      23.839   0.966  52.683  1.00  0.00    -0.068 C 
HETATM   11  C11 UNL     1      25.178   0.409  53.017  1.00  0.00     0.061 C 
HETATM   12  C12 UNL     1      25.124  -0.505  54.186  1.00  0.00    -0.026 C 
HETATM   13  C13 UNL     1      24.026  -1.077  54.724  1.00  0.00    -0.029 C 
HETATM   14  C14 UNL     1      22.779  -1.532  54.091  1.00  0.00     0.039 C 
HETATM   15  C15 UNL     1      23.755   1.731  51.415  1.00  0.00     0.074 A 
HETATM   16  C16 UNL     1      24.972   2.433  51.017  1.00  0.00     0.017 A 
HETATM   17  C17 UNL     1      24.699   3.739  50.836  1.00  0.00     0.038 A 
ENDROOT
BRANCH  17  18
HETATM   18  N4  UNL     1      25.644   4.727  50.445  1.00  0.00    -0.325 N 
HETATM   19  C18 UNL     1      25.680   5.596  49.349  1.00  0.00     0.247 C 
HETATM   20  O1  UNL     1      24.856   5.708  48.427  1.00  0.00    -0.271 OA
HETATM   21  H21 UNL     1      26.460   4.803  51.116  1.00  0.00     0.169 HD
BRANCH  19  22
HETATM   22  C19 UNL     1      26.787   6.555  49.149  1.00  0.00     0.203 C 
HETATM   23  C20 UNL     1      26.716   7.295  47.841  1.00  0.00     0.215 C 
HETATM   24  O2  UNL     1      26.678   8.665  48.198  1.00  0.00    -0.301 OA
HETATM   25  C21 UNL     1      26.323   8.817  49.540  1.00  0.00     0.361 C 
HETATM   26  O3  UNL     1      25.802   9.701  50.271  1.00  0.00    -0.238 OA
HETATM   27  N5  UNL     1      26.692   7.577  50.174  1.00  0.00    -0.321 N 
HETATM   28  H25 UNL     1      26.885   7.341  51.187  1.00  0.00     0.165 HD
ENDBRANCH  19  22
ENDBRANCH  17  18
BRANCH   1  29
HETATM   29  C2  UNL     1      22.577   5.187  51.037  1.00  0.00     0.037 C 
HETATM   30  C1  UNL     1      21.614   5.361  49.922  1.00  0.00     0.010 C 
ENDBRANCH   1  29
BRANCH   7  31
HETATM   31  N3  UNL     1      20.455   0.664  54.875  1.00  0.00     0.103 N 
HETATM   32  H9  UNL     1      19.675   0.445  55.534  1.00  0.00     0.315 HD
HETATM   33  H10 UNL     1      20.404   1.606  54.473  1.00  0.00     0.315 HD
ENDBRANCH   7  31
TORSDOF 4
ENDMDL
MODEL 9
REMARK VINA RESULT:      -8.4      3.789      8.515
REMARK  4 active torsions:
REMARK  status: ('A' for Active; 'I' for Inactive)
REMARK    1  A    between atoms: C2_2  and  C3_3 
REMARK    2  A    between atoms: C7_9  and  N3_10 
REMARK    3  A    between atoms: C17_20  and  N4_21 
REMARK       I    between atoms: N4_21  and  C18_22 
REMARK    4  A    between atoms: C18_22  and  C19_24 
ROOT
HETATM    1  C3  UNL     1      22.676   2.390  50.458  1.00  0.00    -0.023 A 
HETATM    2  C4  UNL     1      23.542   2.004  51.375  1.00  0.00    -0.020 A 
HETATM    3  C5  UNL     1      24.937   1.641  51.586  1.00  0.00     0.126 C 
HETATM    4  N1  UNL     1      25.623   2.118  52.570  1.00  0.00    -0.254 NA
HETATM    5  C6  UNL     1      26.976   1.737  52.737  1.00  0.00     0.228 C 
HETATM    6  N2  UNL     1      27.305   0.607  53.205  1.00  0.00    -0.247 NA
HETATM    7  C7  UNL     1      26.480  -0.468  53.640  1.00  0.00     0.347 C 
HETATM    8  C8  UNL     1      25.133  -0.086  54.174  1.00  0.00     0.066 C 
HETATM    9  C9  UNL     1      24.079  -0.131  53.109  1.00  0.00    -0.014 C 
HETATM   10  C10 UNL     1      22.952   0.592  53.305  1.00  0.00    -0.068 C 
HETATM   11  C11 UNL     1      21.819   0.146  54.161  1.00  0.00     0.061 C 
HETATM   12  C12 UNL     1      22.151  -1.082  54.929  1.00  0.00    -0.026 C 
HETATM   13  C13 UNL     1      23.379  -1.598  55.148  1.00  0.00    -0.029 C 
HETATM   14  C14 UNL     1      24.679  -0.933  55.314  1.00  0.00     0.039 C 
HETATM   15  C15 UNL     1      22.788   1.914  52.654  1.00  0.00     0.074 A 
HETATM   16  C16 UNL     1      21.416   2.294  52.328  1.00  0.00     0.017 A 
HETATM   17  C17 UNL     1      21.330   2.583  51.016  1.00  0.00     0.038 A 
ENDROOT
BRANCH  17  18
HETATM   18  N4  UNL     1      20.145   2.993  50.344  1.00  0.00    -0.325 N 
HETATM   19  C18 UNL     1      19.728   4.243  49.873  1.00  0.00     0.247 C 
HETATM   20  O1  UNL     1      20.327   5.328  49.936  1.00  0.00    -0.271 OA
HETATM   21  H21 UNL     1      19.469   2.194  50.181  1.00  0.00     0.169 HD
BRANCH  19  22
HETATM   22  C19 UNL     1      18.430   4.427  49.192  1.00  0.00     0.203 C 
HETATM   23  C20 UNL     1      17.759   3.135  48.810  1.00  0.00     0.215 C 
HETATM   24  O2  UNL     1      16.501   3.171  49.459  1.00  0.00    -0.301 OA
HETATM   25  C21 UNL     1      16.498   4.124  50.480  1.00  0.00     0.361 C 
HETATM   26  O3  UNL     1      15.870   4.337  51.552  1.00  0.00    -0.238 OA
HETATM   27  N5  UNL     1      17.519   5.073  50.119  1.00  0.00    -0.321 N 
HETATM   28  H25 UNL     1      17.674   6.077  50.411  1.00  0.00     0.165 HD
ENDBRANCH  19  22
ENDBRANCH  17  18
BRANCH   1  29
HETATM   29  C2  UNL     1      23.001   2.604  49.055  1.00  0.00     0.037 C 
HETATM   30  C1  UNL     1      22.269   1.781  48.061  1.00  0.00     0.010 C 
ENDBRANCH   1  29
BRANCH   7  31
HETATM   31  N3  UNL     1      26.367  -1.428  52.532  1.00  0.00     0.103 N 
HETATM   32  H9  UNL     1      27.014  -2.238  52.660  1.00  0.00     0.315 HD
HETATM   33  H10 UNL     1      26.461  -0.966  51.623  1.00  0.00     0.315 HD
ENDBRANCH   7  31
TORSDOF 4
ENDMDL
