MODEL 1
REMARK VINA RESULT:      -7.9      0.000      0.000
REMARK  4 active torsions:
REMARK  status: ('A' for Active; 'I' for Inactive)
REMARK    1  A    between atoms: O1_2  and  C2_3 
REMARK    2  A    between atoms: C10_11  and  N1_12 
REMARK    3  A    between atoms: C10_11  and  C11_14 
REMARK    4  A    between atoms: N1_12  and  N2_13 
ROOT
HETATM    1  C2  UNL     1      19.621  -0.166  52.502  1.00  0.00     0.068 A 
HETATM    2  C3  UNL     1      19.902   0.305  51.214  1.00  0.00     0.039 A 
HETATM    3  C4  UNL     1      21.193   0.729  50.881  1.00  0.00     0.040 A 
HETATM    4  C5  UNL     1      22.193   0.678  51.837  1.00  0.00     0.075 A 
HETATM    5  C6  UNL     1      21.900   0.209  53.108  1.00  0.00    -0.018 A 
HETATM    6  C7  UNL     1      20.629  -0.209  53.442  1.00  0.00     0.047 A 
HETATM    7  C8  UNL     1      22.921   0.120  54.205  1.00  0.00     0.080 C 
HETATM    8  C9  UNL     1      24.274   0.400  53.649  1.00  0.00    -0.023 C 
HETATM    9  C10 UNL     1      25.250  -0.370  54.122  1.00  0.00     0.058 C 
HETATM   10  C16 UNL     1      24.282   1.495  52.663  1.00  0.00     0.212 C 
HETATM   11  O3  UNL     1      23.492   1.085  51.566  1.00  0.00    -0.346 OA
ENDROOT
BRANCH   9  12
HETATM   12  N1  UNL     1      24.763  -1.308  55.076  1.00  0.00    -0.323 N 
HETATM   13  H9  UNL     1      24.089  -2.120  55.143  1.00  0.00     0.180 HD
BRANCH  12  14
HETATM   14  N2  UNL     1      25.151  -1.378  56.428  1.00  0.00    -0.249 NA
HETATM   15  H10 UNL     1      24.920  -0.497  56.958  1.00  0.00     0.143 HD
HETATM   16  H11 UNL     1      24.643  -2.146  56.939  1.00  0.00     0.143 HD
ENDBRANCH  12  14
ENDBRANCH   9  12
BRANCH   9  17
HETATM   17  C11 UNL     1      26.651  -0.372  53.810  1.00  0.00     0.007 C 
HETATM   18  C12 UNL     1      27.499   0.499  54.283  1.00  0.00     0.012 C 
HETATM   19  C13 UNL     1      28.611   0.048  54.790  1.00  0.00     0.154 C 
HETATM   20  O2  UNL     1      29.245  -0.887  53.975  1.00  0.00    -0.334 OA
HETATM   21  C14 UNL     1      28.557  -1.628  53.004  1.00  0.00     0.142 C 
HETATM   22  C15 UNL     1      27.253  -1.380  52.908  1.00  0.00     0.039 C 
ENDBRANCH   9  17
BRANCH   1  23
HETATM   23  O1  UNL     1      18.292  -0.527  52.601  1.00  0.00    -0.356 OA
HETATM   24  C1  UNL     1      17.944  -1.663  53.366  1.00  0.00     0.210 C 
ENDBRANCH   1  23
TORSDOF 4
ENDMDL
MODEL 2
REMARK VINA RESULT:      -7.4      1.402      1.992
REMARK  4 active torsions:
REMARK  status: ('A' for Active; 'I' for Inactive)
REMARK    1  A    between atoms: O1_2  and  C2_3 
REMARK    2  A    between atoms: C10_11  and  N1_12 
REMARK    3  A    between atoms: C10_11  and  C11_14 
REMARK    4  A    between atoms: N1_12  and  N2_13 
ROOT
HETATM    1  C2  UNL     1      19.568   0.904  50.357  1.00  0.00     0.068 A 
HETATM    2  C3  UNL     1      20.342   1.366  49.287  1.00  0.00     0.039 A 
HETATM    3  C4  UNL     1      21.714   1.584  49.448  1.00  0.00     0.040 A 
HETATM    4  C5  UNL     1      22.303   1.337  50.676  1.00  0.00     0.075 A 
HETATM    5  C6  UNL     1      21.524   0.878  51.727  1.00  0.00    -0.018 A 
HETATM    6  C7  UNL     1      20.171   0.663  51.574  1.00  0.00     0.047 A 
HETATM    7  C8  UNL     1      22.078   0.585  53.091  1.00  0.00     0.080 C 
HETATM    8  C9  UNL     1      23.565   0.657  53.051  1.00  0.00    -0.023 C 
HETATM    9  C10 UNL     1      24.196  -0.278  53.754  1.00  0.00     0.058 C 
HETATM   10  C16 UNL     1      24.070   1.770  52.226  1.00  0.00     0.212 C 
HETATM   11  O3  UNL     1      23.660   1.534  50.896  1.00  0.00    -0.346 OA
ENDROOT
BRANCH   9  12
HETATM   12  N1  UNL     1      23.281  -1.156  54.400  1.00  0.00    -0.323 N 
HETATM   13  H9  UNL     1      22.409  -1.716  54.190  1.00  0.00     0.180 HD
BRANCH  12  14
HETATM   14  N2  UNL     1      23.344  -1.558  55.749  1.00  0.00    -0.249 NA
HETATM   15  H10 UNL     1      23.502  -0.747  56.403  1.00  0.00     0.143 HD
HETATM   16  H11 UNL     1      22.440  -1.994  56.068  1.00  0.00     0.143 HD
ENDBRANCH  12  14
ENDBRANCH   9  12
BRANCH   9  17
HETATM   17  C11 UNL     1      25.604  -0.499  53.933  1.00  0.00     0.007 C 
HETATM   18  C12 UNL     1      26.314  -1.289  53.176  1.00  0.00     0.012 C 
HETATM   19  C13 UNL     1      27.441  -0.829  52.710  1.00  0.00     0.154 C 
HETATM   20  O2  UNL     1      28.226  -0.215  53.683  1.00  0.00    -0.334 OA
HETATM   21  C14 UNL     1      27.687   0.300  54.871  1.00  0.00     0.142 C 
HETATM   22  C15 UNL     1      26.370   0.165  55.011  1.00  0.00     0.039 C 
ENDBRANCH   9  17
BRANCH   1  23
HETATM   23  O1  UNL     1      18.250   0.763  49.971  1.00  0.00    -0.356 OA
HETATM   24  C1  UNL     1      17.416  -0.127  50.684  1.00  0.00     0.210 C 
ENDBRANCH   1  23
TORSDOF 4
ENDMDL
MODEL 3
REMARK VINA RESULT:      -7.3      1.823      6.985
REMARK  4 active torsions:
REMARK  status: ('A' for Active; 'I' for Inactive)
REMARK    1  A    between atoms: O1_2  and  C2_3 
REMARK    2  A    between atoms: C10_11  and  N1_12 
REMARK    3  A    between atoms: C10_11  and  C11_14 
REMARK    4  A    between atoms: N1_12  and  N2_13 
ROOT
HETATM    1  C2  UNL     1      27.544   0.044  54.085  1.00  0.00     0.068 A 
HETATM    2  C3  UNL     1      27.708   1.407  53.814  1.00  0.00     0.039 A 
HETATM    3  C4  UNL     1      26.676   2.140  53.220  1.00  0.00     0.040 A 
HETATM    4  C5  UNL     1      25.487   1.506  52.902  1.00  0.00     0.075 A 
HETATM    5  C6  UNL     1      25.338   0.156  53.176  1.00  0.00    -0.018 A 
HETATM    6  C7  UNL     1      26.353  -0.572  53.761  1.00  0.00     0.047 A 
HETATM    7  C8  UNL     1      24.086  -0.612  52.866  1.00  0.00     0.080 C 
HETATM    8  C9  UNL     1      23.016   0.333  52.440  1.00  0.00    -0.023 C 
HETATM    9  C10 UNL     1      21.802   0.061  52.909  1.00  0.00     0.058 C 
HETATM   10  C16 UNL     1      23.509   1.411  51.564  1.00  0.00     0.212 C 
HETATM   11  O3  UNL     1      24.427   2.181  52.312  1.00  0.00    -0.346 OA
ENDROOT
BRANCH   9  12
HETATM   12  N1  UNL     1      21.805  -1.101  53.731  1.00  0.00    -0.323 N 
HETATM   13  H9  UNL     1      22.206  -2.080  53.749  1.00  0.00     0.180 HD
BRANCH  12  14
HETATM   14  N2  UNL     1      21.133  -1.237  54.962  1.00  0.00    -0.249 NA
HETATM   15  H10 UNL     1      20.772  -0.316  55.325  1.00  0.00     0.143 HD
HETATM   16  H11 UNL     1      20.282  -1.851  54.875  1.00  0.00     0.143 HD
ENDBRANCH  12  14
ENDBRANCH   9  12
BRANCH   9  17
HETATM   17  C11 UNL     1      20.561   0.752  52.700  1.00  0.00     0.007 C 
HETATM   18  C12 UNL     1      20.374   2.008  53.000  1.00  0.00     0.012 C 
HETATM   19  C13 UNL     1      19.820   2.769  52.098  1.00  0.00     0.154 C 
HETATM   20  O2  UNL     1      18.681   2.206  51.531  1.00  0.00    -0.334 OA
HETATM   21  C14 UNL     1      18.442   0.824  51.535  1.00  0.00     0.142 C 
HETATM   22  C15 UNL     1      19.377   0.080  52.119  1.00  0.00     0.039 C 
ENDBRANCH   9  17
BRANCH   1  23
HETATM   23  O1  UNL     1      28.685  -0.470  54.668  1.00  0.00    -0.356 OA
HETATM   24  C1  UNL     1      29.768  -0.849  53.843  1.00  0.00     0.210 C 
ENDBRANCH   1  23
TORSDOF 4
ENDMDL
MODEL 4
REMARK VINA RESULT:      -7.3      3.166      7.448
REMARK  4 active torsions:
REMARK  status: ('A' for Active; 'I' for Inactive)
REMARK    1  A    between atoms: O1_2  and  C2_3 
REMARK    2  A    between atoms: C10_11  and  N1_12 
REMARK    3  A    between atoms: C10_11  and  C11_14 
REMARK    4  A    between atoms: N1_12  and  N2_13 
ROOT
HETATM    1  C2  UNL     1      28.125   0.429  53.505  1.00  0.00     0.068 A 
HETATM    2  C3  UNL     1      27.603  -0.792  53.065  1.00  0.00     0.039 A 
HETATM    3  C4  UNL     1      26.248  -0.906  52.737  1.00  0.00     0.040 A 
HETATM    4  C5  UNL     1      25.426   0.202  52.849  1.00  0.00     0.075 A 
HETATM    5  C6  UNL     1      25.957   1.406  53.285  1.00  0.00    -0.018 A 
HETATM    6  C7  UNL     1      27.292   1.523  53.612  1.00  0.00     0.047 A 
HETATM    7  C8  UNL     1      25.140   2.656  53.437  1.00  0.00     0.080 C 
HETATM    8  C9  UNL     1      23.787   2.440  52.855  1.00  0.00    -0.023 C 
HETATM    9  C10 UNL     1      23.294   3.468  52.170  1.00  0.00     0.058 C 
HETATM   10  C16 UNL     1      23.234   1.106  53.151  1.00  0.00     0.212 C 
HETATM   11  O3  UNL     1      24.074   0.151  52.537  1.00  0.00    -0.346 OA
ENDROOT
BRANCH   9  12
HETATM   12  N1  UNL     1      24.199   4.567  52.151  1.00  0.00    -0.323 N 
HETATM   13  H9  UNL     1      25.222   4.771  51.981  1.00  0.00     0.180 HD
BRANCH  12  14
HETATM   14  N2  UNL     1      23.862   5.910  52.409  1.00  0.00    -0.249 NA
HETATM   15  H10 UNL     1      24.439   6.584  51.840  1.00  0.00     0.143 HD
HETATM   16  H11 UNL     1      22.863   6.118  52.149  1.00  0.00     0.143 HD
ENDBRANCH  12  14
ENDBRANCH   9  12
BRANCH   9  17
HETATM   17  C11 UNL     1      22.037   3.599  51.489  1.00  0.00     0.007 C 
HETATM   18  C12 UNL     1      21.910   3.556  50.192  1.00  0.00     0.012 C 
HETATM   19  C13 UNL     1      20.981   2.785  49.700  1.00  0.00     0.154 C 
HETATM   20  O2  UNL     1      19.748   2.945  50.328  1.00  0.00    -0.334 OA
HETATM   21  C14 UNL     1      19.625   3.465  51.624  1.00  0.00     0.142 C 
HETATM   22  C15 UNL     1      20.766   3.799  52.221  1.00  0.00     0.039 C 
ENDBRANCH   9  17
BRANCH   1  23
HETATM   23  O1  UNL     1      29.475   0.306  53.770  1.00  0.00    -0.356 OA
HETATM   24  C1  UNL     1      30.075  -0.972  53.703  1.00  0.00     0.210 C 
ENDBRANCH   1  23
TORSDOF 4
ENDMDL
MODEL 5
REMARK VINA RESULT:      -7.3      1.599      2.004
REMARK  4 active torsions:
REMARK  status: ('A' for Active; 'I' for Inactive)
REMARK    1  A    between atoms: O1_2  and  C2_3 
REMARK    2  A    between atoms: C10_11  and  N1_12 
REMARK    3  A    between atoms: C10_11  and  C11_14 
REMARK    4  A    between atoms: N1_12  and  N2_13 
ROOT
HETATM    1  C2  UNL     1      18.605  -0.821  52.692  1.00  0.00     0.068 A 
HETATM    2  C3  UNL     1      18.625  -0.132  51.474  1.00  0.00     0.039 A 
HETATM    3  C4  UNL     1      19.742   0.625  51.106  1.00  0.00     0.040 A 
HETATM    4  C5  UNL     1      20.832   0.686  51.957  1.00  0.00     0.075 A 
HETATM    5  C6  UNL     1      20.799  -0.002  53.160  1.00  0.00    -0.018 A 
HETATM    6  C7  UNL     1      19.699  -0.748  53.528  1.00  0.00     0.047 A 
HETATM    7  C8  UNL     1      21.934   0.009  54.143  1.00  0.00     0.080 C 
HETATM    8  C9  UNL     1      23.118   0.670  53.528  1.00  0.00    -0.023 C 
HETATM    9  C10 UNL     1      24.288   0.096  53.794  1.00  0.00     0.058 C 
HETATM   10  C16 UNL     1      22.770   1.856  52.725  1.00  0.00     0.212 C 
HETATM   11  O3  UNL     1      21.969   1.420  51.647  1.00  0.00    -0.346 OA
ENDROOT
BRANCH   9  12
HETATM   12  N1  UNL     1      24.134  -1.047  54.628  1.00  0.00    -0.323 N 
HETATM   13  H9  UNL     1      23.532  -1.912  54.714  1.00  0.00     0.180 HD
BRANCH  12  14
HETATM   14  N2  UNL     1      24.912  -1.344  55.765  1.00  0.00    -0.249 NA
HETATM   15  H10 UNL     1      25.834  -1.788  55.515  1.00  0.00     0.143 HD
HETATM   16  H11 UNL     1      25.164  -0.474  56.302  1.00  0.00     0.143 HD
ENDBRANCH  12  14
ENDBRANCH   9  12
BRANCH   9  17
HETATM   17  C11 UNL     1      25.609   0.466  53.372  1.00  0.00     0.007 C 
HETATM   18  C12 UNL     1      26.192  -0.021  52.312  1.00  0.00     0.012 C 
HETATM   19  C13 UNL     1      26.754   0.820  51.489  1.00  0.00     0.154 C 
HETATM   20  O2  UNL     1      27.563   1.755  52.131  1.00  0.00    -0.334 OA
HETATM   21  C14 UNL     1      27.404   2.086  53.484  1.00  0.00     0.142 C 
HETATM   22  C15 UNL     1      26.426   1.446  54.121  1.00  0.00     0.039 C 
ENDBRANCH   9  17
BRANCH   1  23
HETATM   23  O1  UNL     1      17.409  -1.494  52.843  1.00  0.00    -0.356 OA
HETATM   24  C1  UNL     1      17.412  -2.774  53.443  1.00  0.00     0.210 C 
ENDBRANCH   1  23
TORSDOF 4
ENDMDL
MODEL 6
REMARK VINA RESULT:      -7.3      2.222      2.850
REMARK  4 active torsions:
REMARK  status: ('A' for Active; 'I' for Inactive)
REMARK    1  A    between atoms: O1_2  and  C2_3 
REMARK    2  A    between atoms: C10_11  and  N1_12 
REMARK    3  A    between atoms: C10_11  and  C11_14 
REMARK    4  A    between atoms: N1_12  and  N2_13 
ROOT
HETATM    1  C2  UNL     1      19.736   0.340  52.438  1.00  0.00     0.068 A 
HETATM    2  C3  UNL     1      19.741  -0.653  53.424  1.00  0.00     0.039 A 
HETATM    3  C4  UNL     1      20.948  -1.099  53.973  1.00  0.00     0.040 A 
HETATM    4  C5  UNL     1      22.140  -0.549  53.533  1.00  0.00     0.075 A 
HETATM    5  C6  UNL     1      22.119   0.434  52.556  1.00  0.00    -0.018 A 
HETATM    6  C7  UNL     1      20.932   0.877  52.011  1.00  0.00     0.047 A 
HETATM    7  C8  UNL     1      23.361   1.084  52.021  1.00  0.00     0.080 C 
HETATM    8  C9  UNL     1      24.534   0.667  52.839  1.00  0.00    -0.023 C 
HETATM    9  C10 UNL     1      25.416   1.629  53.095  1.00  0.00     0.058 C 
HETATM   10  C16 UNL     1      24.500  -0.757  53.218  1.00  0.00     0.212 C 
HETATM   11  O3  UNL     1      23.368  -0.951  54.040  1.00  0.00    -0.346 OA
ENDROOT
BRANCH   9  12
HETATM   12  N1  UNL     1      25.025   2.868  52.513  1.00  0.00    -0.323 N 
HETATM   13  H9  UNL     1      24.990   3.344  51.570  1.00  0.00     0.180 HD
BRANCH  12  14
HETATM   14  N2  UNL     1      24.485   3.967  53.210  1.00  0.00    -0.249 NA
HETATM   15  H10 UNL     1      23.463   3.837  53.432  1.00  0.00     0.143 HD
HETATM   16  H11 UNL     1      24.953   4.104  54.143  1.00  0.00     0.143 HD
ENDBRANCH  12  14
ENDBRANCH   9  12
BRANCH   9  17
HETATM   17  C11 UNL     1      26.641   1.575  53.841  1.00  0.00     0.007 C 
HETATM   18  C12 UNL     1      26.835   0.780  54.857  1.00  0.00     0.012 C 
HETATM   19  C13 UNL     1      27.936   0.082  54.877  1.00  0.00     0.154 C 
HETATM   20  O2  UNL     1      29.070   0.840  54.601  1.00  0.00    -0.334 OA
HETATM   21  C14 UNL     1      29.013   2.052  53.898  1.00  0.00     0.142 C 
HETATM   22  C15 UNL     1      27.799   2.435  53.510  1.00  0.00     0.039 C 
ENDBRANCH   9  17
BRANCH   1  23
HETATM   23  O1  UNL     1      18.441   0.620  52.047  1.00  0.00    -0.356 OA
HETATM   24  C1  UNL     1      18.125   0.620  50.669  1.00  0.00     0.210 C 
ENDBRANCH   1  23
TORSDOF 4
ENDMDL
MODEL 7
REMARK VINA RESULT:      -7.1      3.856      7.434
REMARK  4 active torsions:
REMARK  status: ('A' for Active; 'I' for Inactive)
REMARK    1  A    between atoms: O1_2  and  C2_3 
REMARK    2  A    between atoms: C10_11  and  N1_12 
REMARK    3  A    between atoms: C10_11  and  C11_14 
REMARK    4  A    between atoms: N1_12  and  N2_13 
ROOT
HETATM    1  C2  UNL     1      26.693   0.375  54.282  1.00  0.00     0.068 A 
HETATM    2  C3  UNL     1      26.069  -0.726  53.685  1.00  0.00     0.039 A 
HETATM    3  C4  UNL     1      24.896  -0.559  52.942  1.00  0.00     0.040 A 
HETATM    4  C5  UNL     1      24.356   0.707  52.800  1.00  0.00     0.075 A 
HETATM    5  C6  UNL     1      24.985   1.789  53.396  1.00  0.00    -0.018 A 
HETATM    6  C7  UNL     1      26.141   1.630  54.131  1.00  0.00     0.047 A 
HETATM    7  C8  UNL     1      24.470   3.196  53.295  1.00  0.00     0.080 C 
HETATM    8  C9  UNL     1      23.353   3.247  52.311  1.00  0.00    -0.023 C 
HETATM    9  C10 UNL     1      23.347   4.313  51.516  1.00  0.00     0.058 C 
HETATM   10  C16 UNL     1      22.446   2.088  52.401  1.00  0.00     0.212 C 
HETATM   11  O3  UNL     1      23.194   0.936  52.075  1.00  0.00    -0.346 OA
ENDROOT
BRANCH   9  12
HETATM   12  N1  UNL     1      24.438   5.183  51.797  1.00  0.00    -0.323 N 
HETATM   13  H9  UNL     1      25.493   5.163  51.869  1.00  0.00     0.180 HD
BRANCH  12  14
HETATM   14  N2  UNL     1      24.336   6.553  52.110  1.00  0.00    -0.249 NA
HETATM   15  H10 UNL     1      23.366   6.931  51.942  1.00  0.00     0.143 HD
HETATM   16  H11 UNL     1      24.527   6.734  53.130  1.00  0.00     0.143 HD
ENDBRANCH  12  14
ENDBRANCH   9  12
BRANCH   9  17
HETATM   17  C11 UNL     1      22.430   4.676  50.473  1.00  0.00     0.007 C 
HETATM   18  C12 UNL     1      21.264   5.217  50.692  1.00  0.00     0.012 C 
HETATM   19  C13 UNL     1      20.946   6.272  49.994  1.00  0.00     0.154 C 
HETATM   20  O2  UNL     1      21.189   6.121  48.632  1.00  0.00    -0.334 OA
HETATM   21  C14 UNL     1      22.111   5.191  48.130  1.00  0.00     0.142 C 
HETATM   22  C15 UNL     1      22.743   4.457  49.043  1.00  0.00     0.039 C 
ENDBRANCH   9  17
BRANCH   1  23
HETATM   23  O1  UNL     1      27.827  -0.026  54.960  1.00  0.00    -0.356 OA
HETATM   24  C1  UNL     1      29.031  -0.202  54.241  1.00  0.00     0.210 C 
ENDBRANCH   1  23
TORSDOF 4
ENDMDL
MODEL 8
REMARK VINA RESULT:      -7.1      4.310      5.870
REMARK  4 active torsions:
REMARK  status: ('A' for Active; 'I' for Inactive)
REMARK    1  A    between atoms: O1_2  and  C2_3 
REMARK    2  A    between atoms: C10_11  and  N1_12 
REMARK    3  A    between atoms: C10_11  and  C11_14 
REMARK    4  A    between atoms: N1_12  and  N2_13 
ROOT
HETATM    1  C2  UNL     1      23.499   7.147  50.426  1.00  0.00     0.068 A 
HETATM    2  C3  UNL     1      22.232   6.775  50.890  1.00  0.00     0.039 A 
HETATM    3  C4  UNL     1      21.963   5.443  51.223  1.00  0.00     0.040 A 
HETATM    4  C5  UNL     1      22.961   4.494  51.091  1.00  0.00     0.075 A 
HETATM    5  C6  UNL     1      24.212   4.876  50.631  1.00  0.00    -0.018 A 
HETATM    6  C7  UNL     1      24.482   6.188  50.300  1.00  0.00     0.047 A 
HETATM    7  C8  UNL     1      25.351   3.915  50.457  1.00  0.00     0.080 C 
HETATM    8  C9  UNL     1      24.985   2.597  51.045  1.00  0.00    -0.023 C 
HETATM    9  C10 UNL     1      25.959   1.984  51.711  1.00  0.00     0.058 C 
HETATM   10  C16 UNL     1      23.589   2.209  50.775  1.00  0.00     0.212 C 
HETATM   11  O3  UNL     1      22.754   3.158  51.406  1.00  0.00    -0.346 OA
ENDROOT
BRANCH   9  12
HETATM   12  N1  UNL     1      27.159   2.750  51.708  1.00  0.00    -0.323 N 
HETATM   13  H9  UNL     1      27.680   3.437  51.096  1.00  0.00     0.180 HD
BRANCH  12  14
HETATM   14  N2  UNL     1      28.124   2.765  52.734  1.00  0.00    -0.249 NA
HETATM   15  H10 UNL     1      29.106   2.679  52.362  1.00  0.00     0.143 HD
HETATM   16  H11 UNL     1      28.112   3.674  53.265  1.00  0.00     0.143 HD
ENDBRANCH  12  14
ENDBRANCH   9  12
BRANCH   9  17
HETATM   17  C11 UNL     1      25.951   0.720  52.392  1.00  0.00     0.007 C 
HETATM   18  C12 UNL     1      26.673  -0.302  52.026  1.00  0.00     0.012 C 
HETATM   19  C13 UNL     1      27.360  -0.920  52.947  1.00  0.00     0.154 C 
HETATM   20  O2  UNL     1      26.612  -1.206  54.086  1.00  0.00    -0.334 OA
HETATM   21  C14 UNL     1      25.452  -0.495  54.424  1.00  0.00     0.142 C 
HETATM   22  C15 UNL     1      25.106   0.476  53.582  1.00  0.00     0.039 C 
ENDBRANCH   9  17
BRANCH   1  23
HETATM   23  O1  UNL     1      23.534   8.501  50.161  1.00  0.00    -0.356 OA
HETATM   24  C1  UNL     1      23.631   8.937  48.820  1.00  0.00     0.210 C 
ENDBRANCH   1  23
TORSDOF 4
ENDMDL
MODEL 9
REMARK VINA RESULT:      -7.1      5.277      7.891
REMARK  4 active torsions:
REMARK  status: ('A' for Active; 'I' for Inactive)
REMARK    1  A    between atoms: O1_2  and  C2_3 
REMARK    2  A    between atoms: C10_11  and  N1_12 
REMARK    3  A    between atoms: C10_11  and  C11_14 
REMARK    4  A    between atoms: N1_12  and  N2_13 
ROOT
HETATM    1  C2  UNL     1      27.770   6.625  47.999  1.00  0.00     0.068 A 
HETATM    2  C3  UNL     1      26.585   7.368  48.023  1.00  0.00     0.039 A 
HETATM    3  C4  UNL     1      25.412   6.814  48.546  1.00  0.00     0.040 A 
HETATM    4  C5  UNL     1      25.432   5.522  49.041  1.00  0.00     0.075 A 
HETATM    5  C6  UNL     1      26.614   4.797  49.011  1.00  0.00    -0.018 A 
HETATM    6  C7  UNL     1      27.773   5.339  48.496  1.00  0.00     0.047 A 
HETATM    7  C8  UNL     1      26.727   3.392  49.526  1.00  0.00     0.080 C 
HETATM    8  C9  UNL     1      25.472   3.019  50.236  1.00  0.00    -0.023 C 
HETATM    9  C10 UNL     1      25.641   2.314  51.351  1.00  0.00     0.058 C 
HETATM   10  C16 UNL     1      24.257   3.507  49.560  1.00  0.00     0.212 C 
HETATM   11  O3  UNL     1      24.300   4.918  49.572  1.00  0.00    -0.346 OA
ENDROOT
BRANCH   9  12
HETATM   12  N1  UNL     1      27.019   2.072  51.615  1.00  0.00    -0.323 N 
HETATM   13  H9  UNL     1      27.823   1.489  51.254  1.00  0.00     0.180 HD
BRANCH  12  14
HETATM   14  N2  UNL     1      27.778   2.684  52.631  1.00  0.00    -0.249 NA
HETATM   15  H10 UNL     1      27.180   3.231  53.305  1.00  0.00     0.143 HD
HETATM   16  H11 UNL     1      28.279   1.973  53.224  1.00  0.00     0.143 HD
ENDBRANCH  12  14
ENDBRANCH   9  12
BRANCH   9  17
HETATM   17  C11 UNL     1      24.664   1.796  52.266  1.00  0.00     0.007 C 
HETATM   18  C12 UNL     1      23.635   2.478  52.688  1.00  0.00     0.012 C 
HETATM   19  C13 UNL     1      22.467   1.900  52.645  1.00  0.00     0.154 C 
HETATM   20  O2  UNL     1      22.474   0.611  53.172  1.00  0.00    -0.334 OA
HETATM   21  C14 UNL     1      23.642  -0.159  53.263  1.00  0.00     0.142 C 
HETATM   22  C15 UNL     1      24.751   0.423  52.812  1.00  0.00     0.039 C 
ENDBRANCH   9  17
BRANCH   1  23
HETATM   23  O1  UNL     1      28.792   7.369  47.443  1.00  0.00    -0.356 OA
HETATM   24  C1  UNL     1      29.593   8.174  48.284  1.00  0.00     0.210 C 
ENDBRANCH   1  23
TORSDOF 4
ENDMDL
