MODEL 1
REMARK VINA RESULT:      -7.4      0.000      0.000
REMARK  6 active torsions:
REMARK  status: ('A' for Active; 'I' for Inactive)
REMARK    1  A    between atoms: C1_2  and  C2_3 
REMARK    2  A    between atoms: C2_3  and  N1_4 
REMARK    3  A    between atoms: N1_4  and  C3_5 
REMARK    4  A    between atoms: C3_5  and  C4_6 
REMARK    5  A    between atoms: C9_13  and  N4_14 
REMARK    6  A    between atoms: N4_14  and  C10_15 
ROOT
HETATM    1  C4  UNL     1      26.019  -0.068  52.795  1.00  0.00     0.001 C 
HETATM    2  C5  UNL     1      24.935  -0.206  53.506  1.00  0.00    -0.041 C 
HETATM    3  C6  UNL     1      24.797  -0.985  54.727  1.00  0.00     0.036 C 
HETATM    4  C7  UNL     1      23.482  -0.978  54.717  1.00  0.00     0.052 C 
HETATM    5  N2  UNL     1      22.188  -1.297  55.197  1.00  0.00    -0.245 NA
HETATM    6  C8  UNL     1      21.141  -1.038  54.440  1.00  0.00     0.235 C 
HETATM    7  N3  UNL     1      21.372  -0.414  53.193  1.00  0.00    -0.228 NA
HETATM    8  C9  UNL     1      22.490  -0.022  52.707  1.00  0.00     0.120 C 
HETATM    9  C16 UNL     1      23.558   0.066  53.692  1.00  0.00     0.140 C 
ENDROOT
BRANCH   8  10
HETATM   10  N4  UNL     1      22.682   0.578  51.429  1.00  0.00    -0.344 N 
HETATM   11  H10 UNL     1      22.599   0.063  50.530  1.00  0.00     0.167 HD
BRANCH  10  12
HETATM   12  C10 UNL     1      23.007   1.986  51.498  1.00  0.00     0.034 A 
HETATM   13  C11 UNL     1      22.315   2.924  52.249  1.00  0.00     0.029 A 
HETATM   14  C12 UNL     1      22.642   4.266  52.269  1.00  0.00     0.004 A 
HETATM   15  C13 UNL     1      23.692   4.720  51.520  1.00  0.00     0.019 A 
HETATM   16  C14 UNL     1      24.408   3.820  50.757  1.00  0.00     0.013 A 
HETATM   17 BR1  UNL     1      25.848   4.576  49.752  1.00  0.00    -0.051 Br
HETATM   18  C15 UNL     1      24.064   2.496  50.759  1.00  0.00     0.048 A 
ENDBRANCH  10  12
ENDBRANCH   8  10
BRANCH   1  19
HETATM   19  C3  UNL     1      27.425  -0.468  52.730  1.00  0.00     0.142 C 
BRANCH  19  20
HETATM   20  N1  UNL     1      28.086  -0.751  53.951  1.00  0.00    -0.412 N 
HETATM   21  H4  UNL     1      28.356  -1.707  54.126  1.00  0.00     0.153 HD
BRANCH  20  22
HETATM   22  C2  UNL     1      28.464   0.282  54.814  1.00  0.00     0.183 C 
BRANCH  22  23
HETATM   23  C1  UNL     1      29.080   1.473  54.091  1.00  0.00     0.250 C 
HETATM   24  O1  UNL     1      28.537   2.569  54.165  1.00  0.00    -0.305 OA
ENDBRANCH  22  23
ENDBRANCH  20  22
ENDBRANCH  19  20
ENDBRANCH   1  19
TORSDOF 6
ENDMDL
MODEL 2
REMARK VINA RESULT:      -7.4      2.912      5.300
REMARK  6 active torsions:
REMARK  status: ('A' for Active; 'I' for Inactive)
REMARK    1  A    between atoms: C1_2  and  C2_3 
REMARK    2  A    between atoms: C2_3  and  N1_4 
REMARK    3  A    between atoms: N1_4  and  C3_5 
REMARK    4  A    between atoms: C3_5  and  C4_6 
REMARK    5  A    between atoms: C9_13  and  N4_14 
REMARK    6  A    between atoms: N4_14  and  C10_15 
ROOT
HETATM    1  C4  UNL     1      23.341   1.157  51.664  1.00  0.00     0.001 C 
HETATM    2  C5  UNL     1      24.490   1.152  52.282  1.00  0.00    -0.041 C 
HETATM    3  C6  UNL     1      24.695   1.064  53.719  1.00  0.00     0.036 C 
HETATM    4  C7  UNL     1      25.955   1.438  53.675  1.00  0.00     0.052 C 
HETATM    5  N2  UNL     1      27.222   1.766  54.219  1.00  0.00    -0.245 NA
HETATM    6  C8  UNL     1      28.133   2.311  53.439  1.00  0.00     0.235 C 
HETATM    7  N3  UNL     1      27.801   2.505  52.078  1.00  0.00    -0.228 NA
HETATM    8  C9  UNL     1      26.716   2.176  51.481  1.00  0.00     0.120 C 
HETATM    9  C16 UNL     1      25.902   1.227  52.227  1.00  0.00     0.140 C 
ENDROOT
BRANCH   8  10
HETATM   10  N4  UNL     1      26.410   2.417  50.111  1.00  0.00    -0.344 N 
HETATM   11  H10 UNL     1      26.233   1.662  49.417  1.00  0.00     0.167 HD
BRANCH  10  12
HETATM   12  C10 UNL     1      26.365   3.822  49.769  1.00  0.00     0.034 A 
HETATM   13  C11 UNL     1      27.245   4.457  48.906  1.00  0.00     0.029 A 
HETATM   14  C12 UNL     1      27.183   5.808  48.625  1.00  0.00     0.004 A 
HETATM   15  C13 UNL     1      26.221   6.581  49.211  1.00  0.00     0.019 A 
HETATM   16  C14 UNL     1      25.324   5.989  50.077  1.00  0.00     0.013 A 
HETATM   17 BR1  UNL     1      24.030   7.173  50.837  1.00  0.00    -0.051 Br
HETATM   18  C15 UNL     1      25.406   4.648  50.336  1.00  0.00     0.048 A 
ENDBRANCH  10  12
ENDBRANCH   8  10
BRANCH   1  19
HETATM   19  C3  UNL     1      21.897   1.099  51.894  1.00  0.00     0.142 C 
BRANCH  19  20
HETATM   20  N1  UNL     1      21.367  -0.091  52.450  1.00  0.00    -0.412 N 
HETATM   21  H4  UNL     1      21.221  -0.873  51.829  1.00  0.00     0.153 HD
BRANCH  20  22
HETATM   22  C2  UNL     1      21.180  -0.213  53.830  1.00  0.00     0.183 C 
BRANCH  22  23
HETATM   23  C1  UNL     1      21.712  -1.525  54.393  1.00  0.00     0.250 C 
HETATM   24  O1  UNL     1      22.384  -1.512  55.417  1.00  0.00    -0.305 OA
ENDBRANCH  22  23
ENDBRANCH  20  22
ENDBRANCH  19  20
ENDBRANCH   1  19
TORSDOF 6
ENDMDL
MODEL 3
REMARK VINA RESULT:      -7.3      2.923      4.535
REMARK  6 active torsions:
REMARK  status: ('A' for Active; 'I' for Inactive)
REMARK    1  A    between atoms: C1_2  and  C2_3 
REMARK    2  A    between atoms: C2_3  and  N1_4 
REMARK    3  A    between atoms: N1_4  and  C3_5 
REMARK    4  A    between atoms: C3_5  and  C4_6 
REMARK    5  A    between atoms: C9_13  and  N4_14 
REMARK    6  A    between atoms: N4_14  and  C10_15 
ROOT
HETATM    1  C4  UNL     1      24.998   0.140  53.022  1.00  0.00     0.001 C 
HETATM    2  C5  UNL     1      24.661   1.369  52.747  1.00  0.00    -0.041 C 
HETATM    3  C6  UNL     1      25.077   2.561  53.470  1.00  0.00     0.036 C 
HETATM    4  C7  UNL     1      24.170   3.344  52.927  1.00  0.00     0.052 C 
HETATM    5  N2  UNL     1      23.478   4.562  52.719  1.00  0.00    -0.245 NA
HETATM    6  C8  UNL     1      22.365   4.555  52.013  1.00  0.00     0.235 C 
HETATM    7  N3  UNL     1      21.943   3.321  51.466  1.00  0.00    -0.228 NA
HETATM    8  C9  UNL     1      22.536   2.188  51.538  1.00  0.00     0.120 C 
HETATM    9  C16 UNL     1      23.929   2.281  51.948  1.00  0.00     0.140 C 
ENDROOT
BRANCH   8  10
HETATM   10  N4  UNL     1      22.059   0.960  50.996  1.00  0.00    -0.344 N 
HETATM   11  H10 UNL     1      22.416   0.541  50.114  1.00  0.00     0.167 HD
BRANCH  10  12
HETATM   12  C10 UNL     1      21.024   0.341  51.795  1.00  0.00     0.034 A 
HETATM   13  C11 UNL     1      21.231  -0.289  53.012  1.00  0.00     0.029 A 
HETATM   14  C12 UNL     1      20.217  -0.890  53.733  1.00  0.00     0.004 A 
HETATM   15  C13 UNL     1      18.940  -0.880  53.248  1.00  0.00     0.019 A 
HETATM   16  C14 UNL     1      18.689  -0.262  52.040  1.00  0.00     0.013 A 
HETATM   17 BR1  UNL     1      16.866  -0.317  51.465  1.00  0.00    -0.051 Br
HETATM   18  C15 UNL     1      19.711   0.328  51.347  1.00  0.00     0.048 A 
ENDBRANCH  10  12
ENDBRANCH   8  10
BRANCH   1  19
HETATM   19  C3  UNL     1      25.783  -0.669  53.955  1.00  0.00     0.142 C 
BRANCH  19  20
HETATM   20  N1  UNL     1      27.195  -0.571  53.885  1.00  0.00    -0.412 N 
HETATM   21  H4  UNL     1      27.658  -1.033  53.116  1.00  0.00     0.153 HD
BRANCH  20  22
HETATM   22  C2  UNL     1      27.900   0.247  54.773  1.00  0.00     0.183 C 
BRANCH  22  23
HETATM   23  C1  UNL     1      28.753   1.297  54.072  1.00  0.00     0.250 C 
HETATM   24  O1  UNL     1      28.519   2.485  54.259  1.00  0.00    -0.305 OA
ENDBRANCH  22  23
ENDBRANCH  20  22
ENDBRANCH  19  20
ENDBRANCH   1  19
TORSDOF 6
ENDMDL
MODEL 4
REMARK VINA RESULT:      -7.3      2.955      5.330
REMARK  6 active torsions:
REMARK  status: ('A' for Active; 'I' for Inactive)
REMARK    1  A    between atoms: C1_2  and  C2_3 
REMARK    2  A    between atoms: C2_3  and  N1_4 
REMARK    3  A    between atoms: N1_4  and  C3_5 
REMARK    4  A    between atoms: C3_5  and  C4_6 
REMARK    5  A    between atoms: C9_13  and  N4_14 
REMARK    6  A    between atoms: N4_14  and  C10_15 
ROOT
HETATM    1  C4  UNL     1      26.137   2.298  50.980  1.00  0.00     0.001 C 
HETATM    2  C5  UNL     1      26.613   2.011  52.160  1.00  0.00    -0.041 C 
HETATM    3  C6  UNL     1      27.830   2.544  52.751  1.00  0.00     0.036 C 
HETATM    4  C7  UNL     1      27.890   1.646  53.711  1.00  0.00     0.052 C 
HETATM    5  N2  UNL     1      28.448   1.011  54.848  1.00  0.00    -0.245 NA
HETATM    6  C8  UNL     1      27.958  -0.148  55.240  1.00  0.00     0.235 C 
HETATM    7  N3  UNL     1      26.865  -0.676  54.515  1.00  0.00    -0.228 NA
HETATM    8  C9  UNL     1      26.249  -0.145  53.526  1.00  0.00     0.120 C 
HETATM    9  C16 UNL     1      26.515   1.277  53.366  1.00  0.00     0.140 C 
ENDROOT
BRANCH   8  10
HETATM   10  N4  UNL     1      25.168  -0.727  52.804  1.00  0.00    -0.344 N 
HETATM   11  H10 UNL     1      25.288  -1.298  51.944  1.00  0.00     0.167 HD
BRANCH  10  12
HETATM   12  C10 UNL     1      23.872  -0.449  53.385  1.00  0.00     0.034 A 
HETATM   13  C11 UNL     1      23.349  -1.085  54.500  1.00  0.00     0.029 A 
HETATM   14  C12 UNL     1      22.095  -0.808  55.009  1.00  0.00     0.004 A 
HETATM   15  C13 UNL     1      21.310   0.134  54.405  1.00  0.00     0.019 A 
HETATM   16  C14 UNL     1      21.791   0.792  53.292  1.00  0.00     0.013 A 
HETATM   17 BR1  UNL     1      20.599   2.080  52.534  1.00  0.00    -0.051 Br
HETATM   18  C15 UNL     1      23.038   0.499  52.810  1.00  0.00     0.048 A 
ENDBRANCH  10  12
ENDBRANCH   8  10
BRANCH   1  19
HETATM   19  C3  UNL     1      26.398   3.100  49.784  1.00  0.00     0.142 C 
BRANCH  19  20
HETATM   20  N1  UNL     1      26.812   4.442  49.970  1.00  0.00    -0.412 N 
HETATM   21  H4  UNL     1      27.265   4.675  50.841  1.00  0.00     0.153 HD
BRANCH  20  22
HETATM   22  C2  UNL     1      26.713   5.372  48.930  1.00  0.00     0.183 C 
BRANCH  22  23
HETATM   23  C1  UNL     1      28.058   5.717  48.304  1.00  0.00     0.250 C 
HETATM   24  O1  UNL     1      29.064   5.124  48.674  1.00  0.00    -0.305 OA
ENDBRANCH  22  23
ENDBRANCH  20  22
ENDBRANCH  19  20
ENDBRANCH   1  19
TORSDOF 6
ENDMDL
MODEL 5
REMARK VINA RESULT:      -7.1      3.069      4.753
REMARK  6 active torsions:
REMARK  status: ('A' for Active; 'I' for Inactive)
REMARK    1  A    between atoms: C1_2  and  C2_3 
REMARK    2  A    between atoms: C2_3  and  N1_4 
REMARK    3  A    between atoms: N1_4  and  C3_5 
REMARK    4  A    between atoms: C3_5  and  C4_6 
REMARK    5  A    between atoms: C9_13  and  N4_14 
REMARK    6  A    between atoms: N4_14  and  C10_15 
ROOT
HETATM    1  C4  UNL     1      25.854   1.115  53.851  1.00  0.00     0.001 C 
HETATM    2  C5  UNL     1      25.997   1.663  52.677  1.00  0.00    -0.041 C 
HETATM    3  C6  UNL     1      27.248   1.859  51.962  1.00  0.00     0.036 C 
HETATM    4  C7  UNL     1      26.748   2.707  51.090  1.00  0.00     0.052 C 
HETATM    5  N2  UNL     1      26.788   3.595  49.986  1.00  0.00    -0.245 NA
HETATM    6  C8  UNL     1      25.742   4.357  49.738  1.00  0.00     0.235 C 
HETATM    7  N3  UNL     1      24.613   4.215  50.577  1.00  0.00    -0.228 NA
HETATM    8  C9  UNL     1      24.455   3.394  51.548  1.00  0.00     0.120 C 
HETATM    9  C16 UNL     1      25.418   2.303  51.555  1.00  0.00     0.140 C 
ENDROOT
BRANCH   8  10
HETATM   10  N4  UNL     1      23.309   3.304  52.388  1.00  0.00    -0.344 N 
HETATM   11  H10 UNL     1      23.090   3.985  53.143  1.00  0.00     0.167 HD
BRANCH  10  12
HETATM   12  C10 UNL     1      22.466   2.166  52.092  1.00  0.00     0.034 A 
HETATM   13  C11 UNL     1      21.819   1.951  50.885  1.00  0.00     0.029 A 
HETATM   14  C12 UNL     1      21.002   0.862  50.649  1.00  0.00     0.004 A 
HETATM   15  C13 UNL     1      20.801  -0.062  51.636  1.00  0.00     0.019 A 
HETATM   16  C14 UNL     1      21.426   0.113  52.854  1.00  0.00     0.013 A 
HETATM   17 BR1  UNL     1      21.063  -1.242  54.153  1.00  0.00    -0.051 Br
HETATM   18  C15 UNL     1      22.232   1.199  53.059  1.00  0.00     0.048 A 
ENDBRANCH  10  12
ENDBRANCH   8  10
BRANCH   1  19
HETATM   19  C3  UNL     1      26.607   0.501  54.946  1.00  0.00     0.142 C 
BRANCH  19  20
HETATM   20  N1  UNL     1      27.495  -0.555  54.623  1.00  0.00    -0.412 N 
HETATM   21  H4  UNL     1      27.098  -1.470  54.469  1.00  0.00     0.153 HD
BRANCH  20  22
HETATM   22  C2  UNL     1      28.852  -0.304  54.397  1.00  0.00     0.183 C 
BRANCH  22  23
HETATM   23  C1  UNL     1      29.502  -1.317  53.463  1.00  0.00     0.250 C 
HETATM   24  O1  UNL     1      29.074  -2.464  53.428  1.00  0.00    -0.305 OA
ENDBRANCH  22  23
ENDBRANCH  20  22
ENDBRANCH  19  20
ENDBRANCH   1  19
TORSDOF 6
ENDMDL
MODEL 6
REMARK VINA RESULT:      -7.1      3.758      5.957
REMARK  6 active torsions:
REMARK  status: ('A' for Active; 'I' for Inactive)
REMARK    1  A    between atoms: C1_2  and  C2_3 
REMARK    2  A    between atoms: C2_3  and  N1_4 
REMARK    3  A    between atoms: N1_4  and  C3_5 
REMARK    4  A    between atoms: C3_5  and  C4_6 
REMARK    5  A    between atoms: C9_13  and  N4_14 
REMARK    6  A    between atoms: N4_14  and  C10_15 
ROOT
HETATM    1  C4  UNL     1      26.522   4.068  49.594  1.00  0.00     0.001 C 
HETATM    2  C5  UNL     1      25.332   3.633  49.900  1.00  0.00    -0.041 C 
HETATM    3  C6  UNL     1      24.091   3.957  49.213  1.00  0.00     0.036 C 
HETATM    4  C7  UNL     1      23.311   3.508  50.172  1.00  0.00     0.052 C 
HETATM    5  N2  UNL     1      22.073   3.226  50.800  1.00  0.00    -0.245 NA
HETATM    6  C8  UNL     1      22.066   2.843  52.061  1.00  0.00     0.235 C 
HETATM    7  N3  UNL     1      23.315   2.696  52.709  1.00  0.00    -0.228 NA
HETATM    8  C9  UNL     1      24.482   2.854  52.206  1.00  0.00     0.120 C 
HETATM    9  C16 UNL     1      24.497   2.870  50.751  1.00  0.00     0.140 C 
ENDROOT
BRANCH   8  10
HETATM   10  N4  UNL     1      25.717   2.724  52.904  1.00  0.00    -0.344 N 
HETATM   11  H10 UNL     1      26.201   3.515  53.375  1.00  0.00     0.167 HD
BRANCH  10  12
HETATM   12  C10 UNL     1      26.241   1.375  52.901  1.00  0.00     0.034 A 
HETATM   13  C11 UNL     1      25.495   0.235  52.647  1.00  0.00     0.029 A 
HETATM   14  C12 UNL     1      26.028  -1.039  52.677  1.00  0.00     0.004 A 
HETATM   15  C13 UNL     1      27.352  -1.214  52.970  1.00  0.00     0.019 A 
HETATM   16  C14 UNL     1      28.132  -0.105  53.229  1.00  0.00     0.013 A 
HETATM   17 BR1  UNL     1      29.963  -0.480  53.630  1.00  0.00    -0.051 Br
HETATM   18  C15 UNL     1      27.578   1.145  53.190  1.00  0.00     0.048 A 
ENDBRANCH  10  12
ENDBRANCH   8  10
BRANCH   1  19
HETATM   19  C3  UNL     1      27.240   4.924  48.647  1.00  0.00     0.142 C 
BRANCH  19  20
HETATM   20  N1  UNL     1      28.509   5.417  49.038  1.00  0.00    -0.412 N 
HETATM   21  H4  UNL     1      28.699   5.488  50.026  1.00  0.00     0.153 HD
BRANCH  20  22
HETATM   22  C2  UNL     1      29.502   5.668  48.087  1.00  0.00     0.183 C 
BRANCH  22  23
HETATM   23  C1  UNL     1      30.826   6.104  48.703  1.00  0.00     0.250 C 
HETATM   24  O1  UNL     1      31.370   5.386  49.532  1.00  0.00    -0.305 OA
ENDBRANCH  22  23
ENDBRANCH  20  22
ENDBRANCH  19  20
ENDBRANCH   1  19
TORSDOF 6
ENDMDL
MODEL 7
REMARK VINA RESULT:      -7.0      2.437      4.889
REMARK  6 active torsions:
REMARK  status: ('A' for Active; 'I' for Inactive)
REMARK    1  A    between atoms: C1_2  and  C2_3 
REMARK    2  A    between atoms: C2_3  and  N1_4 
REMARK    3  A    between atoms: N1_4  and  C3_5 
REMARK    4  A    between atoms: C3_5  and  C4_6 
REMARK    5  A    between atoms: C9_13  and  N4_14 
REMARK    6  A    between atoms: N4_14  and  C10_15 
ROOT
HETATM    1  C4  UNL     1      24.294  -0.342  53.203  1.00  0.00     0.001 C 
HETATM    2  C5  UNL     1      25.517  -0.090  53.581  1.00  0.00    -0.041 C 
HETATM    3  C6  UNL     1      26.022  -0.121  54.944  1.00  0.00     0.036 C 
HETATM    4  C7  UNL     1      27.136   0.521  54.666  1.00  0.00     0.052 C 
HETATM    5  N2  UNL     1      28.384   1.123  54.959  1.00  0.00    -0.245 NA
HETATM    6  C8  UNL     1      28.979   1.850  54.035  1.00  0.00     0.235 C 
HETATM    7  N3  UNL     1      28.345   1.956  52.776  1.00  0.00    -0.228 NA
HETATM    8  C9  UNL     1      27.260   1.393  52.394  1.00  0.00     0.120 C 
HETATM    9  C16 UNL     1      26.838   0.293  53.250  1.00  0.00     0.140 C 
ENDROOT
BRANCH   8  10
HETATM   10  N4  UNL     1      26.639   1.551  51.122  1.00  0.00    -0.344 N 
HETATM   11  H10 UNL     1      26.714   0.856  50.352  1.00  0.00     0.167 HD
BRANCH  10  12
HETATM   12  C10 UNL     1      25.885   2.779  50.998  1.00  0.00     0.034 A 
HETATM   13  C11 UNL     1      24.717   3.065  51.686  1.00  0.00     0.029 A 
HETATM   14  C12 UNL     1      24.012   4.242  51.521  1.00  0.00     0.004 A 
HETATM   15  C13 UNL     1      24.464   5.187  50.642  1.00  0.00     0.019 A 
HETATM   16  C14 UNL     1      25.624   4.943  49.936  1.00  0.00     0.013 A 
HETATM   17 BR1  UNL     1      26.150   6.336  48.737  1.00  0.00    -0.051 Br
HETATM   18  C15 UNL     1      26.303   3.770  50.121  1.00  0.00     0.048 A 
ENDBRANCH  10  12
ENDBRANCH   8  10
BRANCH   1  19
HETATM   19  C3  UNL     1      22.973  -0.714  53.712  1.00  0.00     0.142 C 
BRANCH  19  20
HETATM   20  N1  UNL     1      21.855  -0.473  52.877  1.00  0.00    -0.412 N 
HETATM   21  H4  UNL     1      20.988  -0.932  53.112  1.00  0.00     0.153 HD
BRANCH  20  22
HETATM   22  C2  UNL     1      21.922   0.470  51.846  1.00  0.00     0.183 C 
BRANCH  22  23
HETATM   23  C1  UNL     1      21.041   1.689  52.090  1.00  0.00     0.250 C 
HETATM   24  O1  UNL     1      20.397   1.768  53.129  1.00  0.00    -0.305 OA
ENDBRANCH  22  23
ENDBRANCH  20  22
ENDBRANCH  19  20
ENDBRANCH   1  19
TORSDOF 6
ENDMDL
MODEL 8
REMARK VINA RESULT:      -6.9      3.005      5.270
REMARK  6 active torsions:
REMARK  status: ('A' for Active; 'I' for Inactive)
REMARK    1  A    between atoms: C1_2  and  C2_3 
REMARK    2  A    between atoms: C2_3  and  N1_4 
REMARK    3  A    between atoms: N1_4  and  C3_5 
REMARK    4  A    between atoms: C3_5  and  C4_6 
REMARK    5  A    between atoms: C9_13  and  N4_14 
REMARK    6  A    between atoms: N4_14  and  C10_15 
ROOT
HETATM    1  C4  UNL     1      23.269  -0.322  54.006  1.00  0.00     0.001 C 
HETATM    2  C5  UNL     1      24.553  -0.157  53.850  1.00  0.00    -0.041 C 
HETATM    3  C6  UNL     1      25.602  -1.034  54.344  1.00  0.00     0.036 C 
HETATM    4  C7  UNL     1      26.572  -0.165  54.159  1.00  0.00     0.052 C 
HETATM    5  N2  UNL     1      27.909   0.301  54.196  1.00  0.00    -0.245 NA
HETATM    6  C8  UNL     1      28.152   1.573  53.951  1.00  0.00     0.235 C 
HETATM    7  N3  UNL     1      27.053   2.400  53.625  1.00  0.00    -0.228 NA
HETATM    8  C9  UNL     1      25.825   2.057  53.495  1.00  0.00     0.120 C 
HETATM    9  C16 UNL     1      25.628   0.621  53.360  1.00  0.00     0.140 C 
ENDROOT
BRANCH   8  10
HETATM   10  N4  UNL     1      24.741   2.931  53.193  1.00  0.00    -0.344 N 
HETATM   11  H10 UNL     1      24.246   3.505  53.905  1.00  0.00     0.167 HD
BRANCH  10  12
HETATM   12  C10 UNL     1      24.390   2.948  51.790  1.00  0.00     0.034 A 
HETATM   13  C11 UNL     1      25.070   3.653  50.810  1.00  0.00     0.029 A 
HETATM   14  C12 UNL     1      24.687   3.663  49.482  1.00  0.00     0.004 A 
HETATM   15  C13 UNL     1      23.587   2.953  49.088  1.00  0.00     0.019 A 
HETATM   16  C14 UNL     1      22.880   2.236  50.032  1.00  0.00     0.013 A 
HETATM   17 BR1  UNL     1      21.361   1.290  49.359  1.00  0.00    -0.051 Br
HETATM   18  C15 UNL     1      23.283   2.242  51.339  1.00  0.00     0.048 A 
ENDBRANCH  10  12
ENDBRANCH   8  10
BRANCH   1  19
HETATM   19  C3  UNL     1      22.276  -1.219  54.600  1.00  0.00     0.142 C 
BRANCH  19  20
HETATM   20  N1  UNL     1      20.951  -0.735  54.737  1.00  0.00    -0.412 N 
HETATM   21  H4  UNL     1      20.385  -1.125  55.476  1.00  0.00     0.153 HD
BRANCH  20  22
HETATM   22  C2  UNL     1      20.498   0.336  53.961  1.00  0.00     0.183 C 
BRANCH  22  23
HETATM   23  C1  UNL     1      19.566  -0.093  52.834  1.00  0.00     0.250 C 
HETATM   24  O1  UNL     1      18.622  -0.832  53.082  1.00  0.00    -0.305 OA
ENDBRANCH  22  23
ENDBRANCH  20  22
ENDBRANCH  19  20
ENDBRANCH   1  19
TORSDOF 6
ENDMDL
MODEL 9
REMARK VINA RESULT:      -6.9      3.442      6.501
REMARK  6 active torsions:
REMARK  status: ('A' for Active; 'I' for Inactive)
REMARK    1  A    between atoms: C1_2  and  C2_3 
REMARK    2  A    between atoms: C2_3  and  N1_4 
REMARK    3  A    between atoms: N1_4  and  C3_5 
REMARK    4  A    between atoms: C3_5  and  C4_6 
REMARK    5  A    between atoms: C9_13  and  N4_14 
REMARK    6  A    between atoms: N4_14  and  C10_15 
ROOT
HETATM    1  C4  UNL     1      22.539   0.684  53.252  1.00  0.00     0.001 C 
HETATM    2  C5  UNL     1      22.790   1.478  52.248  1.00  0.00    -0.041 C 
HETATM    3  C6  UNL     1      22.247   1.367  50.904  1.00  0.00     0.036 C 
HETATM    4  C7  UNL     1      23.113   2.196  50.364  1.00  0.00     0.052 C 
HETATM    5  N2  UNL     1      23.716   2.923  49.307  1.00  0.00    -0.245 NA
HETATM    6  C8  UNL     1      24.858   3.543  49.524  1.00  0.00     0.235 C 
HETATM    7  N3  UNL     1      25.403   3.476  50.828  1.00  0.00    -0.228 NA
HETATM    8  C9  UNL     1      24.899   2.910  51.860  1.00  0.00     0.120 C 
HETATM    9  C16 UNL     1      23.485   2.594  51.724  1.00  0.00     0.140 C 
ENDROOT
BRANCH   8  10
HETATM   10  N4  UNL     1      25.497   2.841  53.151  1.00  0.00    -0.344 N 
HETATM   11  H10 UNL     1      25.192   3.418  53.960  1.00  0.00     0.167 HD
BRANCH  10  12
HETATM   12  C10 UNL     1      26.578   1.884  53.235  1.00  0.00     0.034 A 
HETATM   13  C11 UNL     1      27.880   2.187  53.604  1.00  0.00     0.029 A 
HETATM   14  C12 UNL     1      28.891   1.246  53.648  1.00  0.00     0.004 A 
HETATM   15  C13 UNL     1      28.625  -0.053  53.314  1.00  0.00     0.019 A 
HETATM   16  C14 UNL     1      27.342  -0.398  52.941  1.00  0.00     0.013 A 
HETATM   17 BR1  UNL     1      27.097  -2.241  52.494  1.00  0.00    -0.051 Br
HETATM   18  C15 UNL     1      26.359   0.553  52.909  1.00  0.00     0.048 A 
ENDBRANCH  10  12
ENDBRANCH   8  10
BRANCH   1  19
HETATM   19  C3  UNL     1      21.777  -0.507  53.629  1.00  0.00     0.142 C 
BRANCH  19  20
HETATM   20  N1  UNL     1      20.464  -0.318  54.127  1.00  0.00    -0.412 N 
HETATM   21  H4  UNL     1      20.350   0.284  54.929  1.00  0.00     0.153 HD
BRANCH  20  22
HETATM   22  C2  UNL     1      19.360  -0.841  53.448  1.00  0.00     0.183 C 
BRANCH  22  23
HETATM   23  C1  UNL     1      19.061  -0.117  52.141  1.00  0.00     0.250 C 
HETATM   24  O1  UNL     1      18.003  -0.330  51.563  1.00  0.00    -0.305 OA
ENDBRANCH  22  23
ENDBRANCH  20  22
ENDBRANCH  19  20
ENDBRANCH   1  19
TORSDOF 6
ENDMDL
