MODEL 1
REMARK VINA RESULT:      -8.5      0.000      0.000
REMARK  3 active torsions:
REMARK  status: ('A' for Active; 'I' for Inactive)
REMARK    1  A    between atoms: C1_2  and  C2_3 
REMARK    2  A    between atoms: C7_8  and  N1_9 
REMARK    3  A    between atoms: N1_9  and  C8_10 
ROOT
HETATM    1  C2  UNL     1      22.232   1.821  49.587  1.00  0.00    -0.011 A 
HETATM    2  C3  UNL     1      23.179   2.723  49.338  1.00  0.00     0.011 A 
HETATM    3  C4  UNL     1      23.990   2.962  50.549  1.00  0.00     0.005 A 
HETATM    4  C5  UNL     1      23.471   2.171  51.478  1.00  0.00    -0.062 A 
HETATM    5  C6  UNL     1      23.767   1.899  52.880  1.00  0.00     0.115 C 
HETATM    6  C7  UNL     1      24.368   0.539  53.078  1.00  0.00     0.128 C 
HETATM    7  N2  UNL     1      24.169  -0.613  53.633  1.00  0.00    -0.160 NA
HETATM    8  N3  UNL     1      22.993  -0.872  54.378  1.00  0.00    -0.269 N 
HETATM    9  C14 UNL     1      21.789  -0.182  53.981  1.00  0.00     0.247 C 
HETATM   10  N4  UNL     1      21.584  -0.355  52.740  1.00  0.00    -0.173 NA
HETATM   11  N5  UNL     1      20.519   0.159  51.998  1.00  0.00    -0.312 N 
HETATM   12  C15 UNL     1      21.059   1.507  51.758  1.00  0.00     0.155 C 
HETATM   13  C16 UNL     1      22.327   1.365  51.021  1.00  0.00     0.070 A 
HETATM   14  H11 UNL     1      23.549  -1.528  54.968  1.00  0.00     0.190 HD
HETATM   15  H13 UNL     1      19.563  -0.098  51.606  1.00  0.00     0.182 HD
ENDROOT
BRANCH   6  16
HETATM   16  N1  UNL     1      25.634   0.487  52.388  1.00  0.00    -0.343 N 
HETATM   17  H6  UNL     1      25.928   0.205  51.427  1.00  0.00     0.167 HD
BRANCH  16  18
HETATM   18  C8  UNL     1      26.934   0.843  52.901  1.00  0.00     0.035 A 
HETATM   19  C9  UNL     1      27.351   2.144  53.163  1.00  0.00     0.029 A 
HETATM   20  C10 UNL     1      28.635   2.289  53.653  1.00  0.00     0.004 A 
HETATM   21  C11 UNL     1      29.470   1.237  53.876  1.00  0.00     0.024 A 
HETATM   22  C12 UNL     1      29.052  -0.068  53.612  1.00  0.00     0.036 A 
HETATM   23 CL1  UNL     1      30.101  -1.439  53.888  1.00  0.00    -0.084 Cl
HETATM   24  C13 UNL     1      27.771  -0.226  53.123  1.00  0.00     0.053 A 
ENDBRANCH  16  18
ENDBRANCH   6  16
BRANCH   1  25
HETATM   25  C1  UNL     1      21.259   1.367  48.579  1.00  0.00     0.266 C 
HETATM   26  O1  UNL     1      20.778   2.286  47.852  1.00  0.00    -0.302 OA
ENDBRANCH   1  25
TORSDOF 3
ENDMDL
MODEL 2
REMARK VINA RESULT:      -8.2      3.468      5.205
REMARK  3 active torsions:
REMARK  status: ('A' for Active; 'I' for Inactive)
REMARK    1  A    between atoms: C1_2  and  C2_3 
REMARK    2  A    between atoms: C7_8  and  N1_9 
REMARK    3  A    between atoms: N1_9  and  C8_10 
ROOT
HETATM    1  C2  UNL     1      22.511  -0.383  53.418  1.00  0.00    -0.011 A 
HETATM    2  C3  UNL     1      21.797   0.621  52.914  1.00  0.00     0.011 A 
HETATM    3  C4  UNL     1      22.653   1.810  52.717  1.00  0.00     0.005 A 
HETATM    4  C5  UNL     1      23.859   1.442  53.124  1.00  0.00    -0.062 A 
HETATM    5  C6  UNL     1      25.160   2.097  53.210  1.00  0.00     0.115 C 
HETATM    6  C7  UNL     1      26.127   1.569  52.192  1.00  0.00     0.128 C 
HETATM    7  N2  UNL     1      27.249   0.937  52.055  1.00  0.00    -0.160 NA
HETATM    8  N3  UNL     1      27.983   0.500  53.184  1.00  0.00    -0.269 N 
HETATM    9  C14 UNL     1      27.238   0.147  54.367  1.00  0.00     0.247 C 
HETATM   10  N4  UNL     1      26.329  -0.689  54.068  1.00  0.00    -0.173 NA
HETATM   11  N5  UNL     1      25.409  -1.261  54.950  1.00  0.00    -0.312 N 
HETATM   12  C15 UNL     1      24.434  -0.158  54.980  1.00  0.00     0.155 C 
HETATM   13  C16 UNL     1      23.941   0.054  53.608  1.00  0.00     0.070 A 
HETATM   14  H11 UNL     1      28.856   0.630  52.626  1.00  0.00     0.190 HD
HETATM   15  H13 UNL     1      25.225  -2.135  55.526  1.00  0.00     0.182 HD
ENDROOT
BRANCH   6  16
HETATM   16  N1  UNL     1      25.621   1.866  50.874  1.00  0.00    -0.343 N 
HETATM   17  H6  UNL     1      25.205   1.291  50.108  1.00  0.00     0.167 HD
BRANCH  16  18
HETATM   18  C8  UNL     1      25.556   3.150  50.221  1.00  0.00     0.035 A 
HETATM   19  C9  UNL     1      24.403   3.919  50.104  1.00  0.00     0.029 A 
HETATM   20  C10 UNL     1      24.537   5.125  49.443  1.00  0.00     0.004 A 
HETATM   21  C11 UNL     1      25.716   5.563  48.923  1.00  0.00     0.024 A 
HETATM   22  C12 UNL     1      26.872   4.791  49.040  1.00  0.00     0.036 A 
HETATM   23 CL1  UNL     1      28.401   5.326  48.382  1.00  0.00    -0.084 Cl
HETATM   24  C13 UNL     1      26.752   3.584  49.698  1.00  0.00     0.053 A 
ENDBRANCH  16  18
ENDBRANCH   6  16
BRANCH   1  25
HETATM   25  C1  UNL     1      21.943  -1.706  53.728  1.00  0.00     0.266 C 
HETATM   26  O1  UNL     1      21.519  -1.838  54.915  1.00  0.00    -0.302 OA
ENDBRANCH   1  25
TORSDOF 3
ENDMDL
MODEL 3
REMARK VINA RESULT:      -7.9      3.863      7.113
REMARK  3 active torsions:
REMARK  status: ('A' for Active; 'I' for Inactive)
REMARK    1  A    between atoms: C1_2  and  C2_3 
REMARK    2  A    between atoms: C7_8  and  N1_9 
REMARK    3  A    between atoms: N1_9  and  C8_10 
ROOT
HETATM    1  C2  UNL     1      25.983  -0.153  52.898  1.00  0.00    -0.011 A 
HETATM    2  C3  UNL     1      25.015  -0.811  53.532  1.00  0.00     0.011 A 
HETATM    3  C4  UNL     1      23.743  -0.063  53.443  1.00  0.00     0.005 A 
HETATM    4  C5  UNL     1      24.028   1.027  52.744  1.00  0.00    -0.062 A 
HETATM    5  C6  UNL     1      23.266   2.183  52.286  1.00  0.00     0.115 C 
HETATM    6  C7  UNL     1      23.041   2.160  50.803  1.00  0.00     0.128 C 
HETATM    7  N2  UNL     1      23.303   2.791  49.703  1.00  0.00    -0.160 NA
HETATM    8  N3  UNL     1      24.086   3.970  49.706  1.00  0.00    -0.269 N 
HETATM    9  C14 UNL     1      25.102   4.092  50.722  1.00  0.00     0.247 C 
HETATM   10  N4  UNL     1      25.842   3.059  50.716  1.00  0.00    -0.173 NA
HETATM   11  N5  UNL     1      26.931   2.816  51.556  1.00  0.00    -0.312 N 
HETATM   12  C15 UNL     1      26.187   2.320  52.726  1.00  0.00     0.155 C 
HETATM   13  C16 UNL     1      25.433   1.124  52.314  1.00  0.00     0.070 A 
HETATM   14  H11 UNL     1      23.541   4.295  48.878  1.00  0.00     0.190 HD
HETATM   15  H13 UNL     1      27.992   2.873  51.598  1.00  0.00     0.182 HD
ENDROOT
BRANCH   6  16
HETATM   16  N1  UNL     1      22.243   1.004  50.473  1.00  0.00    -0.343 N 
HETATM   17  H6  UNL     1      22.461   0.046  50.119  1.00  0.00     0.167 HD
BRANCH  16  18
HETATM   18  C8  UNL     1      20.809   0.868  50.556  1.00  0.00     0.035 A 
HETATM   19  C9  UNL     1      19.912   1.402  49.637  1.00  0.00     0.029 A 
HETATM   20  C10 UNL     1      18.572   1.166  49.884  1.00  0.00     0.004 A 
HETATM   21  C11 UNL     1      18.125   0.457  50.957  1.00  0.00     0.024 A 
HETATM   22  C12 UNL     1      19.027  -0.077  51.878  1.00  0.00     0.036 A 
HETATM   23 CL1  UNL     1      18.484  -0.991  53.266  1.00  0.00    -0.084 Cl
HETATM   24  C13 UNL     1      20.367   0.150  51.643  1.00  0.00     0.053 A 
ENDBRANCH  16  18
ENDBRANCH   6  16
BRANCH   1  25
HETATM   25  C1  UNL     1      27.370  -0.640  52.806  1.00  0.00     0.266 C 
HETATM   26  O1  UNL     1      27.926  -0.873  53.921  1.00  0.00    -0.302 OA
ENDBRANCH   1  25
TORSDOF 3
ENDMDL
MODEL 4
REMARK VINA RESULT:      -7.8      3.972      5.509
REMARK  3 active torsions:
REMARK  status: ('A' for Active; 'I' for Inactive)
REMARK    1  A    between atoms: C1_2  and  C2_3 
REMARK    2  A    between atoms: C7_8  and  N1_9 
REMARK    3  A    between atoms: N1_9  and  C8_10 
ROOT
HETATM    1  C2  UNL     1      24.359  -0.498  54.197  1.00  0.00    -0.011 A 
HETATM    2  C3  UNL     1      25.508  -0.436  53.528  1.00  0.00     0.011 A 
HETATM    3  C4  UNL     1      25.324   0.300  52.260  1.00  0.00     0.005 A 
HETATM    4  C5  UNL     1      24.044   0.646  52.241  1.00  0.00    -0.062 A 
HETATM    5  C6  UNL     1      23.190   1.376  51.311  1.00  0.00     0.115 C 
HETATM    6  C7  UNL     1      22.808   2.729  51.835  1.00  0.00     0.128 C 
HETATM    7  N2  UNL     1      21.801   3.449  52.214  1.00  0.00    -0.160 NA
HETATM    8  N3  UNL     1      20.484   2.931  52.194  1.00  0.00    -0.269 N 
HETATM    9  C14 UNL     1      20.323   1.515  52.413  1.00  0.00     0.247 C 
HETATM   10  N4  UNL     1      20.926   1.174  53.478  1.00  0.00    -0.173 NA
HETATM   11  N5  UNL     1      20.993  -0.114  54.015  1.00  0.00    -0.312 N 
HETATM   12  C15 UNL     1      22.092  -0.632  53.183  1.00  0.00     0.155 C 
HETATM   13  C16 UNL     1      23.278   0.209  53.419  1.00  0.00     0.070 A 
HETATM   14  H11 UNL     1      20.141   3.899  52.009  1.00  0.00     0.190 HD
HETATM   15  H13 UNL     1      20.549  -0.747  54.746  1.00  0.00     0.182 HD
ENDROOT
BRANCH   6  16
HETATM   16  N1  UNL     1      24.004   3.523  51.981  1.00  0.00    -0.343 N 
HETATM   17  H6  UNL     1      24.510   3.932  52.798  1.00  0.00     0.167 HD
BRANCH  16  18
HETATM   18  C8  UNL     1      24.882   3.998  50.940  1.00  0.00     0.035 A 
HETATM   19  C9  UNL     1      26.083   3.395  50.585  1.00  0.00     0.029 A 
HETATM   20  C10 UNL     1      26.790   3.996  49.560  1.00  0.00     0.004 A 
HETATM   21  C11 UNL     1      26.361   5.116  48.917  1.00  0.00     0.024 A 
HETATM   22  C12 UNL     1      25.156   5.721  49.275  1.00  0.00     0.036 A 
HETATM   23 CL1  UNL     1      24.579   7.160  48.467  1.00  0.00    -0.084 Cl
HETATM   24  C13 UNL     1      24.440   5.131  50.296  1.00  0.00     0.053 A 
ENDBRANCH  16  18
ENDBRANCH   6  16
BRANCH   1  25
HETATM   25  C1  UNL     1      24.214  -1.167  55.502  1.00  0.00     0.266 C 
HETATM   26  O1  UNL     1      25.260  -1.169  56.216  1.00  0.00    -0.302 OA
ENDBRANCH   1  25
TORSDOF 3
ENDMDL
MODEL 5
REMARK VINA RESULT:      -7.8      8.111      9.648
REMARK  3 active torsions:
REMARK  status: ('A' for Active; 'I' for Inactive)
REMARK    1  A    between atoms: C1_2  and  C2_3 
REMARK    2  A    between atoms: C7_8  and  N1_9 
REMARK    3  A    between atoms: N1_9  and  C8_10 
ROOT
HETATM    1  C2  UNL     1      26.414   6.150  49.312  1.00  0.00    -0.011 A 
HETATM    2  C3  UNL     1      27.100   5.114  48.836  1.00  0.00     0.011 A 
HETATM    3  C4  UNL     1      28.329   5.579  48.159  1.00  0.00     0.005 A 
HETATM    4  C5  UNL     1      28.309   6.900  48.272  1.00  0.00    -0.062 A 
HETATM    5  C6  UNL     1      29.190   7.981  47.844  1.00  0.00     0.115 C 
HETATM    6  C7  UNL     1      29.913   8.611  48.998  1.00  0.00     0.128 C 
HETATM    7  N2  UNL     1      30.050   9.716  49.659  1.00  0.00    -0.160 NA
HETATM    8  N3  UNL     1      29.322  10.876  49.302  1.00  0.00    -0.269 N 
HETATM    9  C14 UNL     1      28.018  10.688  48.714  1.00  0.00     0.247 C 
HETATM   10  N4  UNL     1      27.320   9.927  49.452  1.00  0.00    -0.173 NA
HETATM   11  N5  UNL     1      26.006   9.517  49.210  1.00  0.00    -0.312 N 
HETATM   12  C15 UNL     1      26.297   8.412  48.282  1.00  0.00     0.155 C 
HETATM   13  C16 UNL     1      27.140   7.432  48.990  1.00  0.00     0.070 A 
HETATM   14  H11 UNL     1      30.121  11.447  49.654  1.00  0.00     0.190 HD
HETATM   15  H13 UNL     1      24.996   9.735  49.462  1.00  0.00     0.182 HD
ENDROOT
BRANCH   6  16
HETATM   16  N1  UNL     1      30.768   7.620  49.606  1.00  0.00    -0.343 N 
HETATM   17  H6  UNL     1      30.793   7.155  50.540  1.00  0.00     0.167 HD
BRANCH  16  18
HETATM   18  C8  UNL     1      31.912   6.963  49.022  1.00  0.00     0.035 A 
HETATM   19  C9  UNL     1      31.941   5.628  48.634  1.00  0.00     0.029 A 
HETATM   20  C10 UNL     1      33.130   5.175  48.092  1.00  0.00     0.004 A 
HETATM   21  C11 UNL     1      34.226   5.966  47.935  1.00  0.00     0.024 A 
HETATM   22  C12 UNL     1      34.195   7.305  48.325  1.00  0.00     0.036 A 
HETATM   23 CL1  UNL     1      35.588   8.346  48.137  1.00  0.00    -0.084 Cl
HETATM   24  C13 UNL     1      33.015   7.770  48.867  1.00  0.00     0.053 A 
ENDBRANCH  16  18
ENDBRANCH   6  16
BRANCH   1  25
HETATM   25  C1  UNL     1      25.141   6.016  50.040  1.00  0.00     0.266 C 
HETATM   26  O1  UNL     1      24.911   6.933  50.882  1.00  0.00    -0.302 OA
ENDBRANCH   1  25
TORSDOF 3
ENDMDL
MODEL 6
REMARK VINA RESULT:      -7.8      2.814      3.842
REMARK  3 active torsions:
REMARK  status: ('A' for Active; 'I' for Inactive)
REMARK    1  A    between atoms: C1_2  and  C2_3 
REMARK    2  A    between atoms: C7_8  and  N1_9 
REMARK    3  A    between atoms: N1_9  and  C8_10 
ROOT
HETATM    1  C2  UNL     1      19.963   1.838  51.314  1.00  0.00    -0.011 A 
HETATM    2  C3  UNL     1      20.453   0.606  51.202  1.00  0.00     0.011 A 
HETATM    3  C4  UNL     1      21.924   0.649  51.065  1.00  0.00     0.005 A 
HETATM    4  C5  UNL     1      22.239   1.937  51.105  1.00  0.00    -0.062 A 
HETATM    5  C6  UNL     1      23.484   2.694  51.028  1.00  0.00     0.115 C 
HETATM    6  C7  UNL     1      23.861   3.296  52.349  1.00  0.00     0.128 C 
HETATM    7  N2  UNL     1      24.045   4.422  52.962  1.00  0.00    -0.160 NA
HETATM    8  N3  UNL     1      23.868   5.656  52.292  1.00  0.00    -0.269 N 
HETATM    9  C14 UNL     1      22.891   5.704  51.232  1.00  0.00     0.247 C 
HETATM   10  N4  UNL     1      21.779   5.257  51.653  1.00  0.00    -0.173 NA
HETATM   11  N5  UNL     1      20.598   5.147  50.916  1.00  0.00    -0.312 N 
HETATM   12  C15 UNL     1      20.893   3.876  50.233  1.00  0.00     0.155 C 
HETATM   13  C16 UNL     1      21.088   2.840  51.262  1.00  0.00     0.070 A 
HETATM   14  H11 UNL     1      24.601   6.062  52.914  1.00  0.00     0.190 HD
HETATM   15  H13 UNL     1      19.675   5.640  50.726  1.00  0.00     0.182 HD
ENDROOT
BRANCH   6  16
HETATM   16  N1  UNL     1      24.103   2.232  53.293  1.00  0.00    -0.343 N 
HETATM   17  H6  UNL     1      23.612   1.896  54.151  1.00  0.00     0.167 HD
BRANCH  16  18
HETATM   18  C8  UNL     1      25.182   1.276  53.288  1.00  0.00     0.035 A 
HETATM   19  C9  UNL     1      25.040  -0.074  52.983  1.00  0.00     0.029 A 
HETATM   20  C10 UNL     1      26.192  -0.836  53.032  1.00  0.00     0.004 A 
HETATM   21  C11 UNL     1      27.411  -0.325  53.358  1.00  0.00     0.024 A 
HETATM   22  C12 UNL     1      27.552   1.029  53.664  1.00  0.00     0.036 A 
HETATM   23 CL1  UNL     1      29.104   1.714  54.087  1.00  0.00    -0.084 Cl
HETATM   24  C13 UNL     1      26.410   1.801  53.619  1.00  0.00     0.053 A 
ENDBRANCH  16  18
ENDBRANCH   6  16
BRANCH   1  25
HETATM   25  C1  UNL     1      18.527   2.129  51.466  1.00  0.00     0.266 C 
HETATM   26  O1  UNL     1      18.265   3.251  51.993  1.00  0.00    -0.302 OA
ENDBRANCH   1  25
TORSDOF 3
ENDMDL
MODEL 7
REMARK VINA RESULT:      -7.8      3.764      5.114
REMARK  3 active torsions:
REMARK  status: ('A' for Active; 'I' for Inactive)
REMARK    1  A    between atoms: C1_2  and  C2_3 
REMARK    2  A    between atoms: C7_8  and  N1_9 
REMARK    3  A    between atoms: N1_9  and  C8_10 
ROOT
HETATM    1  C2  UNL     1      20.075   2.410  49.974  1.00  0.00    -0.011 A 
HETATM    2  C3  UNL     1      20.398   1.370  49.208  1.00  0.00     0.011 A 
HETATM    3  C4  UNL     1      21.863   1.176  49.200  1.00  0.00     0.005 A 
HETATM    4  C5  UNL     1      22.346   2.132  49.981  1.00  0.00    -0.062 A 
HETATM    5  C6  UNL     1      23.680   2.530  50.416  1.00  0.00     0.115 C 
HETATM    6  C7  UNL     1      23.920   2.217  51.863  1.00  0.00     0.128 C 
HETATM    7  N2  UNL     1      24.159   2.756  53.016  1.00  0.00    -0.160 NA
HETATM    8  N3  UNL     1      24.268   4.160  53.158  1.00  0.00    -0.269 N 
HETATM    9  C14 UNL     1      23.491   4.982  52.262  1.00  0.00     0.247 C 
HETATM   10  N4  UNL     1      22.275   4.619  52.293  1.00  0.00    -0.173 NA
HETATM   11  N5  UNL     1      21.225   5.179  51.561  1.00  0.00    -0.312 N 
HETATM   12  C15 UNL     1      21.444   4.461  50.295  1.00  0.00     0.155 C 
HETATM   13  C16 UNL     1      21.323   3.017  50.562  1.00  0.00     0.070 A 
HETATM   14  H11 UNL     1      24.940   3.997  53.939  1.00  0.00     0.190 HD
HETATM   15  H13 UNL     1      20.423   5.874  51.635  1.00  0.00     0.182 HD
ENDROOT
BRANCH   6  16
HETATM   16  N1  UNL     1      23.853   0.787  52.046  1.00  0.00    -0.343 N 
HETATM   17  H6  UNL     1      24.317  -0.027  51.587  1.00  0.00     0.167 HD
BRANCH  16  18
HETATM   18  C8  UNL     1      23.054   0.055  52.998  1.00  0.00     0.035 A 
HETATM   19  C9  UNL     1      23.559  -0.594  54.119  1.00  0.00     0.029 A 
HETATM   20  C10 UNL     1      22.637  -1.245  54.916  1.00  0.00     0.004 A 
HETATM   21  C11 UNL     1      21.303  -1.268  54.645  1.00  0.00     0.024 A 
HETATM   22  C12 UNL     1      20.797  -0.617  53.520  1.00  0.00     0.036 A 
HETATM   23 CL1  UNL     1      19.089  -0.630  53.145  1.00  0.00    -0.084 Cl
HETATM   24  C13 UNL     1      21.708   0.037  52.715  1.00  0.00     0.053 A 
ENDBRANCH  16  18
ENDBRANCH   6  16
BRANCH   1  25
HETATM   25  C1  UNL     1      18.689   2.861  50.186  1.00  0.00     0.266 C 
HETATM   26  O1  UNL     1      18.370   3.046  51.398  1.00  0.00    -0.302 OA
ENDBRANCH   1  25
TORSDOF 3
ENDMDL
MODEL 8
REMARK VINA RESULT:      -7.7      3.669      5.806
REMARK  3 active torsions:
REMARK  status: ('A' for Active; 'I' for Inactive)
REMARK    1  A    between atoms: C1_2  and  C2_3 
REMARK    2  A    between atoms: C7_8  and  N1_9 
REMARK    3  A    between atoms: N1_9  and  C8_10 
ROOT
HETATM    1  C2  UNL     1      26.304   0.794  53.647  1.00  0.00    -0.011 A 
HETATM    2  C3  UNL     1      27.185   1.309  52.793  1.00  0.00     0.011 A 
HETATM    3  C4  UNL     1      26.494   1.820  51.589  1.00  0.00     0.005 A 
HETATM    4  C5  UNL     1      25.208   1.575  51.797  1.00  0.00    -0.062 A 
HETATM    5  C6  UNL     1      23.982   1.808  51.041  1.00  0.00     0.115 C 
HETATM    6  C7  UNL     1      23.139   2.889  51.650  1.00  0.00     0.128 C 
HETATM    7  N2  UNL     1      21.995   3.122  52.210  1.00  0.00    -0.160 NA
HETATM    8  N3  UNL     1      21.052   2.084  52.405  1.00  0.00    -0.269 N 
HETATM    9  C14 UNL     1      21.564   0.753  52.620  1.00  0.00     0.247 C 
HETATM   10  N4  UNL     1      22.419   0.768  53.559  1.00  0.00    -0.173 NA
HETATM   11  N5  UNL     1      23.128  -0.331  54.050  1.00  0.00    -0.312 N 
HETATM   12  C15 UNL     1      24.192  -0.368  53.033  1.00  0.00     0.155 C 
HETATM   13  C16 UNL     1      24.912   0.917  53.079  1.00  0.00     0.070 A 
HETATM   14  H11 UNL     1      20.296   2.795  52.301  1.00  0.00     0.190 HD
HETATM   15  H13 UNL     1      23.130  -1.051  54.833  1.00  0.00     0.182 HD
ENDROOT
BRANCH   6  16
HETATM   16  N1  UNL     1      23.873   4.130  51.606  1.00  0.00    -0.343 N 
HETATM   17  H6  UNL     1      24.366   4.710  52.321  1.00  0.00     0.167 HD
BRANCH  16  18
HETATM   18  C8  UNL     1      24.135   4.961  50.456  1.00  0.00     0.035 A 
HETATM   19  C9  UNL     1      23.170   5.699  49.779  1.00  0.00     0.029 A 
HETATM   20  C10 UNL     1      23.612   6.436  48.697  1.00  0.00     0.004 A 
HETATM   21  C11 UNL     1      24.912   6.459  48.292  1.00  0.00     0.024 A 
HETATM   22  C12 UNL     1      25.879   5.718  48.971  1.00  0.00     0.036 A 
HETATM   23 CL1  UNL     1      27.555   5.727  48.474  1.00  0.00    -0.084 Cl
HETATM   24  C13 UNL     1      25.451   4.977  50.054  1.00  0.00     0.053 A 
ENDBRANCH  16  18
ENDBRANCH   6  16
BRANCH   1  25
HETATM   25  C1  UNL     1      26.680   0.204  54.943  1.00  0.00     0.266 C 
HETATM   26  O1  UNL     1      27.709  -0.534  54.912  1.00  0.00    -0.302 OA
ENDBRANCH   1  25
TORSDOF 3
ENDMDL
MODEL 9
REMARK VINA RESULT:      -7.3      3.957      5.449
REMARK  3 active torsions:
REMARK  status: ('A' for Active; 'I' for Inactive)
REMARK    1  A    between atoms: C1_2  and  C2_3 
REMARK    2  A    between atoms: C7_8  and  N1_9 
REMARK    3  A    between atoms: N1_9  and  C8_10 
ROOT
HETATM    1  C2  UNL     1      21.930   4.435  47.610  1.00  0.00    -0.011 A 
HETATM    2  C3  UNL     1      22.045   3.117  47.469  1.00  0.00     0.011 A 
HETATM    3  C4  UNL     1      23.017   2.580  48.445  1.00  0.00     0.005 A 
HETATM    4  C5  UNL     1      23.438   3.634  49.131  1.00  0.00    -0.062 A 
HETATM    5  C6  UNL     1      24.380   3.838  50.227  1.00  0.00     0.115 C 
HETATM    6  C7  UNL     1      23.687   4.175  51.513  1.00  0.00     0.128 C 
HETATM    7  N2  UNL     1      23.547   5.104  52.405  1.00  0.00    -0.160 NA
HETATM    8  N3  UNL     1      24.229   6.339  52.287  1.00  0.00    -0.269 N 
HETATM    9  C14 UNL     1      24.504   6.823  50.956  1.00  0.00     0.247 C 
HETATM   10  N4  UNL     1      23.433   6.832  50.273  1.00  0.00    -0.173 NA
HETATM   11  N5  UNL     1      23.304   7.237  48.942  1.00  0.00    -0.312 N 
HETATM   12  C15 UNL     1      23.746   5.989  48.299  1.00  0.00     0.155 C 
HETATM   13  C16 UNL     1      22.834   4.911  48.718  1.00  0.00     0.070 A 
HETATM   14  H11 UNL     1      24.250   6.389  53.329  1.00  0.00     0.190 HD
HETATM   15  H13 UNL     1      23.020   8.064  48.337  1.00  0.00     0.182 HD
ENDROOT
BRANCH   6  16
HETATM   16  N1  UNL     1      22.862   3.057  51.903  1.00  0.00    -0.343 N 
HETATM   17  H6  UNL     1      21.842   2.846  51.833  1.00  0.00     0.167 HD
BRANCH  16  18
HETATM   18  C8  UNL     1      23.278   1.836  52.549  1.00  0.00     0.035 A 
HETATM   19  C9  UNL     1      24.601   1.426  52.684  1.00  0.00     0.029 A 
HETATM   20  C10 UNL     1      24.804   0.223  53.334  1.00  0.00     0.004 A 
HETATM   21  C11 UNL     1      23.788  -0.540  53.825  1.00  0.00     0.024 A 
HETATM   22  C12 UNL     1      22.462  -0.127  53.688  1.00  0.00     0.036 A 
HETATM   23 CL1  UNL     1      21.137  -1.085  54.306  1.00  0.00    -0.084 Cl
HETATM   24  C13 UNL     1      22.246   1.072  53.041  1.00  0.00     0.053 A 
ENDBRANCH  16  18
ENDBRANCH   6  16
BRANCH   1  25
HETATM   25  C1  UNL     1      21.037   5.264  46.782  1.00  0.00     0.266 C 
HETATM   26  O1  UNL     1      20.564   6.284  47.367  1.00  0.00    -0.302 OA
ENDBRANCH   1  25
TORSDOF 3
ENDMDL
