MODEL 1
REMARK VINA RESULT:      -8.0      0.000      0.000
REMARK  4 active torsions:
REMARK  status: ('A' for Active; 'I' for Inactive)
REMARK    1  A    between atoms: N1_5  and  C5_6 
REMARK    2  A    between atoms: C5_6  and  C6_7 
REMARK    3  A    between atoms: C13_14  and  C14_15 
REMARK    4  A    between atoms: C15_16  and  C16_17 
ROOT
HETATM    1  C16 UNL     1      26.968  -0.463  53.375  1.00  0.00     0.222 C 
HETATM    2  C17 UNL     1      27.894   0.051  54.403  1.00  0.00     0.082 C 
HETATM    3  N2  UNL     1      28.638   0.452  55.214  1.00  0.00    -0.196 NA
HETATM    4  C18 UNL     1      27.467  -1.755  52.965  1.00  0.00     0.082 C 
HETATM    5  N3  UNL     1      27.861  -2.807  52.629  1.00  0.00    -0.196 NA
ENDROOT
BRANCH   1   6
HETATM    6  C15 UNL     1      26.868   0.469  52.229  1.00  0.00     0.007 C 
HETATM    7  C14 UNL     1      26.908   1.792  52.381  1.00  0.00     0.001 C 
BRANCH   7   8
HETATM    8  C13 UNL     1      26.805   2.669  51.227  1.00  0.00     0.029 C 
HETATM    9  C12 UNL     1      25.777   3.269  50.697  1.00  0.00     0.036 C 
HETATM   10  C2  UNL     1      25.719   4.157  49.512  1.00  0.00    -0.039 C 
HETATM   11  N1  UNL     1      24.414   3.203  51.173  1.00  0.00    -0.376 N 
HETATM   12  C1  UNL     1      26.768   4.738  48.926  1.00  0.00     0.021 C 
HETATM   13  C3  UNL     1      24.286   4.255  49.125  1.00  0.00     0.060 C 
HETATM   14  C4  UNL     1      23.602   3.190  49.953  1.00  0.00     0.128 C 
BRANCH  11  15
HETATM   15  C5  UNL     1      23.950   3.159  52.550  1.00  0.00     0.161 C 
BRANCH  15  16
HETATM   16  C6  UNL     1      22.992   1.991  52.623  1.00  0.00    -0.040 A 
HETATM   17  C7  UNL     1      23.426   0.701  52.855  1.00  0.00     0.009 A 
HETATM   18  C8  UNL     1      22.569  -0.373  52.920  1.00  0.00     0.001 A 
HETATM   19  C9  UNL     1      21.226  -0.125  52.744  1.00  0.00     0.000 A 
HETATM   20  C10 UNL     1      20.728   1.128  52.511  1.00  0.00     0.001 A 
HETATM   21  C11 UNL     1      21.626   2.181  52.453  1.00  0.00     0.009 A 
ENDBRANCH  15  16
ENDBRANCH  11  15
ENDBRANCH   7   8
ENDBRANCH   1   6
TORSDOF 4
ENDMDL
MODEL 2
REMARK VINA RESULT:      -7.7      1.837      5.154
REMARK  4 active torsions:
REMARK  status: ('A' for Active; 'I' for Inactive)
REMARK    1  A    between atoms: N1_5  and  C5_6 
REMARK    2  A    between atoms: C5_6  and  C6_7 
REMARK    3  A    between atoms: C13_14  and  C14_15 
REMARK    4  A    between atoms: C15_16  and  C16_17 
ROOT
HETATM    1  C16 UNL     1      25.566   4.526  49.206  1.00  0.00     0.222 C 
HETATM    2  C17 UNL     1      26.846   5.135  48.794  1.00  0.00     0.082 C 
HETATM    3  N2  UNL     1      27.862   5.625  48.480  1.00  0.00    -0.196 NA
HETATM    4  C18 UNL     1      24.974   5.406  50.186  1.00  0.00     0.082 C 
HETATM    5  N3  UNL     1      24.483   6.116  50.978  1.00  0.00    -0.196 NA
ENDROOT
BRANCH   1   6
HETATM    6  C15 UNL     1      25.771   3.165  49.751  1.00  0.00     0.007 C 
HETATM    7  C14 UNL     1      26.584   2.922  50.779  1.00  0.00     0.001 C 
BRANCH   7   8
HETATM    8  C13 UNL     1      26.754   1.570  51.280  1.00  0.00     0.029 C 
HETATM    9  C12 UNL     1      26.278   0.985  52.343  1.00  0.00     0.036 C 
HETATM   10  C2  UNL     1      26.481  -0.404  52.817  1.00  0.00    -0.039 C 
HETATM   11  N1  UNL     1      25.404   1.584  53.325  1.00  0.00    -0.376 N 
HETATM   12  C1  UNL     1      26.971  -1.409  52.089  1.00  0.00     0.021 C 
HETATM   13  C3  UNL     1      26.040  -0.435  54.238  1.00  0.00     0.060 C 
HETATM   14  C4  UNL     1      25.850   1.020  54.602  1.00  0.00     0.128 C 
BRANCH  11  15
HETATM   15  C5  UNL     1      24.326   2.533  53.101  1.00  0.00     0.161 C 
BRANCH  15  16
HETATM   16  C6  UNL     1      23.241   1.759  52.387  1.00  0.00    -0.040 A 
HETATM   17  C7  UNL     1      22.831   2.080  51.108  1.00  0.00     0.009 A 
HETATM   18  C8  UNL     1      21.844   1.388  50.446  1.00  0.00     0.001 A 
HETATM   19  C9  UNL     1      21.255   0.334  51.107  1.00  0.00     0.000 A 
HETATM   20  C10 UNL     1      21.611  -0.039  52.374  1.00  0.00     0.001 A 
HETATM   21  C11 UNL     1      22.610   0.685  53.004  1.00  0.00     0.009 A 
ENDBRANCH  15  16
ENDBRANCH  11  15
ENDBRANCH   7   8
ENDBRANCH   1   6
TORSDOF 4
ENDMDL
MODEL 3
REMARK VINA RESULT:      -7.7      2.011      3.070
REMARK  4 active torsions:
REMARK  status: ('A' for Active; 'I' for Inactive)
REMARK    1  A    between atoms: N1_5  and  C5_6 
REMARK    2  A    between atoms: C5_6  and  C6_7 
REMARK    3  A    between atoms: C13_14  and  C14_15 
REMARK    4  A    between atoms: C15_16  and  C16_17 
ROOT
HETATM    1  C16 UNL     1      26.433   1.869  53.564  1.00  0.00     0.222 C 
HETATM    2  C17 UNL     1      27.844   2.291  53.473  1.00  0.00     0.082 C 
HETATM    3  N2  UNL     1      28.969   2.613  53.402  1.00  0.00    -0.196 NA
HETATM    4  C18 UNL     1      26.423   0.544  54.139  1.00  0.00     0.082 C 
HETATM    5  N3  UNL     1      26.405  -0.529  54.610  1.00  0.00    -0.196 NA
ENDROOT
BRANCH   1   6
HETATM    6  C15 UNL     1      25.781   1.888  52.234  1.00  0.00     0.007 C 
HETATM    7  C14 UNL     1      24.677   2.594  51.991  1.00  0.00     0.001 C 
BRANCH   7   8
HETATM    8  C13 UNL     1      24.072   2.583  50.671  1.00  0.00     0.029 C 
HETATM    9  C12 UNL     1      22.915   2.143  50.263  1.00  0.00     0.036 C 
HETATM   10  C2  UNL     1      22.339   2.152  48.898  1.00  0.00    -0.039 C 
HETATM   11  N1  UNL     1      21.897   1.534  51.088  1.00  0.00    -0.376 N 
HETATM   12  C1  UNL     1      22.789   2.873  47.870  1.00  0.00     0.021 C 
HETATM   13  C3  UNL     1      21.188   1.209  48.918  1.00  0.00     0.060 C 
HETATM   14  C4  UNL     1      21.320   0.487  50.241  1.00  0.00     0.128 C 
BRANCH  11  15
HETATM   15  C5  UNL     1      21.527   1.880  52.451  1.00  0.00     0.161 C 
BRANCH  15  16
HETATM   16  C6  UNL     1      21.587   0.586  53.232  1.00  0.00    -0.040 A 
HETATM   17  C7  UNL     1      20.452  -0.134  53.545  1.00  0.00     0.009 A 
HETATM   18  C8  UNL     1      20.488  -1.310  54.257  1.00  0.00     0.001 A 
HETATM   19  C9  UNL     1      21.721  -1.769  54.663  1.00  0.00     0.000 A 
HETATM   20  C10 UNL     1      22.886  -1.106  54.388  1.00  0.00     0.001 A 
HETATM   21  C11 UNL     1      22.803   0.075  53.668  1.00  0.00     0.009 A 
ENDBRANCH  15  16
ENDBRANCH  11  15
ENDBRANCH   7   8
ENDBRANCH   1   6
TORSDOF 4
ENDMDL
MODEL 4
REMARK VINA RESULT:      -7.7      2.676      5.182
REMARK  4 active torsions:
REMARK  status: ('A' for Active; 'I' for Inactive)
REMARK    1  A    between atoms: N1_5  and  C5_6 
REMARK    2  A    between atoms: C5_6  and  C6_7 
REMARK    3  A    between atoms: C13_14  and  C14_15 
REMARK    4  A    between atoms: C15_16  and  C16_17 
ROOT
HETATM    1  C16 UNL     1      20.381  -0.265  53.678  1.00  0.00     0.222 C 
HETATM    2  C17 UNL     1      21.279  -1.170  54.423  1.00  0.00     0.082 C 
HETATM    3  N2  UNL     1      21.983  -1.899  55.010  1.00  0.00    -0.196 NA
HETATM    4  C18 UNL     1      19.121  -0.953  53.523  1.00  0.00     0.082 C 
HETATM    5  N3  UNL     1      18.092  -1.501  53.396  1.00  0.00    -0.196 NA
ENDROOT
BRANCH   1   6
HETATM    6  C15 UNL     1      20.962   0.107  52.368  1.00  0.00     0.007 C 
HETATM    7  C14 UNL     1      20.700   1.273  51.776  1.00  0.00     0.001 C 
BRANCH   7   8
HETATM    8  C13 UNL     1      21.293   1.595  50.490  1.00  0.00     0.029 C 
HETATM    9  C12 UNL     1      22.211   2.461  50.164  1.00  0.00     0.036 C 
HETATM   10  C2  UNL     1      22.786   2.758  48.831  1.00  0.00    -0.039 C 
HETATM   11  N1  UNL     1      22.903   3.350  51.069  1.00  0.00    -0.376 N 
HETATM   12  C1  UNL     1      22.668   1.989  47.746  1.00  0.00     0.021 C 
HETATM   13  C3  UNL     1      23.498   4.058  48.957  1.00  0.00     0.060 C 
HETATM   14  C4  UNL     1      23.068   4.590  50.306  1.00  0.00     0.128 C 
BRANCH  11  15
HETATM   15  C5  UNL     1      23.338   3.079  52.429  1.00  0.00     0.161 C 
BRANCH  15  16
HETATM   16  C6  UNL     1      24.461   2.073  52.308  1.00  0.00    -0.040 A 
HETATM   17  C7  UNL     1      25.589   2.322  51.553  1.00  0.00     0.009 A 
HETATM   18  C8  UNL     1      26.618   1.417  51.429  1.00  0.00     0.001 A 
HETATM   19  C9  UNL     1      26.494   0.220  52.096  1.00  0.00     0.000 A 
HETATM   20  C10 UNL     1      25.404  -0.093  52.862  1.00  0.00     0.001 A 
HETATM   21  C11 UNL     1      24.391   0.848  52.959  1.00  0.00     0.009 A 
ENDBRANCH  15  16
ENDBRANCH  11  15
ENDBRANCH   7   8
ENDBRANCH   1   6
TORSDOF 4
ENDMDL
MODEL 5
REMARK VINA RESULT:      -7.5      2.454      5.558
REMARK  4 active torsions:
REMARK  status: ('A' for Active; 'I' for Inactive)
REMARK    1  A    between atoms: N1_5  and  C5_6 
REMARK    2  A    between atoms: C5_6  and  C6_7 
REMARK    3  A    between atoms: C13_14  and  C14_15 
REMARK    4  A    between atoms: C15_16  and  C16_17 
ROOT
HETATM    1  C16 UNL     1      20.872   0.031  54.070  1.00  0.00     0.222 C 
HETATM    2  C17 UNL     1      21.710  -0.967  54.763  1.00  0.00     0.082 C 
HETATM    3  N2  UNL     1      22.369  -1.769  55.306  1.00  0.00    -0.196 NA
HETATM    4  C18 UNL     1      19.674  -0.650  53.636  1.00  0.00     0.082 C 
HETATM    5  N3  UNL     1      18.697  -1.193  53.284  1.00  0.00    -0.196 NA
ENDROOT
BRANCH   1   6
HETATM    6  C15 UNL     1      21.594   0.640  52.931  1.00  0.00     0.007 C 
HETATM    7  C14 UNL     1      22.395   1.696  53.075  1.00  0.00     0.001 C 
BRANCH   7   8
HETATM    8  C13 UNL     1      23.083   2.260  51.928  1.00  0.00     0.029 C 
HETATM    9  C12 UNL     1      24.332   2.195  51.562  1.00  0.00     0.036 C 
HETATM   10  C2  UNL     1      24.994   2.791  50.378  1.00  0.00    -0.039 C 
HETATM   11  N1  UNL     1      25.386   1.489  52.255  1.00  0.00    -0.376 N 
HETATM   12  C1  UNL     1      24.369   3.280  49.304  1.00  0.00     0.021 C 
HETATM   13  C3  UNL     1      26.458   2.734  50.636  1.00  0.00     0.060 C 
HETATM   14  C4  UNL     1      26.565   2.345  52.094  1.00  0.00     0.128 C 
BRANCH  11  15
HETATM   15  C5  UNL     1      25.300   0.217  52.954  1.00  0.00     0.161 C 
BRANCH  15  16
HETATM   16  C6  UNL     1      26.710  -0.100  53.402  1.00  0.00    -0.040 A 
HETATM   17  C7  UNL     1      27.273   0.484  54.518  1.00  0.00     0.009 A 
HETATM   18  C8  UNL     1      28.554   0.208  54.937  1.00  0.00     0.001 A 
HETATM   19  C9  UNL     1      29.285  -0.691  54.195  1.00  0.00     0.000 A 
HETATM   20  C10 UNL     1      28.790  -1.306  53.077  1.00  0.00     0.001 A 
HETATM   21  C11 UNL     1      27.495  -1.000  52.691  1.00  0.00     0.009 A 
ENDBRANCH  15  16
ENDBRANCH  11  15
ENDBRANCH   7   8
ENDBRANCH   1   6
TORSDOF 4
ENDMDL
MODEL 6
REMARK VINA RESULT:      -7.4      2.605      5.675
REMARK  4 active torsions:
REMARK  status: ('A' for Active; 'I' for Inactive)
REMARK    1  A    between atoms: N1_5  and  C5_6 
REMARK    2  A    between atoms: C5_6  and  C6_7 
REMARK    3  A    between atoms: C13_14  and  C14_15 
REMARK    4  A    between atoms: C15_16  and  C16_17 
ROOT
HETATM    1  C16 UNL     1      27.514   5.841  48.187  1.00  0.00     0.222 C 
HETATM    2  C17 UNL     1      28.855   6.458  48.155  1.00  0.00     0.082 C 
HETATM    3  N2  UNL     1      29.915   6.956  48.140  1.00  0.00    -0.196 NA
HETATM    4  C18 UNL     1      26.614   6.815  48.760  1.00  0.00     0.082 C 
HETATM    5  N3  UNL     1      25.875   7.600  49.219  1.00  0.00    -0.196 NA
ENDROOT
BRANCH   1   6
HETATM    6  C15 UNL     1      27.521   4.583  48.966  1.00  0.00     0.007 C 
HETATM    7  C14 UNL     1      26.475   4.186  49.690  1.00  0.00     0.001 C 
BRANCH   7   8
HETATM    8  C13 UNL     1      26.527   2.943  50.440  1.00  0.00     0.029 C 
HETATM    9  C12 UNL     1      25.733   2.460  51.353  1.00  0.00     0.036 C 
HETATM   10  C2  UNL     1      25.827   1.181  52.095  1.00  0.00    -0.039 C 
HETATM   11  N1  UNL     1      24.531   3.088  51.854  1.00  0.00    -0.376 N 
HETATM   12  C1  UNL     1      26.602   0.146  51.762  1.00  0.00     0.021 C 
HETATM   13  C3  UNL     1      24.906   1.297  53.258  1.00  0.00     0.060 C 
HETATM   14  C4  UNL     1      24.517   2.758  53.282  1.00  0.00     0.128 C 
BRANCH  11  15
HETATM   15  C5  UNL     1      23.556   3.870  51.113  1.00  0.00     0.161 C 
BRANCH  15  16
HETATM   16  C6  UNL     1      22.886   2.899  50.167  1.00  0.00    -0.040 A 
HETATM   17  C7  UNL     1      22.127   1.839  50.619  1.00  0.00     0.009 A 
HETATM   18  C8  UNL     1      21.514   0.946  49.772  1.00  0.00     0.001 A 
HETATM   19  C9  UNL     1      21.679   1.139  48.419  1.00  0.00     0.000 A 
HETATM   20  C10 UNL     1      22.416   2.168  47.901  1.00  0.00     0.001 A 
HETATM   21  C11 UNL     1      23.017   3.044  48.791  1.00  0.00     0.009 A 
ENDBRANCH  15  16
ENDBRANCH  11  15
ENDBRANCH   7   8
ENDBRANCH   1   6
TORSDOF 4
ENDMDL
MODEL 7
REMARK VINA RESULT:      -6.9      1.829      4.456
REMARK  4 active torsions:
REMARK  status: ('A' for Active; 'I' for Inactive)
REMARK    1  A    between atoms: N1_5  and  C5_6 
REMARK    2  A    between atoms: C5_6  and  C6_7 
REMARK    3  A    between atoms: C13_14  and  C14_15 
REMARK    4  A    between atoms: C15_16  and  C16_17 
ROOT
HETATM    1  C16 UNL     1      26.792   0.679  53.836  1.00  0.00     0.222 C 
HETATM    2  C17 UNL     1      27.314   1.669  52.873  1.00  0.00     0.082 C 
HETATM    3  N2  UNL     1      27.730   2.444  52.099  1.00  0.00    -0.196 NA
HETATM    4  C18 UNL     1      27.287  -0.614  53.425  1.00  0.00     0.082 C 
HETATM    5  N3  UNL     1      27.688  -1.667  53.102  1.00  0.00    -0.196 NA
ENDROOT
BRANCH   1   6
HETATM    6  C15 UNL     1      25.312   0.706  53.882  1.00  0.00     0.007 C 
HETATM    7  C14 UNL     1      24.560  -0.090  53.121  1.00  0.00     0.001 C 
BRANCH   7   8
HETATM    8  C13 UNL     1      23.111  -0.029  53.200  1.00  0.00     0.029 C 
HETATM    9  C12 UNL     1      22.265   0.847  52.736  1.00  0.00     0.036 C 
HETATM   10  C2  UNL     1      20.788   0.869  52.842  1.00  0.00    -0.039 C 
HETATM   11  N1  UNL     1      22.596   2.032  51.979  1.00  0.00    -0.376 N 
HETATM   12  C1  UNL     1      20.020  -0.164  53.197  1.00  0.00     0.021 C 
HETATM   13  C3  UNL     1      20.357   2.247  52.485  1.00  0.00     0.060 C 
HETATM   14  C4  UNL     1      21.643   3.042  52.447  1.00  0.00     0.128 C 
BRANCH  11  15
HETATM   15  C5  UNL     1      23.639   2.191  50.978  1.00  0.00     0.161 C 
BRANCH  15  16
HETATM   16  C6  UNL     1      22.920   2.498  49.683  1.00  0.00    -0.040 A 
HETATM   17  C7  UNL     1      22.003   1.628  49.129  1.00  0.00     0.009 A 
HETATM   18  C8  UNL     1      21.344   1.891  47.951  1.00  0.00     0.001 A 
HETATM   19  C9  UNL     1      21.627   3.079  47.316  1.00  0.00     0.000 A 
HETATM   20  C10 UNL     1      22.524   3.987  47.808  1.00  0.00     0.001 A 
HETATM   21  C11 UNL     1      23.166   3.682  48.998  1.00  0.00     0.009 A 
ENDBRANCH  15  16
ENDBRANCH  11  15
ENDBRANCH   7   8
ENDBRANCH   1   6
TORSDOF 4
ENDMDL
MODEL 8
REMARK VINA RESULT:      -6.8      1.783      4.230
REMARK  4 active torsions:
REMARK  status: ('A' for Active; 'I' for Inactive)
REMARK    1  A    between atoms: N1_5  and  C5_6 
REMARK    2  A    between atoms: C5_6  and  C6_7 
REMARK    3  A    between atoms: C13_14  and  C14_15 
REMARK    4  A    between atoms: C15_16  and  C16_17 
ROOT
HETATM    1  C16 UNL     1      26.753   0.430  53.408  1.00  0.00     0.222 C 
HETATM    2  C17 UNL     1      27.665   1.540  53.068  1.00  0.00     0.082 C 
HETATM    3  N2  UNL     1      28.397   2.411  52.790  1.00  0.00    -0.196 NA
HETATM    4  C18 UNL     1      27.520  -0.790  53.321  1.00  0.00     0.082 C 
HETATM    5  N3  UNL     1      28.136  -1.786  53.258  1.00  0.00    -0.196 NA
ENDROOT
BRANCH   1   6
HETATM    6  C15 UNL     1      25.582   0.402  52.502  1.00  0.00     0.007 C 
HETATM    7  C14 UNL     1      24.612   1.314  52.561  1.00  0.00     0.001 C 
BRANCH   7   8
HETATM    8  C13 UNL     1      23.481   1.246  51.652  1.00  0.00     0.029 C 
HETATM    9  C12 UNL     1      22.539   2.108  51.393  1.00  0.00     0.036 C 
HETATM   10  C2  UNL     1      21.399   1.994  50.454  1.00  0.00    -0.039 C 
HETATM   11  N1  UNL     1      22.399   3.420  51.983  1.00  0.00    -0.376 N 
HETATM   12  C1  UNL     1      21.281   1.087  49.482  1.00  0.00     0.021 C 
HETATM   13  C3  UNL     1      20.439   3.071  50.819  1.00  0.00     0.060 C 
HETATM   14  C4  UNL     1      20.953   3.596  52.141  1.00  0.00     0.128 C 
BRANCH  11  15
HETATM   15  C5  UNL     1      23.453   4.355  52.340  1.00  0.00     0.161 C 
BRANCH  15  16
HETATM   16  C6  UNL     1      24.005   4.870  51.029  1.00  0.00    -0.040 A 
HETATM   17  C7  UNL     1      25.194   4.407  50.502  1.00  0.00     0.009 A 
HETATM   18  C8  UNL     1      25.711   4.866  49.314  1.00  0.00     0.001 A 
HETATM   19  C9  UNL     1      24.995   5.829  48.639  1.00  0.00     0.000 A 
HETATM   20  C10 UNL     1      23.810   6.332  49.103  1.00  0.00     0.001 A 
HETATM   21  C11 UNL     1      23.325   5.841  50.304  1.00  0.00     0.009 A 
ENDBRANCH  15  16
ENDBRANCH  11  15
ENDBRANCH   7   8
ENDBRANCH   1   6
TORSDOF 4
ENDMDL
MODEL 9
REMARK VINA RESULT:      -6.8      2.692      4.043
REMARK  4 active torsions:
REMARK  status: ('A' for Active; 'I' for Inactive)
REMARK    1  A    between atoms: N1_5  and  C5_6 
REMARK    2  A    between atoms: C5_6  and  C6_7 
REMARK    3  A    between atoms: C13_14  and  C14_15 
REMARK    4  A    between atoms: C15_16  and  C16_17 
ROOT
HETATM    1  C16 UNL     1      23.630  -0.590  53.577  1.00  0.00     0.222 C 
HETATM    2  C17 UNL     1      22.661  -1.256  54.471  1.00  0.00     0.082 C 
HETATM    3  N2  UNL     1      21.901  -1.780  55.191  1.00  0.00    -0.196 NA
HETATM    4  C18 UNL     1      24.899  -0.574  54.266  1.00  0.00     0.082 C 
HETATM    5  N3  UNL     1      25.935  -0.561  54.814  1.00  0.00    -0.196 NA
ENDROOT
BRANCH   1   6
HETATM    6  C15 UNL     1      23.184   0.777  53.227  1.00  0.00     0.007 C 
HETATM    7  C14 UNL     1      23.630   1.419  52.147  1.00  0.00     0.001 C 
BRANCH   7   8
HETATM    8  C13 UNL     1      23.165   2.761  51.843  1.00  0.00     0.029 C 
HETATM    9  C12 UNL     1      22.623   3.255  50.766  1.00  0.00     0.036 C 
HETATM   10  C2  UNL     1      22.164   4.638  50.499  1.00  0.00    -0.039 C 
HETATM   11  N1  UNL     1      22.332   2.531  49.550  1.00  0.00    -0.376 N 
HETATM   12  C1  UNL     1      21.961   5.580  51.423  1.00  0.00     0.021 C 
HETATM   13  C3  UNL     1      21.986   4.749  49.026  1.00  0.00     0.060 C 
HETATM   14  C4  UNL     1      22.617   3.489  48.478  1.00  0.00     0.128 C 
BRANCH  11  15
HETATM   15  C5  UNL     1      21.864   1.161  49.416  1.00  0.00     0.161 C 
BRANCH  15  16
HETATM   16  C6  UNL     1      20.473   1.144  50.012  1.00  0.00    -0.040 A 
HETATM   17  C7  UNL     1      19.432   1.866  49.465  1.00  0.00     0.009 A 
HETATM   18  C8  UNL     1      18.164   1.864  49.996  1.00  0.00     0.001 A 
HETATM   19  C9  UNL     1      17.948   1.101  51.121  1.00  0.00     0.000 A 
HETATM   20  C10 UNL     1      18.933   0.360  51.715  1.00  0.00     0.001 A 
HETATM   21  C11 UNL     1      20.196   0.391  51.147  1.00  0.00     0.009 A 
ENDBRANCH  15  16
ENDBRANCH  11  15
ENDBRANCH   7   8
ENDBRANCH   1   6
TORSDOF 4
ENDMDL
