MODEL 1
REMARK VINA RESULT:      -7.2      0.000      0.000
REMARK  3 active torsions:
REMARK  status: ('A' for Active; 'I' for Inactive)
REMARK    1  A    between atoms: O1_1  and  C1_2 
REMARK    2  A    between atoms: C2_3  and  C3_4 
REMARK    3  A    between atoms: C7_10  and  N3_11 
ROOT
HETATM    1  C3  UNL     1      26.675   0.252  54.757  1.00  0.00     0.387 A 
HETATM    2  N1  UNL     1      26.110   1.309  53.907  1.00  0.00     0.079 N 
HETATM    3  C4  UNL     1      26.811   2.339  53.574  1.00  0.00     0.313 A 
HETATM    4  C5  UNL     1      25.468   2.430  52.988  1.00  0.00     0.378 A 
HETATM    5  N2  UNL     1      24.720   1.438  53.280  1.00  0.00    -0.197 N 
HETATM    6  C6  UNL     1      23.368   1.325  52.811  1.00  0.00     0.209 A 
HETATM    7  C7  UNL     1      22.667   0.127  53.254  1.00  0.00     0.029 A 
HETATM    8  C13 UNL     1      23.100  -0.854  54.013  1.00  0.00     0.029 A 
HETATM    9  C14 UNL     1      24.477  -0.650  54.433  1.00  0.00     0.322 A 
HETATM   10  N4  UNL     1      25.625  -0.762  54.954  1.00  0.00    -0.400 NA
ENDROOT
BRANCH   7  11
HETATM   11  N3  UNL     1      21.338   0.024  52.790  1.00  0.00    -0.355 N 
HETATM   12  C8  UNL     1      20.432  -0.679  53.662  1.00  0.00     0.092 A 
HETATM   13  C9  UNL     1      19.171  -0.822  53.307  1.00  0.00     0.036 A 
HETATM   14  C10 UNL     1      18.671  -0.289  52.060  1.00  0.00     0.010 A 
HETATM   15 BR1  UNL     1      16.831  -0.550  51.640  1.00  0.00    -0.051 Br
HETATM   16  C11 UNL     1      19.511   0.363  51.251  1.00  0.00     0.012 A 
HETATM   17  C12 UNL     1      20.932   0.598  51.511  1.00  0.00     0.157 A 
ENDBRANCH   7  11
BRANCH   1  18
HETATM   18  C2  UNL     1      27.861  -0.341  54.133  1.00  0.00    -0.021 C 
HETATM   19  C1  UNL     1      28.845  -0.822  53.625  1.00  0.00     0.055 C 
BRANCH  19  20
HETATM   20  O1  UNL     1      29.953  -1.384  53.053  1.00  0.00    -0.314 OA
HETATM   21  H1  UNL     1      30.890  -1.031  53.208  1.00  0.00     0.230 HD
ENDBRANCH  19  20
ENDBRANCH   1  18
TORSDOF 3
ENDMDL
MODEL 2
REMARK VINA RESULT:      -7.1      4.828      6.382
REMARK  3 active torsions:
REMARK  status: ('A' for Active; 'I' for Inactive)
REMARK    1  A    between atoms: O1_1  and  C1_2 
REMARK    2  A    between atoms: C2_3  and  C3_4 
REMARK    3  A    between atoms: C7_10  and  N3_11 
ROOT
HETATM    1  C3  UNL     1      25.336   6.817  49.524  1.00  0.00     0.387 A 
HETATM    2  N1  UNL     1      26.085   5.558  49.410  1.00  0.00     0.079 N 
HETATM    3  C4  UNL     1      27.150   5.482  48.687  1.00  0.00     0.313 A 
HETATM    4  C5  UNL     1      26.867   4.183  49.309  1.00  0.00     0.378 A 
HETATM    5  N2  UNL     1      25.821   4.189  50.041  1.00  0.00    -0.197 N 
HETATM    6  C6  UNL     1      25.362   3.024  50.742  1.00  0.00     0.209 A 
HETATM    7  C7  UNL     1      24.146   3.220  51.521  1.00  0.00     0.029 A 
HETATM    8  C13 UNL     1      23.423   4.306  51.667  1.00  0.00     0.029 A 
HETATM    9  C14 UNL     1      23.970   5.430  50.923  1.00  0.00     0.322 A 
HETATM   10  N4  UNL     1      24.182   6.564  50.404  1.00  0.00    -0.400 NA
ENDROOT
BRANCH   7  11
HETATM   11  N3  UNL     1      23.701   2.070  52.206  1.00  0.00    -0.355 N 
HETATM   12  C8  UNL     1      22.281   2.002  52.442  1.00  0.00     0.092 A 
HETATM   13  C9  UNL     1      21.778   0.962  53.075  1.00  0.00     0.036 A 
HETATM   14  C10 UNL     1      22.618  -0.117  53.542  1.00  0.00     0.010 A 
HETATM   15 BR1  UNL     1      21.792  -1.577  54.448  1.00  0.00    -0.051 Br
HETATM   16  C11 UNL     1      23.934  -0.056  53.324  1.00  0.00     0.012 A 
HETATM   17  C12 UNL     1      24.632   1.032  52.637  1.00  0.00     0.157 A 
ENDBRANCH   7  11
BRANCH   1  18
HETATM   18  C2  UNL     1      26.185   7.879  50.071  1.00  0.00    -0.021 C 
HETATM   19  C1  UNL     1      26.874   8.761  50.526  1.00  0.00     0.055 C 
BRANCH  19  20
HETATM   20  O1  UNL     1      27.667   9.745  51.049  1.00  0.00    -0.314 OA
HETATM   21  H1  UNL     1      27.538  10.726  50.832  1.00  0.00     0.230 HD
ENDBRANCH  19  20
ENDBRANCH   1  18
TORSDOF 3
ENDMDL
MODEL 3
REMARK VINA RESULT:      -7.1      4.314      7.503
REMARK  3 active torsions:
REMARK  status: ('A' for Active; 'I' for Inactive)
REMARK    1  A    between atoms: O1_1  and  C1_2 
REMARK    2  A    between atoms: C2_3  and  C3_4 
REMARK    3  A    between atoms: C7_10  and  N3_11 
ROOT
HETATM    1  C3  UNL     1      20.007   1.333  52.625  1.00  0.00     0.387 A 
HETATM    2  N1  UNL     1      20.458   0.118  53.317  1.00  0.00     0.079 N 
HETATM    3  C4  UNL     1      19.610  -0.738  53.776  1.00  0.00     0.313 A 
HETATM    4  C5  UNL     1      20.980  -1.182  54.060  1.00  0.00     0.378 A 
HETATM    5  N2  UNL     1      21.872  -0.376  53.630  1.00  0.00    -0.197 N 
HETATM    6  C6  UNL     1      23.277  -0.616  53.800  1.00  0.00     0.209 A 
HETATM    7  C7  UNL     1      24.144   0.419  53.251  1.00  0.00     0.029 A 
HETATM    8  C13 UNL     1      23.817   1.528  52.627  1.00  0.00     0.029 A 
HETATM    9  C14 UNL     1      22.376   1.679  52.502  1.00  0.00     0.322 A 
HETATM   10  N4  UNL     1      21.209   2.092  52.241  1.00  0.00    -0.400 NA
ENDROOT
BRANCH   7  11
HETATM   11  N3  UNL     1      25.523   0.176  53.423  1.00  0.00    -0.355 N 
HETATM   12  C8  UNL     1      26.048  -0.948  52.690  1.00  0.00     0.092 A 
HETATM   13  C9  UNL     1      27.327  -1.248  52.793  1.00  0.00     0.036 A 
HETATM   14  C10 UNL     1      28.220  -0.476  53.625  1.00  0.00     0.010 A 
HETATM   15 BR1  UNL     1      30.053  -0.992  53.705  1.00  0.00    -0.051 Br
HETATM   16  C11 UNL     1      27.735   0.567  54.305  1.00  0.00     0.012 A 
HETATM   17  C12 UNL     1      26.342   1.017  54.290  1.00  0.00     0.157 A 
ENDBRANCH   7  11
BRANCH   1  18
HETATM   18  C2  UNL     1      19.206   0.994  51.446  1.00  0.00    -0.021 C 
HETATM   19  C1  UNL     1      18.553   0.704  50.472  1.00  0.00     0.055 C 
BRANCH  19  20
HETATM   20  O1  UNL     1      17.797   0.379  49.379  1.00  0.00    -0.314 OA
HETATM   21  H1  UNL     1      18.070   0.616  48.433  1.00  0.00     0.230 HD
ENDBRANCH  19  20
ENDBRANCH   1  18
TORSDOF 3
ENDMDL
MODEL 4
REMARK VINA RESULT:      -6.9      4.509      6.592
REMARK  3 active torsions:
REMARK  status: ('A' for Active; 'I' for Inactive)
REMARK    1  A    between atoms: O1_1  and  C1_2 
REMARK    2  A    between atoms: C2_3  and  C3_4 
REMARK    3  A    between atoms: C7_10  and  N3_11 
ROOT
HETATM    1  C3  UNL     1      24.811  -0.678  53.140  1.00  0.00     0.387 A 
HETATM    2  N1  UNL     1      23.758   0.302  52.838  1.00  0.00     0.079 N 
HETATM    3  C4  UNL     1      22.543   0.111  53.224  1.00  0.00     0.313 A 
HETATM    4  C5  UNL     1      22.647   1.380  52.493  1.00  0.00     0.378 A 
HETATM    5  N2  UNL     1      23.829   1.631  52.081  1.00  0.00    -0.197 N 
HETATM    6  C6  UNL     1      24.155   2.818  51.344  1.00  0.00     0.209 A 
HETATM    7  C7  UNL     1      25.554   2.928  50.951  1.00  0.00     0.029 A 
HETATM    8  C13 UNL     1      26.546   2.098  51.178  1.00  0.00     0.029 A 
HETATM    9  C14 UNL     1      26.117   0.930  51.932  1.00  0.00     0.322 A 
HETATM   10  N4  UNL     1      26.065  -0.169  52.556  1.00  0.00    -0.400 NA
ENDROOT
BRANCH   7  11
HETATM   11  N3  UNL     1      25.865   4.098  50.226  1.00  0.00    -0.355 N 
HETATM   12  C8  UNL     1      26.999   3.994  49.343  1.00  0.00     0.092 A 
HETATM   13  C9  UNL     1      27.361   5.039  48.627  1.00  0.00     0.036 A 
HETATM   14  C10 UNL     1      26.647   6.293  48.705  1.00  0.00     0.010 A 
HETATM   15 BR1  UNL     1      27.251   7.745  47.628  1.00  0.00    -0.051 Br
HETATM   16  C11 UNL     1      25.595   6.390  49.523  1.00  0.00     0.012 A 
HETATM   17  C12 UNL     1      25.079   5.318  50.376  1.00  0.00     0.157 A 
ENDBRANCH   7  11
BRANCH   1  18
HETATM   18  C2  UNL     1      24.949  -0.865  54.586  1.00  0.00    -0.021 C 
HETATM   19  C1  UNL     1      25.051  -1.025  55.779  1.00  0.00     0.055 C 
BRANCH  19  20
HETATM   20  O1  UNL     1      25.186  -1.212  57.128  1.00  0.00    -0.314 OA
HETATM   21  H1  UNL     1      25.880  -0.726  57.682  1.00  0.00     0.230 HD
ENDBRANCH  19  20
ENDBRANCH   1  18
TORSDOF 3
ENDMDL
MODEL 5
REMARK VINA RESULT:      -6.6      2.519      3.369
REMARK  3 active torsions:
REMARK  status: ('A' for Active; 'I' for Inactive)
REMARK    1  A    between atoms: O1_1  and  C1_2 
REMARK    2  A    between atoms: C2_3  and  C3_4 
REMARK    3  A    between atoms: C7_10  and  N3_11 
ROOT
HETATM    1  C3  UNL     1      27.166   1.188  52.139  1.00  0.00     0.387 A 
HETATM    2  N1  UNL     1      26.070   0.443  52.775  1.00  0.00     0.079 N 
HETATM    3  C4  UNL     1      26.303  -0.620  53.465  1.00  0.00     0.313 A 
HETATM    4  C5  UNL     1      24.863  -0.336  53.445  1.00  0.00     0.378 A 
HETATM    5  N2  UNL     1      24.563   0.708  52.776  1.00  0.00    -0.197 N 
HETATM    6  C6  UNL     1      23.212   1.168  52.626  1.00  0.00     0.209 A 
HETATM    7  C7  UNL     1      23.063   2.373  51.819  1.00  0.00     0.029 A 
HETATM    8  C13 UNL     1      23.987   3.087  51.219  1.00  0.00     0.029 A 
HETATM    9  C14 UNL     1      25.320   2.544  51.432  1.00  0.00     0.322 A 
HETATM   10  N4  UNL     1      26.566   2.330  51.428  1.00  0.00    -0.400 NA
ENDROOT
BRANCH   7  11
HETATM   11  N3  UNL     1      21.732   2.818  51.677  1.00  0.00    -0.355 N 
HETATM   12  C8  UNL     1      20.721   1.897  52.133  1.00  0.00     0.092 A 
HETATM   13  C9  UNL     1      19.450   2.231  52.038  1.00  0.00     0.036 A 
HETATM   14  C10 UNL     1      19.041   3.502  51.484  1.00  0.00     0.010 A 
HETATM   15 BR1  UNL     1      17.177   3.888  51.390  1.00  0.00    -0.051 Br
HETATM   16  C11 UNL     1      19.977   4.355  51.061  1.00  0.00     0.012 A 
HETATM   17  C12 UNL     1      21.422   4.123  51.103  1.00  0.00     0.157 A 
ENDBRANCH   7  11
BRANCH   1  18
HETATM   18  C2  UNL     1      28.132   1.648  53.140  1.00  0.00    -0.021 C 
HETATM   19  C1  UNL     1      28.925   2.038  53.964  1.00  0.00     0.055 C 
BRANCH  19  20
HETATM   20  O1  UNL     1      29.816   2.466  54.909  1.00  0.00    -0.314 OA
HETATM   21  H1  UNL     1      29.530   2.931  55.762  1.00  0.00     0.230 HD
ENDBRANCH  19  20
ENDBRANCH   1  18
TORSDOF 3
ENDMDL
MODEL 6
REMARK VINA RESULT:      -6.6      1.623      2.043
REMARK  3 active torsions:
REMARK  status: ('A' for Active; 'I' for Inactive)
REMARK    1  A    between atoms: O1_1  and  C1_2 
REMARK    2  A    between atoms: C2_3  and  C3_4 
REMARK    3  A    between atoms: C7_10  and  N3_11 
ROOT
HETATM    1  C3  UNL     1      25.055  -0.169  53.848  1.00  0.00     0.387 A 
HETATM    2  N1  UNL     1      24.510   0.601  52.721  1.00  0.00     0.079 N 
HETATM    3  C4  UNL     1      25.278   1.319  51.974  1.00  0.00     0.313 A 
HETATM    4  C5  UNL     1      23.889   1.419  51.513  1.00  0.00     0.378 A 
HETATM    5  N2  UNL     1      23.073   0.730  52.212  1.00  0.00    -0.197 N 
HETATM    6  C6  UNL     1      21.665   0.685  51.936  1.00  0.00     0.209 A 
HETATM    7  C7  UNL     1      20.891  -0.149  52.847  1.00  0.00     0.029 A 
HETATM    8  C13 UNL     1      21.302  -0.858  53.873  1.00  0.00     0.029 A 
HETATM    9  C14 UNL     1      22.739  -0.751  54.068  1.00  0.00     0.322 A 
HETATM   10  N4  UNL     1      23.926  -0.861  54.493  1.00  0.00    -0.400 NA
ENDROOT
BRANCH   7  11
HETATM   11  N3  UNL     1      19.508  -0.186  52.569  1.00  0.00    -0.355 N 
HETATM   12  C8  UNL     1      18.742  -1.108  53.369  1.00  0.00     0.092 A 
HETATM   13  C9  UNL     1      17.442  -1.208  53.177  1.00  0.00     0.036 A 
HETATM   14  C10 UNL     1      16.762  -0.414  52.179  1.00  0.00     0.010 A 
HETATM   15 BR1  UNL     1      14.879  -0.634  51.979  1.00  0.00    -0.051 Br
HETATM   16  C11 UNL     1      17.471   0.441  51.437  1.00  0.00     0.012 A 
HETATM   17  C12 UNL     1      18.915   0.659  51.538  1.00  0.00     0.157 A 
ENDBRANCH   7  11
BRANCH   1  18
HETATM   18  C2  UNL     1      26.059  -1.130  53.386  1.00  0.00    -0.021 C 
HETATM   19  C1  UNL     1      26.883  -1.930  53.013  1.00  0.00     0.055 C 
BRANCH  19  20
HETATM   20  O1  UNL     1      27.812  -2.833  52.572  1.00  0.00    -0.314 OA
HETATM   21  H1  UNL     1      27.627  -3.828  52.519  1.00  0.00     0.230 HD
ENDBRANCH  19  20
ENDBRANCH   1  18
TORSDOF 3
ENDMDL
MODEL 7
REMARK VINA RESULT:      -6.5      1.662      1.898
REMARK  3 active torsions:
REMARK  status: ('A' for Active; 'I' for Inactive)
REMARK    1  A    between atoms: O1_1  and  C1_2 
REMARK    2  A    between atoms: C2_3  and  C3_4 
REMARK    3  A    between atoms: C7_10  and  N3_11 
ROOT
HETATM    1  C3  UNL     1      25.654  -0.236  53.715  1.00  0.00     0.387 A 
HETATM    2  N1  UNL     1      25.486   0.722  52.613  1.00  0.00     0.079 N 
HETATM    3  C4  UNL     1      26.490   1.388  52.154  1.00  0.00     0.313 A 
HETATM    4  C5  UNL     1      25.268   1.748  51.424  1.00  0.00     0.378 A 
HETATM    5  N2  UNL     1      24.233   1.121  51.831  1.00  0.00    -0.197 N 
HETATM    6  C6  UNL     1      22.933   1.321  51.256  1.00  0.00     0.209 A 
HETATM    7  C7  UNL     1      21.871   0.523  51.856  1.00  0.00     0.029 A 
HETATM    8  C13 UNL     1      21.942  -0.344  52.840  1.00  0.00     0.029 A 
HETATM    9  C14 UNL     1      23.297  -0.478  53.352  1.00  0.00     0.322 A 
HETATM   10  N4  UNL     1      24.329  -0.812  54.002  1.00  0.00    -0.400 NA
ENDROOT
BRANCH   7  11
HETATM   11  N3  UNL     1      20.597   0.727  51.286  1.00  0.00    -0.355 N 
HETATM   12  C8  UNL     1      19.500   0.111  51.989  1.00  0.00     0.092 A 
HETATM   13  C9  UNL     1      18.274   0.250  51.527  1.00  0.00     0.036 A 
HETATM   14  C10 UNL     1      18.000   1.006  50.327  1.00  0.00     0.010 A 
HETATM   15 BR1  UNL     1      16.191   1.146  49.741  1.00  0.00    -0.051 Br
HETATM   16  C11 UNL     1      19.015   1.577  49.674  1.00  0.00     0.012 A 
HETATM   17  C12 UNL     1      20.424   1.509  50.067  1.00  0.00     0.157 A 
ENDBRANCH   7  11
BRANCH   1  18
HETATM   18  C2  UNL     1      26.611  -1.285  53.351  1.00  0.00    -0.021 C 
HETATM   19  C1  UNL     1      27.390  -2.155  53.044  1.00  0.00     0.055 C 
BRANCH  19  20
HETATM   20  O1  UNL     1      28.288  -3.126  52.694  1.00  0.00    -0.314 OA
HETATM   21  H1  UNL     1      28.143  -4.107  52.901  1.00  0.00     0.230 HD
ENDBRANCH  19  20
ENDBRANCH   1  18
TORSDOF 3
ENDMDL
MODEL 8
REMARK VINA RESULT:      -6.4      3.895      5.064
REMARK  3 active torsions:
REMARK  status: ('A' for Active; 'I' for Inactive)
REMARK    1  A    between atoms: O1_1  and  C1_2 
REMARK    2  A    between atoms: C2_3  and  C3_4 
REMARK    3  A    between atoms: C7_10  and  N3_11 
ROOT
HETATM    1  C3  UNL     1      26.356  -0.077  53.612  1.00  0.00     0.387 A 
HETATM    2  N1  UNL     1      27.115   1.094  53.149  1.00  0.00     0.079 N 
HETATM    3  C4  UNL     1      28.304   1.329  53.588  1.00  0.00     0.313 A 
HETATM    4  C5  UNL     1      27.905   2.366  52.629  1.00  0.00     0.378 A 
HETATM    5  N2  UNL     1      26.732   2.191  52.154  1.00  0.00    -0.197 N 
HETATM    6  C6  UNL     1      26.143   3.088  51.201  1.00  0.00     0.209 A 
HETATM    7  C7  UNL     1      24.794   2.731  50.780  1.00  0.00     0.029 A 
HETATM    8  C13 UNL     1      24.054   1.711  51.150  1.00  0.00     0.029 A 
HETATM    9  C14 UNL     1      24.738   0.862  52.113  1.00  0.00     0.322 A 
HETATM   10  N4  UNL     1      25.048  -0.048  52.934  1.00  0.00    -0.400 NA
ENDROOT
BRANCH   7  11
HETATM   11  N3  UNL     1      24.223   3.618  49.844  1.00  0.00    -0.355 N 
HETATM   12  C8  UNL     1      24.858   4.908  49.747  1.00  0.00     0.092 A 
HETATM   13  C9  UNL     1      24.389   5.799  48.897  1.00  0.00     0.036 A 
HETATM   14  C10 UNL     1      23.249   5.515  48.056  1.00  0.00     0.010 A 
HETATM   15 BR1  UNL     1      22.649   6.873  46.860  1.00  0.00    -0.051 Br
HETATM   16  C11 UNL     1      22.660   4.320  48.145  1.00  0.00     0.012 A 
HETATM   17  C12 UNL     1      23.067   3.235  49.039  1.00  0.00     0.157 A 
ENDBRANCH   7  11
BRANCH   1  18
HETATM   18  C2  UNL     1      27.074  -1.317  53.307  1.00  0.00    -0.021 C 
HETATM   19  C1  UNL     1      27.661  -2.339  53.044  1.00  0.00     0.055 C 
BRANCH  19  20
HETATM   20  O1  UNL     1      28.342  -3.489  52.754  1.00  0.00    -0.314 OA
HETATM   21  H1  UNL     1      28.001  -4.408  53.009  1.00  0.00     0.230 HD
ENDBRANCH  19  20
ENDBRANCH   1  18
TORSDOF 3
ENDMDL
MODEL 9
REMARK VINA RESULT:      -6.4      4.680      7.605
REMARK  3 active torsions:
REMARK  status: ('A' for Active; 'I' for Inactive)
REMARK    1  A    between atoms: O1_1  and  C1_2 
REMARK    2  A    between atoms: C2_3  and  C3_4 
REMARK    3  A    between atoms: C7_10  and  N3_11 
ROOT
HETATM    1  C3  UNL     1      20.699   3.718  52.219  1.00  0.00     0.387 A 
HETATM    2  N1  UNL     1      20.748   2.261  52.406  1.00  0.00     0.079 N 
HETATM    3  C4  UNL     1      19.668   1.557  52.412  1.00  0.00     0.313 A 
HETATM    4  C5  UNL     1      20.837   0.692  52.611  1.00  0.00     0.378 A 
HETATM    5  N2  UNL     1      21.943   1.329  52.616  1.00  0.00    -0.197 N 
HETATM    6  C6  UNL     1      23.209   0.679  52.796  1.00  0.00     0.209 A 
HETATM    7  C7  UNL     1      24.362   1.571  52.781  1.00  0.00     0.029 A 
HETATM    8  C13 UNL     1      24.398   2.875  52.625  1.00  0.00     0.029 A 
HETATM    9  C14 UNL     1      23.069   3.439  52.447  1.00  0.00     0.322 A 
HETATM   10  N4  UNL     1      22.085   4.214  52.273  1.00  0.00    -0.400 NA
ENDROOT
BRANCH   7  11
HETATM   11  N3  UNL     1      25.602   0.923  52.960  1.00  0.00    -0.355 N 
HETATM   12  C8  UNL     1      26.719   1.792  53.236  1.00  0.00     0.092 A 
HETATM   13  C9  UNL     1      27.915   1.272  53.417  1.00  0.00     0.036 A 
HETATM   14  C10 UNL     1      28.139  -0.154  53.344  1.00  0.00     0.010 A 
HETATM   15 BR1  UNL     1      29.909  -0.806  53.621  1.00  0.00    -0.051 Br
HETATM   16  C11 UNL     1      27.105  -0.960  53.089  1.00  0.00     0.012 A 
HETATM   17  C12 UNL     1      25.724  -0.528  52.867  1.00  0.00     0.157 A 
ENDBRANCH   7  11
BRANCH   1  18
HETATM   18  C2  UNL     1      20.074   4.058  50.939  1.00  0.00    -0.021 C 
HETATM   19  C1  UNL     1      19.548   4.341  49.889  1.00  0.00     0.055 C 
BRANCH  19  20
HETATM   20  O1  UNL     1      18.968   4.672  48.695  1.00  0.00    -0.314 OA
HETATM   21  H1  UNL     1      19.154   5.547  48.219  1.00  0.00     0.230 HD
ENDBRANCH  19  20
ENDBRANCH   1  18
TORSDOF 3
ENDMDL
