MODEL 1
REMARK VINA RESULT:      -8.8      0.000      0.000
REMARK  2 active torsions:
REMARK  status: ('A' for Active; 'I' for Inactive)
REMARK    1  A    between atoms: C3_4  and  C4_5 
REMARK       I    between atoms: C4_5  and  N2_7 
REMARK    2  A    between atoms: N2_7  and  C5_8 
ROOT
HETATM    1  N1  UNL     1      29.202   7.258  47.151  1.00  0.00    -0.182 NA
HETATM    2  C1  UNL     1      28.563   6.501  47.729  1.00  0.00     0.152 C 
HETATM    3  C2  UNL     1      27.795   5.561  48.439  1.00  0.00     0.023 C 
HETATM    4  C3  UNL     1      27.119   4.749  49.035  1.00  0.00     0.011 C 
ENDROOT
BRANCH   4   5
HETATM    5  C4  UNL     1      26.317   3.804  49.756  1.00  0.00     0.303 C 
HETATM    6  O1  UNL     1      25.294   3.362  49.174  1.00  0.00    -0.258 OA
HETATM    7  N2  UNL     1      26.725   3.434  51.065  1.00  0.00    -0.301 N 
HETATM    8  H1  UNL     1      27.589   3.850  51.474  1.00  0.00     0.171 HD
BRANCH   7   9
HETATM    9  C5  UNL     1      26.093   2.526  51.961  1.00  0.00     0.126 C 
HETATM   10  C6  UNL     1      26.793   2.025  53.021  1.00  0.00     0.031 C 
HETATM   11  C7  UNL     1      26.109   1.141  53.861  1.00  0.00     0.052 A 
HETATM   12  C8  UNL     1      26.535  -0.347  53.966  1.00  0.00     0.059 A 
HETATM   13  C11 UNL     1      25.436   0.086  52.877  1.00  0.00     0.048 A 
HETATM   14  C9  UNL     1      25.307  -0.788  54.510  1.00  0.00     0.018 A 
HETATM   15  C13 UNL     1      27.678  -0.724  53.210  1.00  0.00     0.106 A 
HETATM   16  C10 UNL     1      24.298  -0.246  53.255  1.00  0.00     0.017 A 
HETATM   17  N3  UNL     1      22.965  -0.436  53.308  1.00  0.00    -0.392 N 
HETATM   18  C14 UNL     1      22.410   0.387  52.288  1.00  0.00     0.124 C 
HETATM   19  H6  UNL     1      22.560  -1.083  54.002  1.00  0.00     0.159 HD
HETATM   20  C15 UNL     1      22.494   1.872  52.510  1.00  0.00     0.066 C 
HETATM   21  C16 UNL     1      23.833   2.391  52.705  1.00  0.00     0.093 C 
HETATM   22  N4  UNL     1      24.726   2.057  51.836  1.00  0.00    -0.248 NA
HETATM   23  C12 UNL     1      26.718  -0.313  52.106  1.00  0.00     0.030 A 
HETATM   24  F1  UNL     1      28.691  -1.143  53.947  1.00  0.00    -0.210 F 
ENDBRANCH   7   9
ENDBRANCH   4   5
TORSDOF 2
ENDMDL
MODEL 2
REMARK VINA RESULT:      -8.0      3.411      3.681
REMARK  2 active torsions:
REMARK  status: ('A' for Active; 'I' for Inactive)
REMARK    1  A    between atoms: C3_4  and  C4_5 
REMARK       I    between atoms: C4_5  and  N2_7 
REMARK    2  A    between atoms: N2_7  and  C5_8 
ROOT
HETATM    1  N1  UNL     1      21.876   3.687  45.188  1.00  0.00    -0.182 NA
HETATM    2  C1  UNL     1      21.990   3.419  46.298  1.00  0.00     0.152 C 
HETATM    3  C2  UNL     1      22.146   3.103  47.659  1.00  0.00     0.023 C 
HETATM    4  C3  UNL     1      22.282   2.811  48.828  1.00  0.00     0.011 C 
ENDROOT
BRANCH   4   5
HETATM    5  C4  UNL     1      22.423   2.472  50.215  1.00  0.00     0.303 C 
HETATM    6  O1  UNL     1      21.521   2.872  50.995  1.00  0.00    -0.258 OA
HETATM    7  N2  UNL     1      23.559   1.717  50.612  1.00  0.00    -0.301 N 
HETATM    8  H1  UNL     1      24.260   1.426  49.898  1.00  0.00     0.171 HD
BRANCH   7   9
HETATM    9  C5  UNL     1      23.907   1.271  51.917  1.00  0.00     0.126 C 
HETATM   10  C6  UNL     1      25.045   1.738  52.510  1.00  0.00     0.031 C 
HETATM   11  C7  UNL     1      25.324   1.260  53.794  1.00  0.00     0.052 A 
HETATM   12  C8  UNL     1      26.566   0.368  54.059  1.00  0.00     0.059 A 
HETATM   13  C11 UNL     1      25.164  -0.320  53.682  1.00  0.00     0.048 A 
HETATM   14  C9  UNL     1      26.086  -0.150  55.284  1.00  0.00     0.018 A 
HETATM   15  C13 UNL     1      27.411   0.127  52.943  1.00  0.00     0.106 A 
HETATM   16  C10 UNL     1      24.635  -0.811  54.695  1.00  0.00     0.017 A 
HETATM   17  N3  UNL     1      23.780  -1.445  55.520  1.00  0.00    -0.392 N 
HETATM   18  C14 UNL     1      22.567  -1.594  54.789  1.00  0.00     0.124 C 
HETATM   19  H6  UNL     1      24.078  -1.716  56.470  1.00  0.00     0.159 HD
HETATM   20  C15 UNL     1      21.802  -0.330  54.504  1.00  0.00     0.066 C 
HETATM   21  C16 UNL     1      22.539   0.686  53.780  1.00  0.00     0.093 C 
HETATM   22  N4  UNL     1      23.140   0.319  52.699  1.00  0.00    -0.248 NA
HETATM   23  C12 UNL     1      26.121  -0.532  52.482  1.00  0.00     0.030 A 
HETATM   24  F1  UNL     1      28.634   0.604  53.086  1.00  0.00    -0.210 F 
ENDBRANCH   7   9
ENDBRANCH   4   5
TORSDOF 2
ENDMDL
MODEL 3
REMARK VINA RESULT:      -7.8      2.217      3.489
REMARK  2 active torsions:
REMARK  status: ('A' for Active; 'I' for Inactive)
REMARK    1  A    between atoms: C3_4  and  C4_5 
REMARK       I    between atoms: C4_5  and  N2_7 
REMARK    2  A    between atoms: N2_7  and  C5_8 
ROOT
HETATM    1  N1  UNL     1      29.389   8.099  47.215  1.00  0.00    -0.182 NA
HETATM    2  C1  UNL     1      28.696   7.316  47.687  1.00  0.00     0.152 C 
HETATM    3  C2  UNL     1      27.848   6.366  48.283  1.00  0.00     0.023 C 
HETATM    4  C3  UNL     1      27.129   5.531  48.790  1.00  0.00     0.011 C 
ENDROOT
BRANCH   4   5
HETATM    5  C4  UNL     1      26.263   4.550  49.377  1.00  0.00     0.303 C 
HETATM    6  O1  UNL     1      25.078   4.510  48.958  1.00  0.00    -0.258 OA
HETATM    7  N2  UNL     1      26.793   3.698  50.381  1.00  0.00    -0.301 N 
HETATM    8  H1  UNL     1      27.790   3.799  50.671  1.00  0.00     0.171 HD
BRANCH   7   9
HETATM    9  C5  UNL     1      26.130   2.664  51.099  1.00  0.00     0.126 C 
HETATM   10  C6  UNL     1      24.819   2.387  50.831  1.00  0.00     0.031 C 
HETATM   11  C7  UNL     1      24.233   1.357  51.572  1.00  0.00     0.052 A 
HETATM   12  C8  UNL     1      23.085   1.651  52.573  1.00  0.00     0.059 A 
HETATM   13  C11 UNL     1      24.607   1.681  53.085  1.00  0.00     0.048 A 
HETATM   14  C9  UNL     1      23.238   0.444  53.295  1.00  0.00     0.018 A 
HETATM   15  C13 UNL     1      22.643   3.000  52.639  1.00  0.00     0.106 A 
HETATM   16  C10 UNL     1      24.867   0.652  53.734  1.00  0.00     0.017 A 
HETATM   17  N3  UNL     1      25.509  -0.279  54.466  1.00  0.00    -0.392 N 
HETATM   18  C14 UNL     1      26.892   0.048  54.390  1.00  0.00     0.124 C 
HETATM   19  H6  UNL     1      24.977  -1.026  54.938  1.00  0.00     0.159 HD
HETATM   20  C15 UNL     1      27.550  -0.140  53.050  1.00  0.00     0.066 C 
HETATM   21  C16 UNL     1      26.944   0.594  51.958  1.00  0.00     0.093 C 
HETATM   22  N4  UNL     1      26.739   1.855  52.139  1.00  0.00    -0.248 NA
HETATM   23  C12 UNL     1      24.082   3.137  53.112  1.00  0.00     0.030 A 
HETATM   24  F1  UNL     1      21.385   3.169  52.277  1.00  0.00    -0.210 F 
ENDBRANCH   7   9
ENDBRANCH   4   5
TORSDOF 2
ENDMDL
MODEL 4
REMARK VINA RESULT:      -7.6      1.830      2.431
REMARK  2 active torsions:
REMARK  status: ('A' for Active; 'I' for Inactive)
REMARK    1  A    between atoms: C3_4  and  C4_5 
REMARK       I    between atoms: C4_5  and  N2_7 
REMARK    2  A    between atoms: N2_7  and  C5_8 
ROOT
HETATM    1  N1  UNL     1      29.297   7.824  47.192  1.00  0.00    -0.182 NA
HETATM    2  C1  UNL     1      28.685   6.990  47.687  1.00  0.00     0.152 C 
HETATM    3  C2  UNL     1      27.933   5.958  48.277  1.00  0.00     0.023 C 
HETATM    4  C3  UNL     1      27.271   5.083  48.793  1.00  0.00     0.011 C 
ENDROOT
BRANCH   4   5
HETATM    5  C4  UNL     1      26.505   4.043  49.415  1.00  0.00     0.303 C 
HETATM    6  O1  UNL     1      26.962   2.874  49.340  1.00  0.00    -0.258 OA
HETATM    7  N2  UNL     1      25.294   4.396  50.068  1.00  0.00    -0.301 N 
HETATM    8  H1  UNL     1      24.987   5.392  50.084  1.00  0.00     0.171 HD
BRANCH   7   9
HETATM    9  C5  UNL     1      24.378   3.544  50.746  1.00  0.00     0.126 C 
HETATM   10  C6  UNL     1      24.461   3.402  52.102  1.00  0.00     0.031 C 
HETATM   11  C7  UNL     1      23.527   2.552  52.701  1.00  0.00     0.052 A 
HETATM   12  C8  UNL     1      23.977   1.235  53.388  1.00  0.00     0.059 A 
HETATM   13  C11 UNL     1      23.576   1.219  51.832  1.00  0.00     0.048 A 
HETATM   14  C9  UNL     1      22.695   0.638  53.359  1.00  0.00     0.018 A 
HETATM   15  C13 UNL     1      25.376   0.991  53.415  1.00  0.00     0.106 A 
HETATM   16  C10 UNL     1      22.449   0.717  51.679  1.00  0.00     0.017 A 
HETATM   17  N3  UNL     1      21.313   0.252  51.125  1.00  0.00    -0.392 N 
HETATM   18  C14 UNL     1      21.300   0.740  49.788  1.00  0.00     0.124 C 
HETATM   19  H6  UNL     1      20.668  -0.337  51.676  1.00  0.00     0.159 HD
HETATM   20  C15 UNL     1      21.110   2.223  49.621  1.00  0.00     0.066 C 
HETATM   21  C16 UNL     1      22.089   3.049  50.299  1.00  0.00     0.093 C 
HETATM   22  N4  UNL     1      23.333   2.771  50.100  1.00  0.00    -0.248 NA
HETATM   23  C12 UNL     1      25.104   0.981  51.919  1.00  0.00     0.030 A 
HETATM   24  F1  UNL     1      25.886   0.940  54.632  1.00  0.00    -0.210 F 
ENDBRANCH   7   9
ENDBRANCH   4   5
TORSDOF 2
ENDMDL
MODEL 5
REMARK VINA RESULT:      -7.6      3.704      5.323
REMARK  2 active torsions:
REMARK  status: ('A' for Active; 'I' for Inactive)
REMARK    1  A    between atoms: C3_4  and  C4_5 
REMARK       I    between atoms: C4_5  and  N2_7 
REMARK    2  A    between atoms: N2_7  and  C5_8 
ROOT
HETATM    1  N1  UNL     1      27.908   5.671  48.270  1.00  0.00    -0.182 NA
HETATM    2  C1  UNL     1      27.019   5.200  48.820  1.00  0.00     0.152 C 
HETATM    3  C2  UNL     1      25.940   4.622  49.512  1.00  0.00     0.023 C 
HETATM    4  C3  UNL     1      25.009   4.108  50.095  1.00  0.00     0.011 C 
ENDROOT
BRANCH   4   5
HETATM    5  C4  UNL     1      23.895   3.518  50.780  1.00  0.00     0.303 C 
HETATM    6  O1  UNL     1      23.202   4.277  51.503  1.00  0.00    -0.258 OA
HETATM    7  N2  UNL     1      23.652   2.130  50.599  1.00  0.00    -0.301 N 
HETATM    8  H1  UNL     1      24.279   1.572  49.980  1.00  0.00     0.171 HD
BRANCH   7   9
HETATM    9  C5  UNL     1      22.620   1.335  51.172  1.00  0.00     0.126 C 
HETATM   10  C6  UNL     1      21.499   1.056  50.444  1.00  0.00     0.031 C 
HETATM   11  C7  UNL     1      20.528   0.267  51.068  1.00  0.00     0.052 A 
HETATM   12  C8  UNL     1      19.131   0.849  51.411  1.00  0.00     0.059 A 
HETATM   13  C11 UNL     1      20.314   0.940  52.495  1.00  0.00     0.048 A 
HETATM   14  C9  UNL     1      18.815  -0.147  52.365  1.00  0.00     0.018 A 
HETATM   15  C13 UNL     1      18.895   2.189  51.004  1.00  0.00     0.106 A 
HETATM   16  C10 UNL     1      20.147   0.095  53.391  1.00  0.00     0.017 A 
HETATM   17  N3  UNL     1      20.309  -0.652  54.501  1.00  0.00    -0.392 N 
HETATM   18  C14 UNL     1      21.640  -0.412  54.945  1.00  0.00     0.124 C 
HETATM   19  H6  UNL     1      19.534  -1.236  54.852  1.00  0.00     0.159 HD
HETATM   20  C15 UNL     1      22.741  -0.955  54.075  1.00  0.00     0.066 C 
HETATM   21  C16 UNL     1      22.727  -0.489  52.703  1.00  0.00     0.093 C 
HETATM   22  N4  UNL     1      22.647   0.784  52.514  1.00  0.00    -0.248 NA
HETATM   23  C12 UNL     1      20.032   2.379  51.995  1.00  0.00     0.030 A 
HETATM   24  F1  UNL     1      17.920   2.316  50.122  1.00  0.00    -0.210 F 
ENDBRANCH   7   9
ENDBRANCH   4   5
TORSDOF 2
ENDMDL
MODEL 6
REMARK VINA RESULT:      -7.3      2.764      3.263
REMARK  2 active torsions:
REMARK  status: ('A' for Active; 'I' for Inactive)
REMARK    1  A    between atoms: C3_4  and  C4_5 
REMARK       I    between atoms: C4_5  and  N2_7 
REMARK    2  A    between atoms: N2_7  and  C5_8 
ROOT
HETATM    1  N1  UNL     1      28.205  10.069  49.355  1.00  0.00    -0.182 NA
HETATM    2  C1  UNL     1      27.403   9.314  49.675  1.00  0.00     0.152 C 
HETATM    3  C2  UNL     1      26.423   8.394  50.086  1.00  0.00     0.023 C 
HETATM    4  C3  UNL     1      25.588   7.585  50.432  1.00  0.00     0.011 C 
ENDROOT
BRANCH   4   5
HETATM    5  C4  UNL     1      24.585   6.639  50.829  1.00  0.00     0.303 C 
HETATM    6  O1  UNL     1      23.457   7.099  51.141  1.00  0.00    -0.258 OA
HETATM    7  N2  UNL     1      24.928   5.261  50.843  1.00  0.00    -0.301 N 
HETATM    8  H1  UNL     1      25.889   4.965  50.568  1.00  0.00     0.171 HD
BRANCH   7   9
HETATM    9  C5  UNL     1      24.108   4.153  51.199  1.00  0.00     0.126 C 
HETATM   10  C6  UNL     1      24.162   3.652  52.468  1.00  0.00     0.031 C 
HETATM   11  C7  UNL     1      23.328   2.566  52.748  1.00  0.00     0.052 A 
HETATM   12  C8  UNL     1      23.922   1.172  53.083  1.00  0.00     0.059 A 
HETATM   13  C11 UNL     1      23.582   1.542  51.556  1.00  0.00     0.048 A 
HETATM   14  C9  UNL     1      22.731   0.461  52.804  1.00  0.00     0.018 A 
HETATM   15  C13 UNL     1      25.339   1.094  53.140  1.00  0.00     0.106 A 
HETATM   16  C10 UNL     1      22.536   0.974  51.196  1.00  0.00     0.017 A 
HETATM   17  N3  UNL     1      21.490   0.552  50.458  1.00  0.00    -0.392 N 
HETATM   18  C14 UNL     1      21.460   1.387  49.306  1.00  0.00     0.124 C 
HETATM   19  H6  UNL     1      20.910  -0.237  50.783  1.00  0.00     0.159 HD
HETATM   20  C15 UNL     1      21.083   2.826  49.535  1.00  0.00     0.066 C 
HETATM   21  C16 UNL     1      21.921   3.539  50.477  1.00  0.00     0.093 C 
HETATM   22  N4  UNL     1      23.197   3.474  50.297  1.00  0.00    -0.248 NA
HETATM   23  C12 UNL     1      25.123   1.469  51.682  1.00  0.00     0.030 A 
HETATM   24  F1  UNL     1      25.809   0.768  54.330  1.00  0.00    -0.210 F 
ENDBRANCH   7   9
ENDBRANCH   4   5
TORSDOF 2
ENDMDL
MODEL 7
REMARK VINA RESULT:      -7.2      3.151      4.367
REMARK  2 active torsions:
REMARK  status: ('A' for Active; 'I' for Inactive)
REMARK    1  A    between atoms: C3_4  and  C4_5 
REMARK       I    between atoms: C4_5  and  N2_7 
REMARK    2  A    between atoms: N2_7  and  C5_8 
ROOT
HETATM    1  N1  UNL     1      27.581  10.557  49.190  1.00  0.00    -0.182 NA
HETATM    2  C1  UNL     1      27.004   9.624  49.525  1.00  0.00     0.152 C 
HETATM    3  C2  UNL     1      26.283   8.492  49.946  1.00  0.00     0.023 C 
HETATM    4  C3  UNL     1      25.679   7.508  50.317  1.00  0.00     0.011 C 
ENDROOT
BRANCH   4   5
HETATM    5  C4  UNL     1      24.961   6.340  50.735  1.00  0.00     0.303 C 
HETATM    6  O1  UNL     1      23.851   6.522  51.298  1.00  0.00    -0.258 OA
HETATM    7  N2  UNL     1      25.542   5.067  50.490  1.00  0.00    -0.301 N 
HETATM    8  H1  UNL     1      26.469   5.006  50.016  1.00  0.00     0.171 HD
BRANCH   7   9
HETATM    9  C5  UNL     1      25.021   3.783  50.814  1.00  0.00     0.126 C 
HETATM   10  C6  UNL     1      23.878   3.345  50.208  1.00  0.00     0.031 C 
HETATM   11  C7  UNL     1      23.426   2.073  50.572  1.00  0.00     0.052 A 
HETATM   12  C8  UNL     1      22.083   1.893  51.329  1.00  0.00     0.059 A 
HETATM   13  C11 UNL     1      23.443   2.076  52.164  1.00  0.00     0.048 A 
HETATM   14  C9  UNL     1      22.383   0.595  51.805  1.00  0.00     0.018 A 
HETATM   15  C13 UNL     1      21.337   3.078  51.568  1.00  0.00     0.106 A 
HETATM   16  C10 UNL     1      23.816   0.986  52.631  1.00  0.00     0.017 A 
HETATM   17  N3  UNL     1      24.518   0.038  53.282  1.00  0.00    -0.392 N 
HETATM   18  C14 UNL     1      25.778   0.623  53.587  1.00  0.00     0.124 C 
HETATM   19  H6  UNL     1      24.099  -0.888  53.460  1.00  0.00     0.159 HD
HETATM   20  C15 UNL     1      26.687   0.897  52.419  1.00  0.00     0.066 C 
HETATM   21  C16 UNL     1      26.129   1.753  51.393  1.00  0.00     0.093 C 
HETATM   22  N4  UNL     1      25.609   2.870  51.776  1.00  0.00    -0.248 NA
HETATM   23  C12 UNL     1      22.598   3.358  52.369  1.00  0.00     0.030 A 
HETATM   24  F1  UNL     1      20.157   3.096  50.975  1.00  0.00    -0.210 F 
ENDBRANCH   7   9
ENDBRANCH   4   5
TORSDOF 2
ENDMDL
MODEL 8
REMARK VINA RESULT:      -6.9      4.628      7.095
REMARK  2 active torsions:
REMARK  status: ('A' for Active; 'I' for Inactive)
REMARK    1  A    between atoms: C3_4  and  C4_5 
REMARK       I    between atoms: C4_5  and  N2_7 
REMARK    2  A    between atoms: N2_7  and  C5_8 
ROOT
HETATM    1  N1  UNL     1      14.552   4.620  48.436  1.00  0.00    -0.182 NA
HETATM    2  C1  UNL     1      15.471   4.281  49.034  1.00  0.00     0.152 C 
HETATM    3  C2  UNL     1      16.606   3.884  49.762  1.00  0.00     0.023 C 
HETATM    4  C3  UNL     1      17.586   3.523  50.378  1.00  0.00     0.011 C 
ENDROOT
BRANCH   4   5
HETATM    5  C4  UNL     1      18.734   3.096  51.125  1.00  0.00     0.303 C 
HETATM    6  O1  UNL     1      18.895   3.604  52.264  1.00  0.00    -0.258 OA
HETATM    7  N2  UNL     1      19.604   2.140  50.536  1.00  0.00    -0.301 N 
HETATM    8  H1  UNL     1      19.395   1.770  49.584  1.00  0.00     0.171 HD
BRANCH   7   9
HETATM    9  C5  UNL     1      20.791   1.576  51.081  1.00  0.00     0.126 C 
HETATM   10  C6  UNL     1      20.824   0.250  51.404  1.00  0.00     0.031 C 
HETATM   11  C7  UNL     1      22.023  -0.237  51.932  1.00  0.00     0.052 A 
HETATM   12  C8  UNL     1      22.098  -0.750  53.394  1.00  0.00     0.059 A 
HETATM   13  C11 UNL     1      22.409   0.795  53.081  1.00  0.00     0.048 A 
HETATM   14  C9  UNL     1      23.506  -0.646  53.488  1.00  0.00     0.018 A 
HETATM   15  C13 UNL     1      20.878  -0.744  54.122  1.00  0.00     0.106 A 
HETATM   16  C10 UNL     1      23.633   1.009  53.126  1.00  0.00     0.017 A 
HETATM   17  N3  UNL     1      24.834   1.618  53.087  1.00  0.00    -0.392 N 
HETATM   18  C14 UNL     1      24.614   2.881  52.469  1.00  0.00     0.124 C 
HETATM   19  H6  UNL     1      25.669   1.146  53.469  1.00  0.00     0.159 HD
HETATM   20  C15 UNL     1      24.261   2.857  51.007  1.00  0.00     0.066 C 
HETATM   21  C16 UNL     1      23.085   2.080  50.672  1.00  0.00     0.093 C 
HETATM   22  N4  UNL     1      22.011   2.314  51.347  1.00  0.00    -0.248 NA
HETATM   23  C12 UNL     1      21.069   0.740  53.855  1.00  0.00     0.030 A 
HETATM   24  F1  UNL     1      20.474  -1.944  54.496  1.00  0.00    -0.210 F 
ENDBRANCH   7   9
ENDBRANCH   4   5
TORSDOF 2
ENDMDL
MODEL 9
REMARK VINA RESULT:      -6.8      3.162      3.528
REMARK  2 active torsions:
REMARK  status: ('A' for Active; 'I' for Inactive)
REMARK    1  A    between atoms: C3_4  and  C4_5 
REMARK       I    between atoms: C4_5  and  N2_7 
REMARK    2  A    between atoms: N2_7  and  C5_8 
ROOT
HETATM    1  N1  UNL     1      21.202   7.457  46.200  1.00  0.00    -0.182 NA
HETATM    2  C1  UNL     1      21.568   6.612  46.883  1.00  0.00     0.152 C 
HETATM    3  C2  UNL     1      22.022   5.564  47.704  1.00  0.00     0.023 C 
HETATM    4  C3  UNL     1      22.395   4.661  48.422  1.00  0.00     0.011 C 
ENDROOT
BRANCH   4   5
HETATM    5  C4  UNL     1      22.852   3.605  49.279  1.00  0.00     0.303 C 
HETATM    6  O1  UNL     1      23.053   2.484  48.747  1.00  0.00    -0.258 OA
HETATM    7  N2  UNL     1      23.043   3.891  50.657  1.00  0.00    -0.301 N 
HETATM    8  H1  UNL     1      22.852   4.851  51.016  1.00  0.00     0.171 HD
BRANCH   7   9
HETATM    9  C5  UNL     1      23.483   3.012  51.686  1.00  0.00     0.126 C 
HETATM   10  C6  UNL     1      24.542   3.367  52.472  1.00  0.00     0.031 C 
HETATM   11  C7  UNL     1      24.917   2.457  53.465  1.00  0.00     0.052 A 
HETATM   12  C8  UNL     1      26.292   1.739  53.407  1.00  0.00     0.059 A 
HETATM   13  C11 UNL     1      25.013   1.056  52.715  1.00  0.00     0.048 A 
HETATM   14  C9  UNL     1      25.924   0.699  54.293  1.00  0.00     0.018 A 
HETATM   15  C13 UNL     1      27.144   2.107  52.332  1.00  0.00     0.106 A 
HETATM   16  C10 UNL     1      24.589   0.120  53.416  1.00  0.00     0.017 A 
HETATM   17  N3  UNL     1      23.862  -0.919  53.871  1.00  0.00    -0.392 N 
HETATM   18  C14 UNL     1      22.676  -0.943  53.084  1.00  0.00     0.124 C 
HETATM   19  H6  UNL     1      24.218  -1.504  54.644  1.00  0.00     0.159 HD
HETATM   20  C15 UNL     1      21.712   0.192  53.297  1.00  0.00     0.066 C 
HETATM   21  C16 UNL     1      22.262   1.515  53.083  1.00  0.00     0.093 C 
HETATM   22  N4  UNL     1      22.895   1.718  51.977  1.00  0.00    -0.248 NA
HETATM   23  C12 UNL     1      25.969   1.502  51.582  1.00  0.00     0.030 A 
HETATM   24  F1  UNL     1      28.276   2.668  52.716  1.00  0.00    -0.210 F 
ENDBRANCH   7   9
ENDBRANCH   4   5
TORSDOF 2
ENDMDL
