MODEL 1
REMARK VINA RESULT:      -7.3      0.000      0.000
REMARK  6 active torsions:
REMARK  status: ('A' for Active; 'I' for Inactive)
REMARK    1  A    between atoms: C3_3  and  C4_5 
REMARK    2  A    between atoms: C5_6  and  C6_8 
REMARK    3  A    between atoms: C6_8  and  N1_9 
REMARK    4  A    between atoms: N1_9  and  C7_10 
REMARK    5  A    between atoms: C11_16  and  O1_17 
REMARK    6  A    between atoms: C13_19  and  O2_20 
ROOT
HETATM    1  C7  UNL     1      24.277   2.509  52.119  1.00  0.00     0.138 A 
HETATM    2  N2  UNL     1      24.711   3.375  51.189  1.00  0.00    -0.224 NA
HETATM    3  C8  UNL     1      25.960   3.362  50.690  1.00  0.00     0.235 A 
HETATM    4  N3  UNL     1      26.894   2.467  51.084  1.00  0.00    -0.241 NA
HETATM    5  C9  UNL     1      26.514   1.570  52.019  1.00  0.00     0.075 A 
HETATM    6  C10 UNL     1      27.459   0.652  52.429  1.00  0.00     0.072 A 
HETATM    7  C11 UNL     1      27.099  -0.277  53.383  1.00  0.00     0.103 A 
HETATM    8  C13 UNL     1      25.817  -0.288  53.918  1.00  0.00     0.102 A 
HETATM    9  C15 UNL     1      24.919   0.656  53.465  1.00  0.00     0.057 A 
HETATM   10  C16 UNL     1      25.230   1.598  52.520  1.00  0.00     0.041 A 
ENDROOT
BRANCH   1  11
HETATM   11  N1  UNL     1      22.954   2.552  52.632  1.00  0.00    -0.368 N 
HETATM   12  H8  UNL     1      22.689   2.695  53.604  1.00  0.00     0.161 HD
BRANCH  11  13
HETATM   13  C6  UNL     1      21.817   2.385  51.754  1.00  0.00     0.191 C 
BRANCH  13  14
HETATM   14  C5  UNL     1      21.285   1.010  51.971  1.00  0.00     0.112 C 
HETATM   15  C4  UNL     1      20.523   0.813  53.061  1.00  0.00     0.058 C 
HETATM   16  F1  UNL     1      21.403  -0.139  51.277  1.00  0.00    -0.209 F 
BRANCH  15  17
HETATM   17  C3  UNL     1      19.941  -0.482  53.387  1.00  0.00     0.009 C 
HETATM   18  C2  UNL     1      20.615  -1.402  54.097  1.00  0.00    -0.012 C 
HETATM   19  C1  UNL     1      21.981  -1.451  54.718  1.00  0.00     0.037 C 
HETATM   20 BR1  UNL     1      18.157  -0.899  52.791  1.00  0.00    -0.051 Br
ENDBRANCH  15  17
ENDBRANCH  13  14
ENDBRANCH  11  13
ENDBRANCH   1  11
BRANCH   8  21
HETATM   21  O2  UNL     1      25.495  -1.228  54.865  1.00  0.00    -0.353 OA
HETATM   22  C14 UNL     1      25.244  -0.858  56.191  1.00  0.00     0.210 C 
ENDBRANCH   8  21
BRANCH   7  23
HETATM   23  O1  UNL     1      28.005  -1.244  53.850  1.00  0.00    -0.353 OA
HETATM   24  C12 UNL     1      29.387  -1.110  53.584  1.00  0.00     0.210 C 
ENDBRANCH   7  23
TORSDOF 6
ENDMDL
MODEL 2
REMARK VINA RESULT:      -7.0      2.868      4.247
REMARK  6 active torsions:
REMARK  status: ('A' for Active; 'I' for Inactive)
REMARK    1  A    between atoms: C3_3  and  C4_5 
REMARK    2  A    between atoms: C5_6  and  C6_8 
REMARK    3  A    between atoms: C6_8  and  N1_9 
REMARK    4  A    between atoms: N1_9  and  C7_10 
REMARK    5  A    between atoms: C11_16  and  O1_17 
REMARK    6  A    between atoms: C13_19  and  O2_20 
ROOT
HETATM    1  C7  UNL     1      24.756  -0.433  53.503  1.00  0.00     0.138 A 
HETATM    2  N2  UNL     1      25.838  -0.907  54.141  1.00  0.00    -0.224 NA
HETATM    3  C8  UNL     1      27.064  -0.368  54.021  1.00  0.00     0.235 A 
HETATM    4  N3  UNL     1      27.315   0.708  53.242  1.00  0.00    -0.241 NA
HETATM    5  C9  UNL     1      26.263   1.229  52.575  1.00  0.00     0.075 A 
HETATM    6  C10 UNL     1      26.507   2.328  51.777  1.00  0.00     0.072 A 
HETATM    7  C11 UNL     1      25.451   2.881  51.083  1.00  0.00     0.103 A 
HETATM    8  C13 UNL     1      24.174   2.346  51.186  1.00  0.00     0.102 A 
HETATM    9  C15 UNL     1      23.996   1.248  52.001  1.00  0.00     0.057 A 
HETATM   10  C16 UNL     1      25.013   0.663  52.709  1.00  0.00     0.041 A 
ENDROOT
BRANCH   1  11
HETATM   11  N1  UNL     1      23.475  -1.028  53.644  1.00  0.00    -0.368 N 
HETATM   12  H8  UNL     1      22.995  -1.597  52.951  1.00  0.00     0.161 HD
BRANCH  11  13
HETATM   13  C6  UNL     1      22.712  -0.856  54.862  1.00  0.00     0.191 C 
BRANCH  13  14
HETATM   14  C5  UNL     1      21.405  -0.248  54.486  1.00  0.00     0.112 C 
HETATM   15  C4  UNL     1      20.892  -0.589  53.290  1.00  0.00     0.058 C 
HETATM   16  F1  UNL     1      20.578   0.611  55.114  1.00  0.00    -0.209 F 
BRANCH  15  17
HETATM   17  C3  UNL     1      19.621  -0.067  52.805  1.00  0.00     0.009 C 
HETATM   18  C2  UNL     1      18.474  -0.752  52.948  1.00  0.00    -0.012 C 
HETATM   19  C1  UNL     1      18.115  -2.080  53.550  1.00  0.00     0.037 C 
HETATM   20 BR1  UNL     1      19.570   1.651  51.934  1.00  0.00    -0.051 Br
ENDBRANCH  15  17
ENDBRANCH  13  14
ENDBRANCH  11  13
ENDBRANCH   1  11
BRANCH   8  21
HETATM   21  O2  UNL     1      23.147   2.924  50.482  1.00  0.00    -0.353 OA
HETATM   22  C14 UNL     1      22.613   2.304  49.347  1.00  0.00     0.210 C 
ENDBRANCH   8  21
BRANCH   7  23
HETATM   23  O1  UNL     1      25.621   4.000  50.251  1.00  0.00    -0.353 OA
HETATM   24  C12 UNL     1      26.714   4.062  49.358  1.00  0.00     0.210 C 
ENDBRANCH   7  23
TORSDOF 6
ENDMDL
MODEL 3
REMARK VINA RESULT:      -6.9      3.171      5.097
REMARK  6 active torsions:
REMARK  status: ('A' for Active; 'I' for Inactive)
REMARK    1  A    between atoms: C3_3  and  C4_5 
REMARK    2  A    between atoms: C5_6  and  C6_8 
REMARK    3  A    between atoms: C6_8  and  N1_9 
REMARK    4  A    between atoms: N1_9  and  C7_10 
REMARK    5  A    between atoms: C11_16  and  O1_17 
REMARK    6  A    between atoms: C13_19  and  O2_20 
ROOT
HETATM    1  C7  UNL     1      23.012   1.905  52.658  1.00  0.00     0.138 A 
HETATM    2  N2  UNL     1      22.002   1.053  52.420  1.00  0.00    -0.224 NA
HETATM    3  C8  UNL     1      22.078  -0.270  52.646  1.00  0.00     0.235 A 
HETATM    4  N3  UNL     1      23.189  -0.863  53.138  1.00  0.00    -0.241 NA
HETATM    5  C9  UNL     1      24.240  -0.057  53.396  1.00  0.00     0.075 A 
HETATM    6  C10 UNL     1      25.379  -0.651  53.898  1.00  0.00     0.072 A 
HETATM    7  C11 UNL     1      26.470   0.149  54.173  1.00  0.00     0.103 A 
HETATM    8  C13 UNL     1      26.421   1.519  53.949  1.00  0.00     0.102 A 
HETATM    9  C15 UNL     1      25.252   2.051  53.447  1.00  0.00     0.057 A 
HETATM   10  C16 UNL     1      24.144   1.298  53.159  1.00  0.00     0.041 A 
ENDROOT
BRANCH   1  11
HETATM   11  N1  UNL     1      22.904   3.296  52.404  1.00  0.00    -0.368 N 
HETATM   12  H8  UNL     1      23.349   4.042  52.934  1.00  0.00     0.161 HD
BRANCH  11  13
HETATM   13  C6  UNL     1      22.103   3.785  51.303  1.00  0.00     0.191 C 
BRANCH  13  14
HETATM   14  C5  UNL     1      23.041   4.283  50.257  1.00  0.00     0.112 C 
HETATM   15  C4  UNL     1      24.195   4.829  50.679  1.00  0.00     0.058 C 
HETATM   16  F1  UNL     1      22.985   4.304  48.911  1.00  0.00    -0.209 F 
BRANCH  15  17
HETATM   17  C3  UNL     1      25.198   5.351  49.759  1.00  0.00     0.009 C 
HETATM   18  C2  UNL     1      26.222   4.596  49.327  1.00  0.00    -0.012 C 
HETATM   19  C1  UNL     1      26.659   3.182  49.576  1.00  0.00     0.037 C 
HETATM   20 BR1  UNL     1      25.061   7.169  49.137  1.00  0.00    -0.051 Br
ENDBRANCH  15  17
ENDBRANCH  13  14
ENDBRANCH  11  13
ENDBRANCH   1  11
BRANCH   8  21
HETATM   21  O2  UNL     1      27.524   2.283  54.235  1.00  0.00    -0.353 OA
HETATM   22  C14 UNL     1      28.488   2.551  53.256  1.00  0.00     0.210 C 
ENDBRANCH   8  21
BRANCH   7  23
HETATM   23  O1  UNL     1      27.664  -0.384  54.685  1.00  0.00    -0.353 OA
HETATM   24  C12 UNL     1      28.635  -0.922  53.811  1.00  0.00     0.210 C 
ENDBRANCH   7  23
TORSDOF 6
ENDMDL
MODEL 4
REMARK VINA RESULT:      -6.8      3.830      6.636
REMARK  6 active torsions:
REMARK  status: ('A' for Active; 'I' for Inactive)
REMARK    1  A    between atoms: C3_3  and  C4_5 
REMARK    2  A    between atoms: C5_6  and  C6_8 
REMARK    3  A    between atoms: C6_8  and  N1_9 
REMARK    4  A    between atoms: N1_9  and  C7_10 
REMARK    5  A    between atoms: C11_16  and  O1_17 
REMARK    6  A    between atoms: C13_19  and  O2_20 
ROOT
HETATM    1  C7  UNL     1      23.039   0.521  52.975  1.00  0.00     0.138 A 
HETATM    2  N2  UNL     1      21.824   0.170  53.425  1.00  0.00    -0.224 NA
HETATM    3  C8  UNL     1      20.739   0.957  53.322  1.00  0.00     0.235 A 
HETATM    4  N3  UNL     1      20.777   2.182  52.749  1.00  0.00    -0.241 NA
HETATM    5  C9  UNL     1      21.974   2.590  52.278  1.00  0.00     0.075 A 
HETATM    6  C10 UNL     1      22.026   3.838  51.692  1.00  0.00     0.072 A 
HETATM    7  C11 UNL     1      23.237   4.282  51.201  1.00  0.00     0.103 A 
HETATM    8  C13 UNL     1      24.375   3.491  51.293  1.00  0.00     0.102 A 
HETATM    9  C15 UNL     1      24.256   2.254  51.890  1.00  0.00     0.057 A 
HETATM   10  C16 UNL     1      23.077   1.770  52.393  1.00  0.00     0.041 A 
ENDROOT
BRANCH   1  11
HETATM   11  N1  UNL     1      24.168  -0.329  53.104  1.00  0.00    -0.368 N 
HETATM   12  H8  UNL     1      24.717  -0.721  52.342  1.00  0.00     0.161 HD
BRANCH  11  13
HETATM   13  C6  UNL     1      24.650  -0.722  54.410  1.00  0.00     0.191 C 
BRANCH  13  14
HETATM   14  C5  UNL     1      26.034  -0.189  54.553  1.00  0.00     0.112 C 
HETATM   15  C4  UNL     1      26.781  -0.119  53.437  1.00  0.00     0.058 C 
HETATM   16  F1  UNL     1      26.738   0.264  55.609  1.00  0.00    -0.209 F 
BRANCH  15  17
HETATM   17  C3  UNL     1      28.149   0.385  53.440  1.00  0.00     0.009 C 
HETATM   18  C2  UNL     1      29.207  -0.442  53.395  1.00  0.00    -0.012 C 
HETATM   19  C1  UNL     1      29.369  -1.934  53.337  1.00  0.00     0.037 C 
HETATM   20 BR1  UNL     1      28.462   2.285  53.508  1.00  0.00    -0.051 Br
ENDBRANCH  15  17
ENDBRANCH  13  14
ENDBRANCH  11  13
ENDBRANCH   1  11
BRANCH   8  21
HETATM   21  O2  UNL     1      25.561   3.966  50.793  1.00  0.00    -0.353 OA
HETATM   22  C14 UNL     1      26.233   3.291  49.767  1.00  0.00     0.210 C 
ENDBRANCH   8  21
BRANCH   7  23
HETATM   23  O1  UNL     1      23.368   5.541  50.591  1.00  0.00    -0.353 OA
HETATM   24  C12 UNL     1      22.329   6.493  50.696  1.00  0.00     0.210 C 
ENDBRANCH   7  23
TORSDOF 6
ENDMDL
MODEL 5
REMARK VINA RESULT:      -6.7      3.990      6.440
REMARK  6 active torsions:
REMARK  status: ('A' for Active; 'I' for Inactive)
REMARK    1  A    between atoms: C3_3  and  C4_5 
REMARK    2  A    between atoms: C5_6  and  C6_8 
REMARK    3  A    between atoms: C6_8  and  N1_9 
REMARK    4  A    between atoms: N1_9  and  C7_10 
REMARK    5  A    between atoms: C11_16  and  O1_17 
REMARK    6  A    between atoms: C13_19  and  O2_20 
ROOT
HETATM    1  C7  UNL     1      26.771   2.264  52.067  1.00  0.00     0.138 A 
HETATM    2  N2  UNL     1      27.987   1.961  52.548  1.00  0.00    -0.224 NA
HETATM    3  C8  UNL     1      28.226   0.909  53.351  1.00  0.00     0.235 A 
HETATM    4  N3  UNL     1      27.253   0.058  53.747  1.00  0.00    -0.241 NA
HETATM    5  C9  UNL     1      26.007   0.312  53.295  1.00  0.00     0.075 A 
HETATM    6  C10 UNL     1      25.006  -0.550  53.693  1.00  0.00     0.072 A 
HETATM    7  C11 UNL     1      23.722  -0.314  53.246  1.00  0.00     0.103 A 
HETATM    8  C13 UNL     1      23.445   0.764  52.415  1.00  0.00     0.102 A 
HETATM    9  C15 UNL     1      24.490   1.588  52.054  1.00  0.00     0.057 A 
HETATM   10  C16 UNL     1      25.780   1.395  52.473  1.00  0.00     0.041 A 
ENDROOT
BRANCH   1  11
HETATM   11  N1  UNL     1      26.548   3.385  51.226  1.00  0.00    -0.368 N 
HETATM   12  H8  UNL     1      26.349   4.336  51.529  1.00  0.00     0.161 HD
BRANCH  11  13
HETATM   13  C6  UNL     1      26.592   3.247  49.787  1.00  0.00     0.191 C 
BRANCH  13  14
HETATM   14  C5  UNL     1      26.493   4.615  49.205  1.00  0.00     0.112 C 
HETATM   15  C4  UNL     1      25.543   5.426  49.705  1.00  0.00     0.058 C 
HETATM   16  F1  UNL     1      27.183   5.254  48.240  1.00  0.00    -0.209 F 
BRANCH  15  17
HETATM   17  C3  UNL     1      25.343   6.787  49.226  1.00  0.00     0.009 C 
HETATM   18  C2  UNL     1      24.397   7.086  48.320  1.00  0.00    -0.012 C 
HETATM   19  C1  UNL     1      23.365   6.285  47.579  1.00  0.00     0.037 C 
HETATM   20 BR1  UNL     1      26.456   8.206  49.903  1.00  0.00    -0.051 Br
ENDBRANCH  15  17
ENDBRANCH  13  14
ENDBRANCH  11  13
ENDBRANCH   1  11
BRANCH   8  21
HETATM   21  O2  UNL     1      22.156   0.966  51.990  1.00  0.00    -0.353 OA
HETATM   22  C14 UNL     1      21.804   2.118  51.278  1.00  0.00     0.210 C 
ENDBRANCH   8  21
BRANCH   7  23
HETATM   23  O1  UNL     1      22.651  -1.148  53.607  1.00  0.00    -0.353 OA
HETATM   24  C12 UNL     1      22.052  -1.024  54.881  1.00  0.00     0.210 C 
ENDBRANCH   7  23
TORSDOF 6
ENDMDL
MODEL 6
REMARK VINA RESULT:      -6.7      2.378      3.625
REMARK  6 active torsions:
REMARK  status: ('A' for Active; 'I' for Inactive)
REMARK    1  A    between atoms: C3_3  and  C4_5 
REMARK    2  A    between atoms: C5_6  and  C6_8 
REMARK    3  A    between atoms: C6_8  and  N1_9 
REMARK    4  A    between atoms: N1_9  and  C7_10 
REMARK    5  A    between atoms: C11_16  and  O1_17 
REMARK    6  A    between atoms: C13_19  and  O2_20 
ROOT
HETATM    1  C7  UNL     1      23.317  -0.046  53.353  1.00  0.00     0.138 A 
HETATM    2  N2  UNL     1      22.898  -0.842  54.350  1.00  0.00    -0.224 NA
HETATM    3  C8  UNL     1      23.716  -1.344  55.292  1.00  0.00     0.235 A 
HETATM    4  N3  UNL     1      25.043  -1.088  55.317  1.00  0.00    -0.241 NA
HETATM    5  C9  UNL     1      25.524  -0.293  54.338  1.00  0.00     0.075 A 
HETATM    6  C10 UNL     1      26.877  -0.024  54.354  1.00  0.00     0.072 A 
HETATM    7  C11 UNL     1      27.396   0.786  53.365  1.00  0.00     0.103 A 
HETATM    8  C13 UNL     1      26.576   1.319  52.379  1.00  0.00     0.102 A 
HETATM    9  C15 UNL     1      25.232   1.014  52.420  1.00  0.00     0.057 A 
HETATM   10  C16 UNL     1      24.671   0.214  53.380  1.00  0.00     0.041 A 
ENDROOT
BRANCH   1  11
HETATM   11  N1  UNL     1      22.431   0.465  52.370  1.00  0.00    -0.368 N 
HETATM   12  H8  UNL     1      22.193   0.022  51.485  1.00  0.00     0.161 HD
BRANCH  11  13
HETATM   13  C6  UNL     1      21.759   1.730  52.568  1.00  0.00     0.191 C 
BRANCH  13  14
HETATM   14  C5  UNL     1      20.310   1.512  52.297  1.00  0.00     0.112 C 
HETATM   15  C4  UNL     1      19.954   0.316  51.797  1.00  0.00     0.058 C 
HETATM   16  F1  UNL     1      19.220   2.290  52.452  1.00  0.00    -0.209 F 
BRANCH  15  17
HETATM   17  C3  UNL     1      18.571  -0.025  51.489  1.00  0.00     0.009 C 
HETATM   18  C2  UNL     1      17.858  -0.858  52.267  1.00  0.00    -0.012 C 
HETATM   19  C1  UNL     1      18.150  -1.626  53.524  1.00  0.00     0.037 C 
HETATM   20 BR1  UNL     1      17.729   0.733  49.931  1.00  0.00    -0.051 Br
ENDBRANCH  15  17
ENDBRANCH  13  14
ENDBRANCH  11  13
ENDBRANCH   1  11
BRANCH   8  21
HETATM   21  O2  UNL     1      27.128   2.122  51.412  1.00  0.00    -0.353 OA
HETATM   22  C14 UNL     1      26.344   3.039  50.703  1.00  0.00     0.210 C 
ENDBRANCH   8  21
BRANCH   7  23
HETATM   23  O1  UNL     1      28.764   1.104  53.315  1.00  0.00    -0.353 OA
HETATM   24  C12 UNL     1      29.307   2.048  54.216  1.00  0.00     0.210 C 
ENDBRANCH   7  23
TORSDOF 6
ENDMDL
MODEL 7
REMARK VINA RESULT:      -6.7      2.666      4.345
REMARK  6 active torsions:
REMARK  status: ('A' for Active; 'I' for Inactive)
REMARK    1  A    between atoms: C3_3  and  C4_5 
REMARK    2  A    between atoms: C5_6  and  C6_8 
REMARK    3  A    between atoms: C6_8  and  N1_9 
REMARK    4  A    between atoms: N1_9  and  C7_10 
REMARK    5  A    between atoms: C11_16  and  O1_17 
REMARK    6  A    between atoms: C13_19  and  O2_20 
ROOT
HETATM    1  C7  UNL     1      23.226  -0.540  53.577  1.00  0.00     0.138 A 
HETATM    2  N2  UNL     1      22.894  -1.202  54.697  1.00  0.00    -0.224 NA
HETATM    3  C8  UNL     1      23.762  -1.461  55.691  1.00  0.00     0.235 A 
HETATM    4  N3  UNL     1      25.056  -1.071  55.649  1.00  0.00    -0.241 NA
HETATM    5  C9  UNL     1      25.449  -0.401  54.546  1.00  0.00     0.075 A 
HETATM    6  C10 UNL     1      26.768   0.002  54.492  1.00  0.00     0.072 A 
HETATM    7  C11 UNL     1      27.198   0.690  53.376  1.00  0.00     0.103 A 
HETATM    8  C13 UNL     1      26.325   0.971  52.333  1.00  0.00     0.102 A 
HETATM    9  C15 UNL     1      25.019   0.542  52.449  1.00  0.00     0.057 A 
HETATM   10  C16 UNL     1      24.546  -0.144  53.536  1.00  0.00     0.041 A 
ENDROOT
BRANCH   1  11
HETATM   11  N1  UNL     1      22.289  -0.287  52.542  1.00  0.00    -0.368 N 
HETATM   12  H8  UNL     1      22.273  -0.725  51.624  1.00  0.00     0.161 HD
BRANCH  11  13
HETATM   13  C6  UNL     1      21.222   0.671  52.731  1.00  0.00     0.191 C 
BRANCH  13  14
HETATM   14  C5  UNL     1      21.557   1.876  51.921  1.00  0.00     0.112 C 
HETATM   15  C4  UNL     1      21.038   3.049  52.324  1.00  0.00     0.058 C 
HETATM   16  F1  UNL     1      22.306   2.059  50.816  1.00  0.00    -0.209 F 
BRANCH  15  17
HETATM   17  C3  UNL     1      21.290   4.301  51.622  1.00  0.00     0.009 C 
HETATM   18  C2  UNL     1      22.362   5.063  51.897  1.00  0.00    -0.012 C 
HETATM   19  C1  UNL     1      23.509   4.950  52.859  1.00  0.00     0.037 C 
HETATM   20 BR1  UNL     1      20.062   4.888  50.258  1.00  0.00    -0.051 Br
ENDBRANCH  15  17
ENDBRANCH  13  14
ENDBRANCH  11  13
ENDBRANCH   1  11
BRANCH   8  21
HETATM   21  O2  UNL     1      26.789   1.658  51.240  1.00  0.00    -0.353 OA
HETATM   22  C14 UNL     1      26.234   2.890  50.873  1.00  0.00     0.210 C 
ENDBRANCH   8  21
BRANCH   7  23
HETATM   23  O1  UNL     1      28.526   1.132  53.249  1.00  0.00    -0.353 OA
HETATM   24  C12 UNL     1      29.594   0.294  53.641  1.00  0.00     0.210 C 
ENDBRANCH   7  23
TORSDOF 6
ENDMDL
MODEL 8
REMARK VINA RESULT:      -6.6      3.227      5.139
REMARK  6 active torsions:
REMARK  status: ('A' for Active; 'I' for Inactive)
REMARK    1  A    between atoms: C3_3  and  C4_5 
REMARK    2  A    between atoms: C5_6  and  C6_8 
REMARK    3  A    between atoms: C6_8  and  N1_9 
REMARK    4  A    between atoms: N1_9  and  C7_10 
REMARK    5  A    between atoms: C11_16  and  O1_17 
REMARK    6  A    between atoms: C13_19  and  O2_20 
ROOT
HETATM    1  C7  UNL     1      22.117   0.548  52.985  1.00  0.00     0.138 A 
HETATM    2  N2  UNL     1      21.240  -0.040  53.814  1.00  0.00    -0.224 NA
HETATM    3  C8  UNL     1      21.602  -0.867  54.811  1.00  0.00     0.235 A 
HETATM    4  N3  UNL     1      22.892  -1.179  55.068  1.00  0.00    -0.241 NA
HETATM    5  C9  UNL     1      23.821  -0.618  54.265  1.00  0.00     0.075 A 
HETATM    6  C10 UNL     1      25.141  -0.930  54.517  1.00  0.00     0.072 A 
HETATM    7  C11 UNL     1      26.112  -0.370  53.712  1.00  0.00     0.103 A 
HETATM    8  C13 UNL     1      25.769   0.487  52.675  1.00  0.00     0.102 A 
HETATM    9  C15 UNL     1      24.432   0.759  52.475  1.00  0.00     0.057 A 
HETATM   10  C16 UNL     1      23.432   0.227  53.247  1.00  0.00     0.041 A 
ENDROOT
BRANCH   1  11
HETATM   11  N1  UNL     1      21.705   1.412  51.937  1.00  0.00    -0.368 N 
HETATM   12  H8  UNL     1      21.750   1.214  50.940  1.00  0.00     0.161 HD
BRANCH  11  13
HETATM   13  C6  UNL     1      21.155   2.717  52.231  1.00  0.00     0.191 C 
BRANCH  13  14
HETATM   14  C5  UNL     1      22.177   3.729  51.839  1.00  0.00     0.112 C 
HETATM   15  C4  UNL     1      22.049   4.289  50.623  1.00  0.00     0.058 C 
HETATM   16  F1  UNL     1      23.256   4.234  52.468  1.00  0.00    -0.209 F 
BRANCH  15  17
HETATM   17  C3  UNL     1      22.979   5.292  50.120  1.00  0.00     0.009 C 
HETATM   18  C2  UNL     1      22.717   6.606  50.209  1.00  0.00    -0.012 C 
HETATM   19  C1  UNL     1      21.576   7.413  50.756  1.00  0.00     0.037 C 
HETATM   20 BR1  UNL     1      24.633   4.730  49.307  1.00  0.00    -0.051 Br
ENDBRANCH  15  17
ENDBRANCH  13  14
ENDBRANCH  11  13
ENDBRANCH   1  11
BRANCH   8  21
HETATM   21  O2  UNL     1      26.762   1.025  51.896  1.00  0.00    -0.353 OA
HETATM   22  C14 UNL     1      26.701   2.356  51.466  1.00  0.00     0.210 C 
ENDBRANCH   8  21
BRANCH   7  23
HETATM   23  O1  UNL     1      27.477  -0.640  53.907  1.00  0.00    -0.353 OA
HETATM   24  C12 UNL     1      28.222   0.108  54.845  1.00  0.00     0.210 C 
ENDBRANCH   7  23
TORSDOF 6
ENDMDL
MODEL 9
REMARK VINA RESULT:      -6.5      3.129      5.961
REMARK  6 active torsions:
REMARK  status: ('A' for Active; 'I' for Inactive)
REMARK    1  A    between atoms: C3_3  and  C4_5 
REMARK    2  A    between atoms: C5_6  and  C6_8 
REMARK    3  A    between atoms: C6_8  and  N1_9 
REMARK    4  A    between atoms: N1_9  and  C7_10 
REMARK    5  A    between atoms: C11_16  and  O1_17 
REMARK    6  A    between atoms: C13_19  and  O2_20 
ROOT
HETATM    1  C7  UNL     1      24.203   2.847  50.520  1.00  0.00     0.138 A 
HETATM    2  N2  UNL     1      24.151   3.196  49.224  1.00  0.00    -0.224 NA
HETATM    3  C8  UNL     1      23.149   2.840  48.401  1.00  0.00     0.235 A 
HETATM    4  N3  UNL     1      22.099   2.094  48.810  1.00  0.00    -0.241 NA
HETATM    5  C9  UNL     1      22.097   1.712  50.105  1.00  0.00     0.075 A 
HETATM    6  C10 UNL     1      21.029   0.950  50.534  1.00  0.00     0.072 A 
HETATM    7  C11 UNL     1      21.001   0.546  51.853  1.00  0.00     0.103 A 
HETATM    8  C13 UNL     1      22.021   0.898  52.727  1.00  0.00     0.102 A 
HETATM    9  C15 UNL     1      23.059   1.661  52.236  1.00  0.00     0.057 A 
HETATM   10  C16 UNL     1      23.132   2.086  50.935  1.00  0.00     0.041 A 
ENDROOT
BRANCH   1  11
HETATM   11  N1  UNL     1      25.277   3.233  51.364  1.00  0.00    -0.368 N 
HETATM   12  H8  UNL     1      25.244   3.938  52.097  1.00  0.00     0.161 HD
BRANCH  11  13
HETATM   13  C6  UNL     1      26.577   2.612  51.234  1.00  0.00     0.191 C 
BRANCH  13  14
HETATM   14  C5  UNL     1      26.925   2.027  52.560  1.00  0.00     0.112 C 
HETATM   15  C4  UNL     1      27.133   0.700  52.609  1.00  0.00     0.058 C 
HETATM   16  F1  UNL     1      27.088   2.565  53.785  1.00  0.00    -0.209 F 
BRANCH  15  17
HETATM   17  C3  UNL     1      27.481   0.006  53.842  1.00  0.00     0.009 C 
HETATM   18  C2  UNL     1      28.737  -0.397  54.097  1.00  0.00    -0.012 C 
HETATM   19  C1  UNL     1      30.037  -0.309  53.350  1.00  0.00     0.037 C 
HETATM   20 BR1  UNL     1      26.113  -0.349  55.151  1.00  0.00    -0.051 Br
ENDBRANCH  15  17
ENDBRANCH  13  14
ENDBRANCH  11  13
ENDBRANCH   1  11
BRANCH   8  21
HETATM   21  O2  UNL     1      21.958   0.478  54.032  1.00  0.00    -0.353 OA
HETATM   22  C14 UNL     1      22.363  -0.811  54.395  1.00  0.00     0.210 C 
ENDBRANCH   8  21
BRANCH   7  23
HETATM   23  O1  UNL     1      19.948  -0.231  52.363  1.00  0.00    -0.353 OA
HETATM   24  C12 UNL     1      18.667  -0.170  51.769  1.00  0.00     0.210 C 
ENDBRANCH   7  23
TORSDOF 6
ENDMDL
