MODEL 1
REMARK VINA RESULT:      -8.4      0.000      0.000
REMARK  6 active torsions:
REMARK  status: ('A' for Active; 'I' for Inactive)
REMARK    1  A    between atoms: N1_2  and  C2_3 
REMARK    2  A    between atoms: C2_3  and  C3_4 
REMARK    3  A    between atoms: C3_4  and  C4_5 
REMARK    4  A    between atoms: C5_6  and  C6_8 
REMARK    5  A    between atoms: C11_14  and  N3_15 
REMARK    6  A    between atoms: C13_17  and  C14_18 
ROOT
HETATM    1  C6  UNL     1      26.223   1.122  52.788  1.00  0.00    -0.002 C 
HETATM    2  C7  UNL     1      24.918   1.266  52.616  1.00  0.00     0.026 C 
HETATM    3  C8  UNL     1      23.809   0.539  53.222  1.00  0.00     0.003 A 
HETATM    4  C9  UNL     1      23.665  -0.455  54.168  1.00  0.00     0.047 A 
HETATM    5  N2  UNL     1      22.489  -0.973  54.563  1.00  0.00    -0.262 NA
HETATM    6  C10 UNL     1      21.350  -0.484  53.992  1.00  0.00     0.147 A 
HETATM    7  C11 UNL     1      21.416   0.527  53.025  1.00  0.00     0.057 A 
HETATM    8  C13 UNL     1      22.648   1.026  52.651  1.00  0.00     0.014 A 
HETATM    9  C20 UNL     1      24.633  -1.211  54.980  1.00  0.00     0.086 C 
HETATM   10  C21 UNL     1      25.861  -0.320  55.170  1.00  0.00     0.174 C 
HETATM   11  O2  UNL     1      26.853  -0.646  54.276  1.00  0.00    -0.386 OA
HETATM   12  C22 UNL     1      27.292   0.386  53.470  1.00  0.00     0.209 C 
ENDROOT
BRANCH   1  13
HETATM   13  C5  UNL     1      26.774   2.140  51.906  1.00  0.00     0.085 A 
HETATM   14  C4  UNL     1      26.198   2.311  50.547  1.00  0.00     0.192 A 
HETATM   15  O1  UNL     1      27.291   3.023  51.212  1.00  0.00    -0.340 OA
BRANCH  14  16
HETATM   16  C3  UNL     1      26.536   3.155  49.607  1.00  0.00     0.058 C 
BRANCH  16  17
HETATM   17  C2  UNL     1      26.259   4.635  49.564  1.00  0.00     0.277 C 
BRANCH  17  18
HETATM   18  N1  UNL     1      27.464   5.301  49.197  1.00  0.00     0.079 N 
HETATM   19  C1  UNL     1      27.326   6.474  48.397  1.00  0.00     0.306 C 
HETATM   20  H4  UNL     1      28.171   4.624  48.834  1.00  0.00     0.315 HD
ENDBRANCH  17  18
ENDBRANCH  16  17
ENDBRANCH  14  16
ENDBRANCH   1  13
BRANCH   8  21
HETATM   21  C14 UNL     1      22.681   2.068  51.664  1.00  0.00    -0.021 A 
HETATM   22  C15 UNL     1      22.654   1.655  50.324  1.00  0.00     0.015 A 
HETATM   23  C16 UNL     1      22.682   2.504  49.235  1.00  0.00     0.045 A 
HETATM   24  C17 UNL     1      22.742   3.855  49.505  1.00  0.00     0.138 A 
HETATM   25  F1  UNL     1      22.771   4.725  48.476  1.00  0.00    -0.204 F 
HETATM   26  C18 UNL     1      22.771   4.325  50.801  1.00  0.00     0.073 A 
HETATM   27 CL1  UNL     1      22.846   6.019  51.177  1.00  0.00    -0.081 Cl
HETATM   28  C19 UNL     1      22.742   3.468  51.886  1.00  0.00     0.039 A 
ENDBRANCH   8  21
BRANCH   7  29
HETATM   29  N3  UNL     1      20.223   1.025  52.443  1.00  0.00    -0.392 N 
HETATM   30  C12 UNL     1      19.164   0.093  52.061  1.00  0.00     0.146 C 
HETATM   31  H11 UNL     1      20.121   2.045  52.298  1.00  0.00     0.159 HD
ENDBRANCH   7  29
TORSDOF 6
ENDMDL
MODEL 2
REMARK VINA RESULT:      -8.4      0.932      1.284
REMARK  6 active torsions:
REMARK  status: ('A' for Active; 'I' for Inactive)
REMARK    1  A    between atoms: N1_2  and  C2_3 
REMARK    2  A    between atoms: C2_3  and  C3_4 
REMARK    3  A    between atoms: C3_4  and  C4_5 
REMARK    4  A    between atoms: C5_6  and  C6_8 
REMARK    5  A    between atoms: C11_14  and  N3_15 
REMARK    6  A    between atoms: C13_17  and  C14_18 
ROOT
HETATM    1  C6  UNL     1      26.276   1.132  52.785  1.00  0.00    -0.002 C 
HETATM    2  C7  UNL     1      24.968   1.260  52.627  1.00  0.00     0.026 C 
HETATM    3  C8  UNL     1      23.873   0.537  53.263  1.00  0.00     0.003 A 
HETATM    4  C9  UNL     1      23.751  -0.436  54.233  1.00  0.00     0.047 A 
HETATM    5  N2  UNL     1      22.584  -0.956  54.655  1.00  0.00    -0.262 NA
HETATM    6  C10 UNL     1      21.433  -0.489  54.089  1.00  0.00     0.147 A 
HETATM    7  C11 UNL     1      21.478   0.499  53.098  1.00  0.00     0.057 A 
HETATM    8  C13 UNL     1      22.700   1.001  52.697  1.00  0.00     0.014 A 
HETATM    9  C20 UNL     1      24.736  -1.164  55.050  1.00  0.00     0.086 C 
HETATM   10  C21 UNL     1      25.958  -0.258  55.204  1.00  0.00     0.174 C 
HETATM   11  O2  UNL     1      26.941  -0.596  54.305  1.00  0.00    -0.386 OA
HETATM   12  C22 UNL     1      27.360   0.422  53.470  1.00  0.00     0.209 C 
ENDROOT
BRANCH   1  13
HETATM   13  C5  UNL     1      26.806   2.135  51.873  1.00  0.00     0.085 A 
HETATM   14  C4  UNL     1      26.170   2.313  50.542  1.00  0.00     0.192 A 
HETATM   15  O1  UNL     1      27.309   3.003  51.151  1.00  0.00    -0.340 OA
BRANCH  14  16
HETATM   16  C3  UNL     1      26.482   3.145  49.582  1.00  0.00     0.058 C 
BRANCH  16  17
HETATM   17  C2  UNL     1      26.260   4.635  49.558  1.00  0.00     0.277 C 
BRANCH  17  18
HETATM   18  N1  UNL     1      27.481   5.258  49.170  1.00  0.00     0.079 N 
HETATM   19  C1  UNL     1      27.371   6.455  48.402  1.00  0.00     0.306 C 
HETATM   20  H4  UNL     1      28.148   4.561  48.770  1.00  0.00     0.315 HD
ENDBRANCH  17  18
ENDBRANCH  16  17
ENDBRANCH  14  16
ENDBRANCH   1  13
BRANCH   8  21
HETATM   21  C14 UNL     1      22.711   2.020  51.686  1.00  0.00    -0.021 A 
HETATM   22  C15 UNL     1      22.810   3.344  52.139  1.00  0.00     0.015 A 
HETATM   23  C16 UNL     1      22.832   4.458  51.324  1.00  0.00     0.045 A 
HETATM   24  C17 UNL     1      22.750   4.233  49.965  1.00  0.00     0.138 A 
HETATM   25  F1  UNL     1      22.768   5.288  49.127  1.00  0.00    -0.204 F 
HETATM   26  C18 UNL     1      22.652   2.955  49.457  1.00  0.00     0.073 A 
HETATM   27 CL1  UNL     1      22.547   2.636  47.753  1.00  0.00    -0.081 Cl
HETATM   28  C19 UNL     1      22.631   1.845  50.281  1.00  0.00     0.039 A 
ENDBRANCH   8  21
BRANCH   7  29
HETATM   29  N3  UNL     1      20.272   0.973  52.521  1.00  0.00    -0.392 N 
HETATM   30  C12 UNL     1      19.305   0.017  51.986  1.00  0.00     0.146 C 
HETATM   31  H11 UNL     1      20.097   1.993  52.486  1.00  0.00     0.159 HD
ENDBRANCH   7  29
TORSDOF 6
ENDMDL
MODEL 3
REMARK VINA RESULT:      -7.8      1.749      1.983
REMARK  6 active torsions:
REMARK  status: ('A' for Active; 'I' for Inactive)
REMARK    1  A    between atoms: N1_2  and  C2_3 
REMARK    2  A    between atoms: C2_3  and  C3_4 
REMARK    3  A    between atoms: C3_4  and  C4_5 
REMARK    4  A    between atoms: C5_6  and  C6_8 
REMARK    5  A    between atoms: C11_14  and  N3_15 
REMARK    6  A    between atoms: C13_17  and  C14_18 
ROOT
HETATM    1  C6  UNL     1      25.380   1.518  51.678  1.00  0.00    -0.002 C 
HETATM    2  C7  UNL     1      24.126   1.267  52.021  1.00  0.00     0.026 C 
HETATM    3  C8  UNL     1      23.599   0.425  53.089  1.00  0.00     0.003 A 
HETATM    4  C9  UNL     1      24.126  -0.332  54.115  1.00  0.00     0.047 A 
HETATM    5  N2  UNL     1      23.399  -1.042  54.995  1.00  0.00    -0.262 NA
HETATM    6  C10 UNL     1      22.039  -1.015  54.872  1.00  0.00     0.147 A 
HETATM    7  C11 UNL     1      21.431  -0.268  53.856  1.00  0.00     0.057 A 
HETATM    8  C13 UNL     1      22.221   0.445  52.975  1.00  0.00     0.014 A 
HETATM    9  C20 UNL     1      25.505  -0.600  54.555  1.00  0.00     0.086 C 
HETATM   10  C21 UNL     1      26.354   0.606  54.148  1.00  0.00     0.174 C 
HETATM   11  O2  UNL     1      27.029   0.363  52.976  1.00  0.00    -0.386 OA
HETATM   12  C22 UNL     1      26.796   1.267  51.957  1.00  0.00     0.209 C 
ENDROOT
BRANCH   1  13
HETATM   13  C5  UNL     1      25.224   2.421  50.547  1.00  0.00     0.085 A 
HETATM   14  C4  UNL     1      26.290   3.415  50.259  1.00  0.00     0.192 A 
HETATM   15  O1  UNL     1      25.022   3.154  49.572  1.00  0.00    -0.340 OA
BRANCH  14  16
HETATM   16  C3  UNL     1      26.351   4.307  49.304  1.00  0.00     0.058 C 
BRANCH  16  17
HETATM   17  C2  UNL     1      26.196   5.799  49.437  1.00  0.00     0.277 C 
BRANCH  17  18
HETATM   18  N1  UNL     1      25.450   6.064  50.622  1.00  0.00     0.079 N 
HETATM   19  C1  UNL     1      24.083   6.427  50.447  1.00  0.00     0.306 C 
HETATM   20  H4  UNL     1      25.977   6.699  51.262  1.00  0.00     0.315 HD
ENDBRANCH  17  18
ENDBRANCH  16  17
ENDBRANCH  14  16
ENDBRANCH   1  13
BRANCH   8  21
HETATM   21  C14 UNL     1      21.567   1.208  51.951  1.00  0.00    -0.021 A 
HETATM   22  C15 UNL     1      21.275   0.527  50.759  1.00  0.00     0.015 A 
HETATM   23  C16 UNL     1      20.655   1.088  49.661  1.00  0.00     0.045 A 
HETATM   24  C17 UNL     1      20.304   2.418  49.760  1.00  0.00     0.138 A 
HETATM   25  F1  UNL     1      19.695   3.012  48.714  1.00  0.00    -0.204 F 
HETATM   26  C18 UNL     1      20.563   3.142  50.904  1.00  0.00     0.073 A 
HETATM   27 CL1  UNL     1      20.134   4.819  51.063  1.00  0.00    -0.081 Cl
HETATM   28  C19 UNL     1      21.184   2.573  52.000  1.00  0.00     0.039 A 
ENDBRANCH   8  21
BRANCH   7  29
HETATM   29  N3  UNL     1      20.018  -0.250  53.744  1.00  0.00    -0.392 N 
HETATM   30  C12 UNL     1      19.290  -1.509  53.602  1.00  0.00     0.146 C 
HETATM   31  H11 UNL     1      19.522   0.659  53.763  1.00  0.00     0.159 HD
ENDBRANCH   7  29
TORSDOF 6
ENDMDL
MODEL 4
REMARK VINA RESULT:      -7.1      2.943      4.439
REMARK  6 active torsions:
REMARK  status: ('A' for Active; 'I' for Inactive)
REMARK    1  A    between atoms: N1_2  and  C2_3 
REMARK    2  A    between atoms: C2_3  and  C3_4 
REMARK    3  A    between atoms: C3_4  and  C4_5 
REMARK    4  A    between atoms: C5_6  and  C6_8 
REMARK    5  A    between atoms: C11_14  and  N3_15 
REMARK    6  A    between atoms: C13_17  and  C14_18 
ROOT
HETATM    1  C6  UNL     1      24.539   3.327  50.085  1.00  0.00    -0.002 C 
HETATM    2  C7  UNL     1      23.777   2.548  50.838  1.00  0.00     0.026 C 
HETATM    3  C8  UNL     1      24.146   1.440  51.711  1.00  0.00     0.003 A 
HETATM    4  C9  UNL     1      25.320   0.841  52.121  1.00  0.00     0.047 A 
HETATM    5  N2  UNL     1      25.393  -0.206  52.961  1.00  0.00    -0.262 NA
HETATM    6  C10 UNL     1      24.225  -0.718  53.450  1.00  0.00     0.147 A 
HETATM    7  C11 UNL     1      22.995  -0.162  53.080  1.00  0.00     0.057 A 
HETATM    8  C13 UNL     1      22.971   0.913  52.213  1.00  0.00     0.014 A 
HETATM    9  C20 UNL     1      26.736   1.103  51.818  1.00  0.00     0.086 C 
HETATM   10  C21 UNL     1      26.861   2.589  51.480  1.00  0.00     0.174 C 
HETATM   11  O2  UNL     1      26.873   2.789  50.120  1.00  0.00    -0.386 OA
HETATM   12  C22 UNL     1      25.898   3.639  49.635  1.00  0.00     0.209 C 
ENDROOT
BRANCH   1  13
HETATM   13  C5  UNL     1      23.568   4.221  49.471  1.00  0.00     0.085 A 
HETATM   14  C4  UNL     1      23.237   5.504  50.143  1.00  0.00     0.192 A 
HETATM   15  O1  UNL     1      22.736   4.928  48.892  1.00  0.00    -0.340 OA
BRANCH  14  16
HETATM   16  C3  UNL     1      22.405   6.441  49.768  1.00  0.00     0.058 C 
BRANCH  16  17
HETATM   17  C2  UNL     1      21.562   7.322  50.652  1.00  0.00     0.277 C 
BRANCH  17  18
HETATM   18  N1  UNL     1      20.398   7.699  49.921  1.00  0.00     0.079 N 
HETATM   19  C1  UNL     1      19.572   6.638  49.444  1.00  0.00     0.306 C 
HETATM   20  H4  UNL     1      20.626   8.414  49.195  1.00  0.00     0.315 HD
ENDBRANCH  17  18
ENDBRANCH  16  17
ENDBRANCH  14  16
ENDBRANCH   1  13
BRANCH   8  21
HETATM   21  C14 UNL     1      21.694   1.466  51.860  1.00  0.00    -0.021 A 
HETATM   22  C15 UNL     1      21.387   2.720  52.409  1.00  0.00     0.015 A 
HETATM   23  C16 UNL     1      20.212   3.411  52.191  1.00  0.00     0.045 A 
HETATM   24  C17 UNL     1      19.281   2.806  51.371  1.00  0.00     0.138 A 
HETATM   25  F1  UNL     1      18.118   3.441  51.127  1.00  0.00    -0.204 F 
HETATM   26  C18 UNL     1      19.523   1.575  50.801  1.00  0.00     0.073 A 
HETATM   27 CL1  UNL     1      18.375   0.786  49.764  1.00  0.00    -0.081 Cl
HETATM   28  C19 UNL     1      20.703   0.890  51.024  1.00  0.00     0.039 A 
ENDBRANCH   8  21
BRANCH   7  29
HETATM   29  N3  UNL     1      21.792  -0.705  53.598  1.00  0.00    -0.392 N 
HETATM   30  C12 UNL     1      21.406  -0.417  54.977  1.00  0.00     0.146 C 
HETATM   31  H11 UNL     1      21.204  -1.301  52.987  1.00  0.00     0.159 HD
ENDBRANCH   7  29
TORSDOF 6
ENDMDL
MODEL 5
REMARK VINA RESULT:      -6.6      3.376      7.984
REMARK  6 active torsions:
REMARK  status: ('A' for Active; 'I' for Inactive)
REMARK    1  A    between atoms: N1_2  and  C2_3 
REMARK    2  A    between atoms: C2_3  and  C3_4 
REMARK    3  A    between atoms: C3_4  and  C4_5 
REMARK    4  A    between atoms: C5_6  and  C6_8 
REMARK    5  A    between atoms: C11_14  and  N3_15 
REMARK    6  A    between atoms: C13_17  and  C14_18 
ROOT
HETATM    1  C6  UNL     1      22.037   3.996  47.402  1.00  0.00    -0.002 C 
HETATM    2  C7  UNL     1      22.980   4.589  48.118  1.00  0.00     0.026 C 
HETATM    3  C8  UNL     1      23.406   5.984  48.131  1.00  0.00     0.003 A 
HETATM    4  C9  UNL     1      23.011   7.153  47.516  1.00  0.00     0.047 A 
HETATM    5  N2  UNL     1      23.592   8.352  47.703  1.00  0.00    -0.262 NA
HETATM    6  C10 UNL     1      24.648   8.424  48.565  1.00  0.00     0.147 A 
HETATM    7  C11 UNL     1      25.105   7.279  49.228  1.00  0.00     0.057 A 
HETATM    8  C13 UNL     1      24.476   6.070  49.002  1.00  0.00     0.014 A 
HETATM    9  C20 UNL     1      21.945   7.466  46.550  1.00  0.00     0.086 C 
HETATM   10  C21 UNL     1      20.825   6.447  46.764  1.00  0.00     0.174 C 
HETATM   11  O2  UNL     1      20.904   5.425  45.849  1.00  0.00    -0.386 OA
HETATM   12  C22 UNL     1      20.997   4.153  46.382  1.00  0.00     0.209 C 
ENDROOT
BRANCH   1  13
HETATM   13  C5  UNL     1      22.116   2.615  47.856  1.00  0.00     0.085 A 
HETATM   14  C4  UNL     1      21.748   2.289  49.257  1.00  0.00     0.192 A 
HETATM   15  O1  UNL     1      22.209   1.423  48.170  1.00  0.00    -0.340 OA
BRANCH  14  16
HETATM   16  C3  UNL     1      21.746   1.130  49.862  1.00  0.00     0.058 C 
BRANCH  16  17
HETATM   17  C2  UNL     1      20.887   0.707  51.025  1.00  0.00     0.277 C 
BRANCH  17  18
HETATM   18  N1  UNL     1      21.719   0.046  51.974  1.00  0.00     0.079 N 
HETATM   19  C1  UNL     1      21.414   0.263  53.350  1.00  0.00     0.306 C 
HETATM   20  H4  UNL     1      22.729   0.176  51.742  1.00  0.00     0.315 HD
ENDBRANCH  17  18
ENDBRANCH  16  17
ENDBRANCH  14  16
ENDBRANCH   1  13
BRANCH   8  21
HETATM   21  C14 UNL     1      24.962   4.916  49.704  1.00  0.00    -0.021 A 
HETATM   22  C15 UNL     1      26.079   4.275  49.147  1.00  0.00     0.015 A 
HETATM   23  C16 UNL     1      26.688   3.152  49.672  1.00  0.00     0.045 A 
HETATM   24  C17 UNL     1      26.144   2.637  50.830  1.00  0.00     0.138 A 
HETATM   25  F1  UNL     1      26.703   1.541  51.381  1.00  0.00    -0.204 F 
HETATM   26  C18 UNL     1      25.047   3.221  51.426  1.00  0.00     0.073 A 
HETATM   27 CL1  UNL     1      24.337   2.598  52.884  1.00  0.00    -0.081 Cl
HETATM   28  C19 UNL     1      24.443   4.345  50.895  1.00  0.00     0.039 A 
ENDBRANCH   8  21
BRANCH   7  29
HETATM   29  N3  UNL     1      26.202   7.372  50.121  1.00  0.00    -0.392 N 
HETATM   30  C12 UNL     1      27.005   8.592  50.152  1.00  0.00     0.146 C 
HETATM   31  H11 UNL     1      26.418   6.569  50.740  1.00  0.00     0.159 HD
ENDBRANCH   7  29
TORSDOF 6
ENDMDL
MODEL 6
REMARK VINA RESULT:      -6.6      2.609      4.029
REMARK  6 active torsions:
REMARK  status: ('A' for Active; 'I' for Inactive)
REMARK    1  A    between atoms: N1_2  and  C2_3 
REMARK    2  A    between atoms: C2_3  and  C3_4 
REMARK    3  A    between atoms: C3_4  and  C4_5 
REMARK    4  A    between atoms: C5_6  and  C6_8 
REMARK    5  A    between atoms: C11_14  and  N3_15 
REMARK    6  A    between atoms: C13_17  and  C14_18 
ROOT
HETATM    1  C6  UNL     1      25.788   3.502  50.286  1.00  0.00    -0.002 C 
HETATM    2  C7  UNL     1      24.601   4.074  50.163  1.00  0.00     0.026 C 
HETATM    3  C8  UNL     1      23.355   3.806  50.872  1.00  0.00     0.003 A 
HETATM    4  C9  UNL     1      22.948   2.975  51.896  1.00  0.00     0.047 A 
HETATM    5  N2  UNL     1      21.696   2.914  52.382  1.00  0.00    -0.262 NA
HETATM    6  C10 UNL     1      20.754   3.732  51.829  1.00  0.00     0.147 A 
HETATM    7  C11 UNL     1      21.092   4.604  50.787  1.00  0.00     0.057 A 
HETATM    8  C13 UNL     1      22.392   4.630  50.321  1.00  0.00     0.014 A 
HETATM    9  C20 UNL     1      23.656   1.980  52.718  1.00  0.00     0.086 C 
HETATM   10  C21 UNL     1      25.123   2.405  52.784  1.00  0.00     0.174 C 
HETATM   11  O2  UNL     1      25.882   1.709  51.872  1.00  0.00    -0.386 OA
HETATM   12  C22 UNL     1      26.588   2.483  50.972  1.00  0.00     0.209 C 
ENDROOT
BRANCH   1  13
HETATM   13  C5  UNL     1      26.589   4.220  49.305  1.00  0.00     0.085 A 
HETATM   14  C4  UNL     1      26.307   5.655  49.048  1.00  0.00     0.192 A 
HETATM   15  O1  UNL     1      27.309   4.763  48.460  1.00  0.00    -0.340 OA
BRANCH  14  16
HETATM   16  C3  UNL     1      26.898   6.478  48.221  1.00  0.00     0.058 C 
BRANCH  16  17
HETATM   17  C2  UNL     1      27.518   7.812  48.546  1.00  0.00     0.277 C 
BRANCH  17  18
HETATM   18  N1  UNL     1      27.439   8.006  49.955  1.00  0.00     0.079 N 
HETATM   19  C1  UNL     1      27.155   9.330  50.403  1.00  0.00     0.306 C 
HETATM   20  H4  UNL     1      28.251   7.562  50.441  1.00  0.00     0.315 HD
ENDBRANCH  17  18
ENDBRANCH  16  17
ENDBRANCH  14  16
ENDBRANCH   1  13
BRANCH   8  21
HETATM   21  C14 UNL     1      22.708   5.541  49.257  1.00  0.00    -0.021 A 
HETATM   22  C15 UNL     1      22.562   5.048  47.952  1.00  0.00     0.015 A 
HETATM   23  C16 UNL     1      22.820   5.768  46.803  1.00  0.00     0.045 A 
HETATM   24  C17 UNL     1      23.253   7.067  46.970  1.00  0.00     0.138 A 
HETATM   25  F1  UNL     1      23.518   7.811  45.878  1.00  0.00    -0.204 F 
HETATM   26  C18 UNL     1      23.416   7.610  48.226  1.00  0.00     0.073 A 
HETATM   27 CL1  UNL     1      23.958   9.242  48.472  1.00  0.00    -0.081 Cl
HETATM   28  C19 UNL     1      23.155   6.883  49.372  1.00  0.00     0.039 A 
ENDBRANCH   8  21
BRANCH   7  29
HETATM   29  N3  UNL     1      20.101   5.448  50.224  1.00  0.00    -0.392 N 
HETATM   30  C12 UNL     1      18.815   4.882  49.823  1.00  0.00     0.146 C 
HETATM   31  H11 UNL     1      20.306   6.457  50.106  1.00  0.00     0.159 HD
ENDBRANCH   7  29
TORSDOF 6
ENDMDL
MODEL 7
REMARK VINA RESULT:      -6.5      6.113      8.988
REMARK  6 active torsions:
REMARK  status: ('A' for Active; 'I' for Inactive)
REMARK    1  A    between atoms: N1_2  and  C2_3 
REMARK    2  A    between atoms: C2_3  and  C3_4 
REMARK    3  A    between atoms: C3_4  and  C4_5 
REMARK    4  A    between atoms: C5_6  and  C6_8 
REMARK    5  A    between atoms: C11_14  and  N3_15 
REMARK    6  A    between atoms: C13_17  and  C14_18 
ROOT
HETATM    1  C6  UNL     1      27.547   5.371  48.550  1.00  0.00    -0.002 C 
HETATM    2  C7  UNL     1      27.320   6.618  48.166  1.00  0.00     0.026 C 
HETATM    3  C8  UNL     1      26.092   7.403  48.215  1.00  0.00     0.003 A 
HETATM    4  C9  UNL     1      24.807   7.218  48.682  1.00  0.00     0.047 A 
HETATM    5  N2  UNL     1      23.823   8.130  48.601  1.00  0.00    -0.262 NA
HETATM    6  C10 UNL     1      24.109   9.331  48.016  1.00  0.00     0.147 A 
HETATM    7  C11 UNL     1      25.391   9.592  47.519  1.00  0.00     0.057 A 
HETATM    8  C13 UNL     1      26.369   8.622  47.625  1.00  0.00     0.014 A 
HETATM    9  C20 UNL     1      24.139   6.090  49.353  1.00  0.00     0.086 C 
HETATM   10  C21 UNL     1      25.214   5.311  50.111  1.00  0.00     0.174 C 
HETATM   11  O2  UNL     1      25.628   4.213  49.395  1.00  0.00    -0.386 OA
HETATM   12  C22 UNL     1      26.982   4.150  49.131  1.00  0.00     0.209 C 
ENDROOT
BRANCH   1  13
HETATM   13  C5  UNL     1      28.957   5.195  48.236  1.00  0.00     0.085 A 
HETATM   14  C4  UNL     1      29.911   6.293  48.540  1.00  0.00     0.192 A 
HETATM   15  O1  UNL     1      30.137   4.975  47.942  1.00  0.00    -0.340 OA
BRANCH  14  16
HETATM   16  C3  UNL     1      31.204   6.341  48.343  1.00  0.00     0.058 C 
BRANCH  16  17
HETATM   17  C2  UNL     1      32.291   6.036  49.338  1.00  0.00     0.277 C 
BRANCH  17  18
HETATM   18  N1  UNL     1      33.039   4.924  48.852  1.00  0.00     0.079 N 
HETATM   19  C1  UNL     1      34.298   5.216  48.249  1.00  0.00     0.306 C 
HETATM   20  H4  UNL     1      32.436   4.288  48.282  1.00  0.00     0.315 HD
ENDBRANCH  17  18
ENDBRANCH  16  17
ENDBRANCH  14  16
ENDBRANCH   1  13
BRANCH   8  21
HETATM   21  C14 UNL     1      27.676   8.925  47.114  1.00  0.00    -0.021 A 
HETATM   22  C15 UNL     1      27.963   8.452  45.825  1.00  0.00     0.015 A 
HETATM   23  C16 UNL     1      29.161   8.638  45.165  1.00  0.00     0.045 A 
HETATM   24  C17 UNL     1      30.137   9.343  45.839  1.00  0.00     0.138 A 
HETATM   25  F1  UNL     1      31.325   9.551  45.237  1.00  0.00    -0.204 F 
HETATM   26  C18 UNL     1      29.916   9.833  47.108  1.00  0.00     0.073 A 
HETATM   27 CL1  UNL     1      31.122  10.725  47.986  1.00  0.00    -0.081 Cl
HETATM   28  C19 UNL     1      28.713   9.643  47.762  1.00  0.00     0.039 A 
ENDBRANCH   8  21
BRANCH   7  29
HETATM   29  N3  UNL     1      25.671  10.844  46.916  1.00  0.00    -0.392 N 
HETATM   30  C12 UNL     1      25.647  12.057  47.730  1.00  0.00     0.146 C 
HETATM   31  H11 UNL     1      25.889  10.879  45.904  1.00  0.00     0.159 HD
ENDBRANCH   7  29
TORSDOF 6
ENDMDL
MODEL 8
REMARK VINA RESULT:      -6.4      3.672      5.807
REMARK  6 active torsions:
REMARK  status: ('A' for Active; 'I' for Inactive)
REMARK    1  A    between atoms: N1_2  and  C2_3 
REMARK    2  A    between atoms: C2_3  and  C3_4 
REMARK    3  A    between atoms: C3_4  and  C4_5 
REMARK    4  A    between atoms: C5_6  and  C6_8 
REMARK    5  A    between atoms: C11_14  and  N3_15 
REMARK    6  A    between atoms: C13_17  and  C14_18 
ROOT
HETATM    1  C6  UNL     1      26.154   4.243  49.690  1.00  0.00    -0.002 C 
HETATM    2  C7  UNL     1      25.294   5.248  49.630  1.00  0.00     0.026 C 
HETATM    3  C8  UNL     1      23.983   5.396  50.252  1.00  0.00     0.003 A 
HETATM    4  C9  UNL     1      23.199   4.658  51.114  1.00  0.00     0.047 A 
HETATM    5  N2  UNL     1      21.982   5.028  51.550  1.00  0.00    -0.262 NA
HETATM    6  C10 UNL     1      21.480   6.220  51.113  1.00  0.00     0.147 A 
HETATM    7  C11 UNL     1      22.218   7.024  50.237  1.00  0.00     0.057 A 
HETATM    8  C13 UNL     1      23.464   6.601  49.816  1.00  0.00     0.014 A 
HETATM    9  C20 UNL     1      23.393   3.360  51.781  1.00  0.00     0.086 C 
HETATM   10  C21 UNL     1      24.899   3.159  51.955  1.00  0.00     0.174 C 
HETATM   11  O2  UNL     1      25.409   2.356  50.964  1.00  0.00    -0.386 OA
HETATM   12  C22 UNL     1      26.436   2.906  50.221  1.00  0.00     0.209 C 
ENDROOT
BRANCH   1  13
HETATM   13  C5  UNL     1      27.253   4.717  48.861  1.00  0.00     0.085 A 
HETATM   14  C4  UNL     1      27.468   6.178  48.707  1.00  0.00     0.192 A 
HETATM   15  O1  UNL     1      28.204   5.045  48.143  1.00  0.00    -0.340 OA
BRANCH  14  16
HETATM   16  C3  UNL     1      28.384   6.810  48.020  1.00  0.00     0.058 C 
BRANCH  16  17
HETATM   17  C2  UNL     1      29.391   7.804  48.536  1.00  0.00     0.277 C 
BRANCH  17  18
HETATM   18  N1  UNL     1      30.477   7.078  49.106  1.00  0.00     0.079 N 
HETATM   19  C1  UNL     1      31.617   7.840  49.498  1.00  0.00     0.306 C 
HETATM   20  H4  UNL     1      30.709   6.237  48.532  1.00  0.00     0.315 HD
ENDBRANCH  17  18
ENDBRANCH  16  17
ENDBRANCH  14  16
ENDBRANCH   1  13
BRANCH   8  21
HETATM   21  C14 UNL     1      24.200   7.452  48.925  1.00  0.00    -0.021 A 
HETATM   22  C15 UNL     1      24.110   7.148  47.559  1.00  0.00     0.015 A 
HETATM   23  C16 UNL     1      24.745   7.845  46.551  1.00  0.00     0.045 A 
HETATM   24  C17 UNL     1      25.522   8.919  46.935  1.00  0.00     0.138 A 
HETATM   25  F1  UNL     1      26.163   9.632  45.988  1.00  0.00    -0.204 F 
HETATM   26  C18 UNL     1      25.651   9.269  48.262  1.00  0.00     0.073 A 
HETATM   27 CL1  UNL     1      26.621  10.614  48.781  1.00  0.00    -0.081 Cl
HETATM   28  C19 UNL     1      25.011   8.566  49.265  1.00  0.00     0.039 A 
ENDBRANCH   8  21
BRANCH   7  29
HETATM   29  N3  UNL     1      21.682   8.260  49.793  1.00  0.00    -0.392 N 
HETATM   30  C12 UNL     1      20.236   8.411  49.659  1.00  0.00     0.146 C 
HETATM   31  H11 UNL     1      22.329   9.038  49.570  1.00  0.00     0.159 HD
ENDBRANCH   7  29
TORSDOF 6
ENDMDL
MODEL 9
REMARK VINA RESULT:      -6.4      9.161     12.005
REMARK  6 active torsions:
REMARK  status: ('A' for Active; 'I' for Inactive)
REMARK    1  A    between atoms: N1_2  and  C2_3 
REMARK    2  A    between atoms: C2_3  and  C3_4 
REMARK    3  A    between atoms: C3_4  and  C4_5 
REMARK    4  A    between atoms: C5_6  and  C6_8 
REMARK    5  A    between atoms: C11_14  and  N3_15 
REMARK    6  A    between atoms: C13_17  and  C14_18 
ROOT
HETATM    1  C6  UNL     1      33.519   6.244  48.100  1.00  0.00    -0.002 C 
HETATM    2  C7  UNL     1      33.073   6.509  46.882  1.00  0.00     0.026 C 
HETATM    3  C8  UNL     1      33.372   5.854  45.613  1.00  0.00     0.003 A 
HETATM    4  C9  UNL     1      34.116   4.768  45.202  1.00  0.00     0.047 A 
HETATM    5  N2  UNL     1      34.235   4.358  43.927  1.00  0.00    -0.262 NA
HETATM    6  C10 UNL     1      33.573   5.063  42.964  1.00  0.00     0.147 A 
HETATM    7  C11 UNL     1      32.797   6.177  43.305  1.00  0.00     0.057 A 
HETATM    8  C13 UNL     1      32.706   6.560  44.629  1.00  0.00     0.014 A 
HETATM    9  C20 UNL     1      34.945   3.790  45.927  1.00  0.00     0.086 C 
HETATM   10  C21 UNL     1      34.384   3.682  47.346  1.00  0.00     0.174 C 
HETATM   11  O2  UNL     1      35.106   4.454  48.224  1.00  0.00    -0.386 OA
HETATM   12  C22 UNL     1      34.377   5.393  48.929  1.00  0.00     0.209 C 
ENDROOT
BRANCH   1  13
HETATM   13  C5  UNL     1      32.846   7.250  48.909  1.00  0.00     0.085 A 
HETATM   14  C4  UNL     1      31.424   7.575  48.629  1.00  0.00     0.192 A 
HETATM   15  O1  UNL     1      32.341   8.114  49.635  1.00  0.00    -0.340 OA
BRANCH  14  16
HETATM   16  C3  UNL     1      30.639   8.434  49.227  1.00  0.00     0.058 C 
BRANCH  16  17
HETATM   17  C2  UNL     1      29.167   8.644  48.993  1.00  0.00     0.277 C 
BRANCH  17  18
HETATM   18  N1  UNL     1      28.648   9.403  50.082  1.00  0.00     0.079 N 
HETATM   19  C1  UNL     1      27.264   9.232  50.377  1.00  0.00     0.306 C 
HETATM   20  H4  UNL     1      28.945  10.403  50.017  1.00  0.00     0.315 HD
ENDBRANCH  17  18
ENDBRANCH  16  17
ENDBRANCH  14  16
ENDBRANCH   1  13
BRANCH   8  21
HETATM   21  C14 UNL     1      31.895   7.701  44.946  1.00  0.00    -0.021 A 
HETATM   22  C15 UNL     1      32.575   8.913  45.135  1.00  0.00     0.015 A 
HETATM   23  C16 UNL     1      31.973  10.116  45.449  1.00  0.00     0.045 A 
HETATM   24  C17 UNL     1      30.600  10.104  45.583  1.00  0.00     0.138 A 
HETATM   25  F1  UNL     1      29.965  11.253  45.888  1.00  0.00    -0.204 F 
HETATM   26  C18 UNL     1      29.874   8.945  45.411  1.00  0.00     0.073 A 
HETATM   27 CL1  UNL     1      28.145   8.895  45.572  1.00  0.00    -0.081 Cl
HETATM   28  C19 UNL     1      30.485   7.745  45.096  1.00  0.00     0.039 A 
ENDBRANCH   8  21
BRANCH   7  29
HETATM   29  N3  UNL     1      32.114   6.897  42.292  1.00  0.00    -0.392 N 
HETATM   30  C12 UNL     1      32.881   7.620  41.280  1.00  0.00     0.146 C 
HETATM   31  H11 UNL     1      31.078   6.900  42.286  1.00  0.00     0.159 HD
ENDBRANCH   7  29
TORSDOF 6
ENDMDL
