MODEL 1
REMARK VINA RESULT:      -8.4      0.000      0.000
REMARK  3 active torsions:
REMARK  status: ('A' for Active; 'I' for Inactive)
REMARK    1  A    between atoms: O1_2  and  C2_3 
REMARK    2  A    between atoms: C8_11  and  C9_12 
REMARK    3  A    between atoms: C10_13  and  N3_14 
ROOT
HETATM    1  C2  UNL     1      25.068   3.018  51.792  1.00  0.00     0.352 C 
HETATM    2  N1  UNL     1      23.777   3.147  52.198  1.00  0.00    -0.232 NA
HETATM    3  C3  UNL     1      22.613   2.768  52.270  1.00  0.00     0.231 C 
HETATM    4  N2  UNL     1      21.374   2.028  52.146  1.00  0.00    -0.254 NA
HETATM    5  C4  UNL     1      21.412   0.730  52.312  1.00  0.00     0.129 C 
HETATM    6  C5  UNL     1      22.830   0.417  52.600  1.00  0.00    -0.016 A 
HETATM    7  C6  UNL     1      23.089  -0.165  53.813  1.00  0.00     0.014 A 
HETATM    8  C7  UNL     1      24.446  -0.222  54.146  1.00  0.00     0.015 A 
HETATM    9  C8  UNL     1      25.395   0.298  53.266  1.00  0.00    -0.001 A 
HETATM   10  C15 UNL     1      24.810   0.799  52.164  1.00  0.00     0.043 A 
HETATM   11  C16 UNL     1      23.581   0.965  51.608  1.00  0.00     0.043 A 
HETATM   12  N4  UNL     1      25.536   1.698  51.324  1.00  0.00    -0.345 N 
HETATM   13  H17 UNL     1      26.014   0.940  50.830  1.00  0.00     0.164 HD
ENDROOT
BRANCH   9  14
HETATM   14  C9  UNL     1      26.824   0.339  53.468  1.00  0.00    -0.017 A 
HETATM   15  C10 UNL     1      27.721   1.209  53.804  1.00  0.00     0.013 A 
HETATM   16  C11 UNL     1      29.178   1.086  53.973  1.00  0.00     0.086 A 
HETATM   17  C12 UNL     1      29.626  -0.267  53.591  1.00  0.00     0.017 A 
HETATM   18  C13 UNL     1      28.771  -1.191  53.253  1.00  0.00     0.094 A 
HETATM   19  F1  UNL     1      29.197  -2.441  52.901  1.00  0.00    -0.211 F 
HETATM   20  C14 UNL     1      27.308  -1.018  53.208  1.00  0.00     0.111 A 
BRANCH  15  21
HETATM   21  N3  UNL     1      27.417   2.563  54.092  1.00  0.00    -0.402 N 
HETATM   22  H9  UNL     1      26.492   2.970  53.858  1.00  0.00     0.156 HD
HETATM   23  H10 UNL     1      27.709   3.496  54.481  1.00  0.00     0.156 HD
ENDBRANCH  15  21
ENDBRANCH   9  14
BRANCH   1  24
HETATM   24  O1  UNL     1      25.469   4.018  50.884  1.00  0.00    -0.353 OA
HETATM   25  C1  UNL     1      26.469   3.571  50.035  1.00  0.00     0.206 C 
ENDBRANCH   1  24
TORSDOF 3
ENDMDL
MODEL 2
REMARK VINA RESULT:      -8.4      1.450      1.861
REMARK  3 active torsions:
REMARK  status: ('A' for Active; 'I' for Inactive)
REMARK    1  A    between atoms: O1_2  and  C2_3 
REMARK    2  A    between atoms: C8_11  and  C9_12 
REMARK    3  A    between atoms: C10_13  and  N3_14 
ROOT
HETATM    1  C2  UNL     1      23.626   1.594  52.412  1.00  0.00     0.352 C 
HETATM    2  N1  UNL     1      22.485   1.439  53.136  1.00  0.00    -0.232 NA
HETATM    3  C3  UNL     1      21.575   0.765  53.606  1.00  0.00     0.231 C 
HETATM    4  N2  UNL     1      20.686  -0.314  53.983  1.00  0.00    -0.254 NA
HETATM    5  C4  UNL     1      21.219  -1.443  54.376  1.00  0.00     0.129 C 
HETATM    6  C5  UNL     1      22.683  -1.228  54.303  1.00  0.00    -0.016 A 
HETATM    7  C6  UNL     1      23.373  -1.348  55.479  1.00  0.00     0.014 A 
HETATM    8  C7  UNL     1      24.697  -0.904  55.418  1.00  0.00     0.015 A 
HETATM    9  C8  UNL     1      25.198  -0.389  54.222  1.00  0.00    -0.001 A 
HETATM   10  C15 UNL     1      24.261  -0.408  53.257  1.00  0.00     0.043 A 
HETATM   11  C16 UNL     1      22.969  -0.776  53.053  1.00  0.00     0.043 A 
HETATM   12  N4  UNL     1      24.430   0.398  52.090  1.00  0.00    -0.345 N 
HETATM   13  H17 UNL     1      25.037  -0.289  51.636  1.00  0.00     0.164 HD
ENDROOT
BRANCH   9  14
HETATM   14  C9  UNL     1      26.526   0.130  53.999  1.00  0.00    -0.017 A 
HETATM   15  C10 UNL     1      27.113   1.283  53.965  1.00  0.00     0.013 A 
HETATM   16  C11 UNL     1      28.516   1.651  53.720  1.00  0.00     0.086 A 
HETATM   17  C12 UNL     1      29.308   0.455  53.373  1.00  0.00     0.017 A 
HETATM   18  C13 UNL     1      28.777  -0.735  53.397  1.00  0.00     0.094 A 
HETATM   19  F1  UNL     1      29.519  -1.837  53.074  1.00  0.00    -0.211 F 
HETATM   20  C14 UNL     1      27.380  -1.035  53.758  1.00  0.00     0.111 A 
BRANCH  15  21
HETATM   21  N3  UNL     1      26.430   2.506  54.182  1.00  0.00    -0.402 N 
HETATM   22  H9  UNL     1      26.028   3.047  53.393  1.00  0.00     0.156 HD
HETATM   23  H10 UNL     1      26.078   3.245  54.844  1.00  0.00     0.156 HD
ENDBRANCH  15  21
ENDBRANCH   9  14
BRANCH   1  24
HETATM   24  O1  UNL     1      23.449   2.378  51.254  1.00  0.00    -0.353 OA
HETATM   25  C1  UNL     1      24.641   2.942  50.828  1.00  0.00     0.206 C 
ENDBRANCH   1  24
TORSDOF 3
ENDMDL
MODEL 3
REMARK VINA RESULT:      -8.3      1.862      3.313
REMARK  3 active torsions:
REMARK  status: ('A' for Active; 'I' for Inactive)
REMARK    1  A    between atoms: O1_2  and  C2_3 
REMARK    2  A    between atoms: C8_11  and  C9_12 
REMARK    3  A    between atoms: C10_13  and  N3_14 
ROOT
HETATM    1  C2  UNL     1      23.429   1.090  52.428  1.00  0.00     0.352 C 
HETATM    2  N1  UNL     1      22.868   1.471  51.249  1.00  0.00    -0.232 NA
HETATM    3  C3  UNL     1      22.565   2.307  50.405  1.00  0.00     0.231 C 
HETATM    4  N2  UNL     1      22.381   3.532  49.655  1.00  0.00    -0.254 NA
HETATM    5  C4  UNL     1      23.391   4.359  49.567  1.00  0.00     0.129 C 
HETATM    6  C5  UNL     1      24.487   3.715  50.326  1.00  0.00    -0.016 A 
HETATM    7  C6  UNL     1      25.623   3.421  49.620  1.00  0.00     0.014 A 
HETATM    8  C7  UNL     1      26.530   2.604  50.303  1.00  0.00     0.015 A 
HETATM    9  C8  UNL     1      26.227   2.163  51.591  1.00  0.00    -0.001 A 
HETATM   10  C15 UNL     1      25.032   2.630  51.994  1.00  0.00     0.043 A 
HETATM   11  C16 UNL     1      24.006   3.409  51.561  1.00  0.00     0.043 A 
HETATM   12  N4  UNL     1      24.366   2.013  53.098  1.00  0.00    -0.345 N 
HETATM   13  H17 UNL     1      24.904   2.543  53.789  1.00  0.00     0.164 HD
ENDROOT
BRANCH   9  14
HETATM   14  C9  UNL     1      27.038   1.301  52.417  1.00  0.00    -0.017 A 
HETATM   15  C10 UNL     1      27.939   1.424  53.338  1.00  0.00     0.013 A 
HETATM   16  C11 UNL     1      28.688   0.416  54.105  1.00  0.00     0.086 A 
HETATM   17  C12 UNL     1      28.365  -0.941  53.622  1.00  0.00     0.017 A 
HETATM   18  C13 UNL     1      27.460  -1.132  52.703  1.00  0.00     0.094 A 
HETATM   19  F1  UNL     1      27.169  -2.392  52.262  1.00  0.00    -0.211 F 
HETATM   20  C14 UNL     1      26.673  -0.069  52.052  1.00  0.00     0.111 A 
BRANCH  15  21
HETATM   21  N3  UNL     1      28.400   2.680  53.807  1.00  0.00    -0.402 N 
HETATM   22  H9  UNL     1      29.394   2.960  53.713  1.00  0.00     0.156 HD
HETATM   23  H10 UNL     1      28.204   3.603  54.273  1.00  0.00     0.156 HD
ENDBRANCH  15  21
ENDBRANCH   9  14
BRANCH   1  24
HETATM   24  O1  UNL     1      22.491   0.601  53.359  1.00  0.00    -0.353 OA
HETATM   25  C1  UNL     1      22.349  -0.774  53.272  1.00  0.00     0.206 C 
ENDBRANCH   1  24
TORSDOF 3
ENDMDL
MODEL 4
REMARK VINA RESULT:      -8.3      2.763      4.963
REMARK  3 active torsions:
REMARK  status: ('A' for Active; 'I' for Inactive)
REMARK    1  A    between atoms: O1_2  and  C2_3 
REMARK    2  A    between atoms: C8_11  and  C9_12 
REMARK    3  A    between atoms: C10_13  and  N3_14 
ROOT
HETATM    1  C2  UNL     1      26.038   2.185  53.109  1.00  0.00     0.352 C 
HETATM    2  N1  UNL     1      25.606   0.900  52.998  1.00  0.00    -0.232 NA
HETATM    3  C3  UNL     1      24.748   0.028  53.070  1.00  0.00     0.231 C 
HETATM    4  N2  UNL     1      23.515  -0.706  53.264  1.00  0.00    -0.254 NA
HETATM    5  C4  UNL     1      22.405  -0.179  52.814  1.00  0.00     0.129 C 
HETATM    6  C5  UNL     1      22.808   1.106  52.198  1.00  0.00    -0.016 A 
HETATM    7  C6  UNL     1      22.546   1.246  50.861  1.00  0.00     0.014 A 
HETATM    8  C7  UNL     1      23.152   2.358  50.269  1.00  0.00     0.015 A 
HETATM    9  C8  UNL     1      23.948   3.204  51.042  1.00  0.00    -0.001 A 
HETATM   10  C15 UNL     1      24.002   2.784  52.318  1.00  0.00     0.043 A 
HETATM   11  C16 UNL     1      23.526   1.797  53.123  1.00  0.00     0.043 A 
HETATM   12  N4  UNL     1      25.035   3.266  53.179  1.00  0.00    -0.345 N 
HETATM   13  H17 UNL     1      24.530   4.130  53.394  1.00  0.00     0.164 HD
ENDROOT
BRANCH   9  14
HETATM   14  C9  UNL     1      24.659   4.373  50.583  1.00  0.00    -0.017 A 
HETATM   15  C10 UNL     1      24.564   5.659  50.690  1.00  0.00     0.013 A 
HETATM   16  C11 UNL     1      25.397   6.743  50.147  1.00  0.00     0.086 A 
HETATM   17  C12 UNL     1      26.448   6.193  49.269  1.00  0.00     0.017 A 
HETATM   18  C13 UNL     1      26.602   4.907  49.126  1.00  0.00     0.094 A 
HETATM   19  F1  UNL     1      27.578   4.407  48.311  1.00  0.00    -0.211 F 
HETATM   20  C14 UNL     1      25.786   3.875  49.792  1.00  0.00     0.111 A 
BRANCH  15  21
HETATM   21  N3  UNL     1      23.534   6.300  51.424  1.00  0.00    -0.402 N 
HETATM   22  H9  UNL     1      22.684   5.787  51.722  1.00  0.00     0.156 HD
HETATM   23  H10 UNL     1      23.149   7.166  51.882  1.00  0.00     0.156 HD
ENDBRANCH  15  21
ENDBRANCH   9  14
BRANCH   1  24
HETATM   24  O1  UNL     1      27.005   2.362  54.120  1.00  0.00    -0.353 OA
HETATM   25  C1  UNL     1      28.294   2.290  53.616  1.00  0.00     0.206 C 
ENDBRANCH   1  24
TORSDOF 3
ENDMDL
MODEL 5
REMARK VINA RESULT:      -8.0      2.185      2.786
REMARK  3 active torsions:
REMARK  status: ('A' for Active; 'I' for Inactive)
REMARK    1  A    between atoms: O1_2  and  C2_3 
REMARK    2  A    between atoms: C8_11  and  C9_12 
REMARK    3  A    between atoms: C10_13  and  N3_14 
ROOT
HETATM    1  C2  UNL     1      26.737   3.853  49.938  1.00  0.00     0.352 C 
HETATM    2  N1  UNL     1      25.877   4.896  50.083  1.00  0.00    -0.232 NA
HETATM    3  C3  UNL     1      24.754   5.389  50.100  1.00  0.00     0.231 C 
HETATM    4  N2  UNL     1      23.325   5.612  50.040  1.00  0.00    -0.254 NA
HETATM    5  C4  UNL     1      22.541   4.741  50.622  1.00  0.00     0.129 C 
HETATM    6  C5  UNL     1      23.450   3.728  51.204  1.00  0.00    -0.016 A 
HETATM    7  C6  UNL     1      23.397   3.575  52.564  1.00  0.00     0.014 A 
HETATM    8  C7  UNL     1      24.428   2.794  53.096  1.00  0.00     0.015 A 
HETATM    9  C8  UNL     1      25.395   2.256  52.246  1.00  0.00    -0.001 A 
HETATM   10  C15 UNL     1      25.159   2.597  50.967  1.00  0.00     0.043 A 
HETATM   11  C16 UNL     1      24.272   3.296  50.211  1.00  0.00     0.043 A 
HETATM   12  N4  UNL     1      26.202   2.478  49.998  1.00  0.00    -0.345 N 
HETATM   13  H17 UNL     1      26.031   1.479  49.855  1.00  0.00     0.164 HD
ENDROOT
BRANCH   9  14
HETATM   14  C9  UNL     1      26.530   1.454  52.635  1.00  0.00    -0.017 A 
HETATM   15  C10 UNL     1      27.734   1.642  53.074  1.00  0.00     0.013 A 
HETATM   16  C11 UNL     1      28.795   0.689  53.435  1.00  0.00     0.086 A 
HETATM   17  C12 UNL     1      28.370  -0.691  53.134  1.00  0.00     0.017 A 
HETATM   18  C13 UNL     1      27.169  -0.947  52.699  1.00  0.00     0.094 A 
HETATM   19  F1  UNL     1      26.785  -2.229  52.422  1.00  0.00    -0.211 F 
HETATM   20  C14 UNL     1      26.119   0.060  52.459  1.00  0.00     0.111 A 
BRANCH  15  21
HETATM   21  N3  UNL     1      28.282   2.929  53.302  1.00  0.00    -0.402 N 
HETATM   22  H9  UNL     1      29.258   3.050  53.633  1.00  0.00     0.156 HD
HETATM   23  H10 UNL     1      28.173   3.976  53.301  1.00  0.00     0.156 HD
ENDBRANCH  15  21
ENDBRANCH   9  14
BRANCH   1  24
HETATM   24  O1  UNL     1      27.591   3.986  48.825  1.00  0.00    -0.353 OA
HETATM   25  C1  UNL     1      27.871   5.314  48.547  1.00  0.00     0.206 C 
ENDBRANCH   1  24
TORSDOF 3
ENDMDL
MODEL 6
REMARK VINA RESULT:      -7.9      1.782      2.409
REMARK  3 active torsions:
REMARK  status: ('A' for Active; 'I' for Inactive)
REMARK    1  A    between atoms: O1_2  and  C2_3 
REMARK    2  A    between atoms: C8_11  and  C9_12 
REMARK    3  A    between atoms: C10_13  and  N3_14 
ROOT
HETATM    1  C2  UNL     1      22.475   2.823  51.123  1.00  0.00     0.352 C 
HETATM    2  N1  UNL     1      21.193   2.806  51.578  1.00  0.00    -0.232 NA
HETATM    3  C3  UNL     1      20.116   2.257  51.784  1.00  0.00     0.231 C 
HETATM    4  N2  UNL     1      19.023   1.312  51.864  1.00  0.00    -0.254 NA
HETATM    5  C4  UNL     1      19.292   0.090  52.247  1.00  0.00     0.129 C 
HETATM    6  C5  UNL     1      20.751   0.073  52.498  1.00  0.00    -0.016 A 
HETATM    7  C6  UNL     1      21.144  -0.231  53.774  1.00  0.00     0.014 A 
HETATM    8  C7  UNL     1      22.499  -0.000  54.030  1.00  0.00     0.015 A 
HETATM    9  C8  UNL     1      23.316   0.504  53.018  1.00  0.00    -0.001 A 
HETATM   10  C15 UNL     1      22.620   0.696  51.884  1.00  0.00     0.043 A 
HETATM   11  C16 UNL     1      21.364   0.552  51.383  1.00  0.00     0.043 A 
HETATM   12  N4  UNL     1      23.151   1.538  50.859  1.00  0.00    -0.345 N 
HETATM   13  H17 UNL     1      23.739   0.794  50.475  1.00  0.00     0.164 HD
ENDROOT
BRANCH   9  14
HETATM   14  C9  UNL     1      24.721   0.818  53.123  1.00  0.00    -0.017 A 
HETATM   15  C10 UNL     1      25.458   1.860  53.340  1.00  0.00     0.013 A 
HETATM   16  C11 UNL     1      26.919   2.015  53.422  1.00  0.00     0.086 A 
HETATM   17  C12 UNL     1      27.590   0.740  53.103  1.00  0.00     0.017 A 
HETATM   18  C13 UNL     1      26.904  -0.346  52.884  1.00  0.00     0.094 A 
HETATM   19  F1  UNL     1      27.535  -1.522  52.589  1.00  0.00    -0.211 F 
HETATM   20  C14 UNL     1      25.434  -0.445  52.924  1.00  0.00     0.111 A 
BRANCH  15  21
HETATM   21  N3  UNL     1      24.924   3.155  53.557  1.00  0.00    -0.402 N 
HETATM   22  H9  UNL     1      25.093   3.928  52.886  1.00  0.00     0.156 HD
HETATM   23  H10 UNL     1      24.358   3.816  54.148  1.00  0.00     0.156 HD
ENDBRANCH  15  21
ENDBRANCH   9  14
BRANCH   1  24
HETATM   24  O1  UNL     1      22.667   3.698  50.034  1.00  0.00    -0.353 OA
HETATM   25  C1  UNL     1      23.044   3.017  48.888  1.00  0.00     0.206 C 
ENDBRANCH   1  24
TORSDOF 3
ENDMDL
MODEL 7
REMARK VINA RESULT:      -7.8      3.209      5.368
REMARK  3 active torsions:
REMARK  status: ('A' for Active; 'I' for Inactive)
REMARK    1  A    between atoms: O1_2  and  C2_3 
REMARK    2  A    between atoms: C8_11  and  C9_12 
REMARK    3  A    between atoms: C10_13  and  N3_14 
ROOT
HETATM    1  C2  UNL     1      27.141   1.623  52.231  1.00  0.00     0.352 C 
HETATM    2  N1  UNL     1      26.574   0.390  52.315  1.00  0.00    -0.232 NA
HETATM    3  C3  UNL     1      25.757  -0.406  52.763  1.00  0.00     0.231 C 
HETATM    4  N2  UNL     1      24.681  -1.041  53.494  1.00  0.00    -0.254 NA
HETATM    5  C4  UNL     1      23.550  -0.392  53.613  1.00  0.00     0.129 C 
HETATM    6  C5  UNL     1      23.759   0.887  52.897  1.00  0.00    -0.016 A 
HETATM    7  C6  UNL     1      22.931   1.130  51.834  1.00  0.00     0.014 A 
HETATM    8  C7  UNL     1      23.313   2.218  51.043  1.00  0.00     0.015 A 
HETATM    9  C8  UNL     1      24.458   2.943  51.374  1.00  0.00    -0.001 A 
HETATM   10  C15 UNL     1      25.045   2.445  52.476  1.00  0.00     0.043 A 
HETATM   11  C16 UNL     1      24.888   1.457  53.396  1.00  0.00     0.043 A 
HETATM   12  N4  UNL     1      26.402   2.782  52.770  1.00  0.00    -0.345 N 
HETATM   13  H17 UNL     1      26.144   3.672  53.204  1.00  0.00     0.164 HD
ENDROOT
BRANCH   9  14
HETATM   14  C9  UNL     1      24.999   4.071  50.653  1.00  0.00    -0.017 A 
HETATM   15  C10 UNL     1      25.912   4.293  49.764  1.00  0.00     0.013 A 
HETATM   16  C11 UNL     1      26.350   5.537  49.112  1.00  0.00     0.086 A 
HETATM   17  C12 UNL     1      25.641   6.696  49.688  1.00  0.00     0.017 A 
HETATM   18  C13 UNL     1      24.705   6.538  50.581  1.00  0.00     0.094 A 
HETATM   19  F1  UNL     1      24.054   7.617  51.109  1.00  0.00    -0.211 F 
HETATM   20  C14 UNL     1      24.247   5.241  51.111  1.00  0.00     0.111 A 
BRANCH  15  21
HETATM   21  N3  UNL     1      26.725   3.269  49.216  1.00  0.00    -0.402 N 
HETATM   22  H9  UNL     1      26.417   2.279  49.213  1.00  0.00     0.156 HD
HETATM   23  H10 UNL     1      27.617   2.973  48.741  1.00  0.00     0.156 HD
ENDBRANCH  15  21
ENDBRANCH   9  14
BRANCH   1  24
HETATM   24  O1  UNL     1      28.476   1.655  52.684  1.00  0.00    -0.353 OA
HETATM   25  C1  UNL     1      28.624   2.476  53.790  1.00  0.00     0.206 C 
ENDBRANCH   1  24
TORSDOF 3
ENDMDL
MODEL 8
REMARK VINA RESULT:      -7.8      2.538      5.508
REMARK  3 active torsions:
REMARK  status: ('A' for Active; 'I' for Inactive)
REMARK    1  A    between atoms: O1_2  and  C2_3 
REMARK    2  A    between atoms: C8_11  and  C9_12 
REMARK    3  A    between atoms: C10_13  and  N3_14 
ROOT
HETATM    1  C2  UNL     1      24.423   3.142  51.551  1.00  0.00     0.352 C 
HETATM    2  N1  UNL     1      25.721   2.776  51.380  1.00  0.00    -0.232 NA
HETATM    3  C3  UNL     1      26.827   2.449  51.799  1.00  0.00     0.231 C 
HETATM    4  N2  UNL     1      27.958   2.104  52.633  1.00  0.00    -0.254 NA
HETATM    5  C4  UNL     1      27.753   1.308  53.652  1.00  0.00     0.129 C 
HETATM    6  C5  UNL     1      26.307   0.992  53.613  1.00  0.00    -0.016 A 
HETATM    7  C6  UNL     1      25.979  -0.329  53.463  1.00  0.00     0.014 A 
HETATM    8  C7  UNL     1      24.627  -0.560  53.189  1.00  0.00     0.015 A 
HETATM    9  C8  UNL     1      23.751   0.521  53.086  1.00  0.00    -0.001 A 
HETATM   10  C15 UNL     1      24.392   1.686  53.285  1.00  0.00     0.043 A 
HETATM   11  C16 UNL     1      25.631   2.170  53.565  1.00  0.00     0.043 A 
HETATM   12  N4  UNL     1      23.787   2.909  52.863  1.00  0.00    -0.345 N 
HETATM   13  H17 UNL     1      23.213   2.981  53.707  1.00  0.00     0.164 HD
ENDROOT
BRANCH   9  14
HETATM   14  C9  UNL     1      22.340   0.458  52.786  1.00  0.00    -0.017 A 
HETATM   15  C10 UNL     1      21.229   0.280  53.426  1.00  0.00     0.013 A 
HETATM   16  C11 UNL     1      19.834   0.246  52.960  1.00  0.00     0.086 A 
HETATM   17  C12 UNL     1      19.782   0.351  51.489  1.00  0.00     0.017 A 
HETATM   18  C13 UNL     1      20.865   0.539  50.787  1.00  0.00     0.094 A 
HETATM   19  F1  UNL     1      20.806   0.635  49.426  1.00  0.00    -0.211 F 
HETATM   20  C14 UNL     1      22.224   0.669  51.342  1.00  0.00     0.111 A 
BRANCH  15  21
HETATM   21  N3  UNL     1      21.169   0.067  54.827  1.00  0.00    -0.402 N 
HETATM   22  H9  UNL     1      21.909   0.422  55.460  1.00  0.00     0.156 HD
HETATM   23  H10 UNL     1      20.671  -0.334  55.663  1.00  0.00     0.156 HD
ENDBRANCH  15  21
ENDBRANCH   9  14
BRANCH   1  24
HETATM   24  O1  UNL     1      24.152   4.454  51.114  1.00  0.00    -0.353 OA
HETATM   25  C1  UNL     1      23.357   5.143  52.016  1.00  0.00     0.206 C 
ENDBRANCH   1  24
TORSDOF 3
ENDMDL
MODEL 9
REMARK VINA RESULT:      -7.6      2.737      5.499
REMARK  3 active torsions:
REMARK  status: ('A' for Active; 'I' for Inactive)
REMARK    1  A    between atoms: O1_2  and  C2_3 
REMARK    2  A    between atoms: C8_11  and  C9_12 
REMARK    3  A    between atoms: C10_13  and  N3_14 
ROOT
HETATM    1  C2  UNL     1      26.196   2.466  51.100  1.00  0.00     0.352 C 
HETATM    2  N1  UNL     1      26.800   1.350  51.590  1.00  0.00    -0.232 NA
HETATM    3  C3  UNL     1      27.143   0.607  52.503  1.00  0.00     0.231 C 
HETATM    4  N2  UNL     1      27.372  -0.005  53.794  1.00  0.00    -0.254 NA
HETATM    5  C4  UNL     1      26.380  -0.035  54.647  1.00  0.00     0.129 C 
HETATM    6  C5  UNL     1      25.250   0.621  53.951  1.00  0.00    -0.016 A 
HETATM    7  C6  UNL     1      24.131  -0.144  53.756  1.00  0.00     0.014 A 
HETATM    8  C7  UNL     1      23.189   0.423  52.892  1.00  0.00     0.015 A 
HETATM    9  C8  UNL     1      23.445   1.666  52.312  1.00  0.00    -0.001 A 
HETATM   10  C15 UNL     1      24.635   2.150  52.709  1.00  0.00     0.043 A 
HETATM   11  C16 UNL     1      25.687   1.830  53.508  1.00  0.00     0.043 A 
HETATM   12  N4  UNL     1      25.256   3.201  51.968  1.00  0.00    -0.345 N 
HETATM   13  H17 UNL     1      24.706   3.929  52.433  1.00  0.00     0.164 HD
ENDROOT
BRANCH   9  14
HETATM   14  C9  UNL     1      22.594   2.374  51.386  1.00  0.00    -0.017 A 
HETATM   15  C10 UNL     1      21.940   3.491  51.344  1.00  0.00     0.013 A 
HETATM   16  C11 UNL     1      21.098   4.084  50.293  1.00  0.00     0.086 A 
HETATM   17  C12 UNL     1      20.950   3.146  49.163  1.00  0.00     0.017 A 
HETATM   18  C13 UNL     1      21.589   2.010  49.142  1.00  0.00     0.094 A 
HETATM   19  F1  UNL     1      21.445   1.148  48.091  1.00  0.00    -0.211 F 
HETATM   20  C14 UNL     1      22.504   1.530  50.193  1.00  0.00     0.111 A 
BRANCH  15  21
HETATM   21  N3  UNL     1      21.927   4.421  52.413  1.00  0.00    -0.402 N 
HETATM   22  H9  UNL     1      22.773   4.596  52.987  1.00  0.00     0.156 HD
HETATM   23  H10 UNL     1      21.407   5.124  52.999  1.00  0.00     0.156 HD
ENDBRANCH  15  21
ENDBRANCH   9  14
BRANCH   1  24
HETATM   24  O1  UNL     1      27.096   3.367  50.497  1.00  0.00    -0.353 OA
HETATM   25  C1  UNL     1      26.536   3.994  49.396  1.00  0.00     0.206 C 
ENDBRANCH   1  24
TORSDOF 3
ENDMDL
