MODEL 1
REMARK VINA RESULT:      -6.6      0.000      0.000
REMARK  9 active torsions:
REMARK  status: ('A' for Active; 'I' for Inactive)
REMARK    1  A    between atoms: O1_2  and  C2_3 
REMARK    2  A    between atoms: C2_3  and  C3_4 
REMARK    3  A    between atoms: C2_3  and  C7_12 
REMARK    4  A    between atoms: C3_4  and  N1_5 
REMARK    5  A    between atoms: N1_5  and  C5_7 
REMARK    6  A    between atoms: C5_7  and  C6_8 
REMARK    7  A    between atoms: C6_8  and  O2_9 
REMARK    8  A    between atoms: C7_12  and  N2_14 
REMARK    9  A    between atoms: N2_14  and  C9_15 
ROOT
HETATM    1  C2  UNL     1      24.422   1.613  51.890  1.00  0.00     0.160 C 
ENDROOT
BRANCH   1   2
HETATM    2  O1  UNL     1      24.455   3.029  51.632  1.00  0.00    -0.387 OA
HETATM    3  C1  UNL     1      23.488   3.323  50.664  1.00  0.00     0.202 C 
ENDBRANCH   1   2
BRANCH   1   4
HETATM    4  C3  UNL     1      23.354   1.408  52.881  1.00  0.00     0.150 C 
BRANCH   4   5
HETATM    5  N1  UNL     1      22.631   0.202  52.837  1.00  0.00    -0.406 N 
HETATM    6  C4  UNL     1      21.465   0.052  52.092  1.00  0.00     0.143 C 
BRANCH   5   7
HETATM    7  C5  UNL     1      23.059  -0.895  53.603  1.00  0.00     0.228 C 
BRANCH   7   8
HETATM    8  C6  UNL     1      22.221  -1.262  54.803  1.00  0.00     0.368 C 
HETATM    9  F1  UNL     1      21.653  -0.086  55.293  1.00  0.00    -0.174 F 
HETATM   10  F2  UNL     1      21.176  -2.099  54.444  1.00  0.00    -0.174 F 
BRANCH   8  11
HETATM   11  O2  UNL     1      22.926  -1.851  55.838  1.00  0.00    -0.335 OA
HETATM   12  H12 UNL     1      22.404  -1.843  56.653  1.00  0.00     0.216 HD
ENDBRANCH   8  11
ENDBRANCH   7   8
ENDBRANCH   5   7
ENDBRANCH   4   5
ENDBRANCH   1   4
BRANCH   1  13
HETATM   13  C7  UNL     1      25.806   1.336  52.436  1.00  0.00     0.108 C 
HETATM   14  C8  UNL     1      26.006   1.993  53.792  1.00  0.00     0.035 C 
BRANCH  13  15
HETATM   15  N2  UNL     1      26.146  -0.044  52.465  1.00  0.00    -0.386 N 
HETATM   16  H17 UNL     1      25.293  -0.646  52.206  1.00  0.00     0.160 HD
BRANCH  15  17
HETATM   17  C9  UNL     1      27.270  -0.864  52.741  1.00  0.00     0.016 A 
HETATM   18  C10 UNL     1      27.421  -2.232  52.694  1.00  0.00     0.022 A 
HETATM   19  C11 UNL     1      28.643  -2.729  53.066  1.00  0.00    -0.012 A 
HETATM   20  C12 UNL     1      29.365  -1.609  53.386  1.00  0.00     0.010 A 
HETATM   21  C13 UNL     1      29.859  -0.304  53.642  1.00  0.00     0.023 A 
HETATM   22  C14 UNL     1      28.527  -0.445  53.188  1.00  0.00     0.034 A 
ENDBRANCH  15  17
ENDBRANCH  13  15
ENDBRANCH   1  13
TORSDOF 9
ENDMDL
MODEL 2
REMARK VINA RESULT:      -6.5      3.535      6.064
REMARK  9 active torsions:
REMARK  status: ('A' for Active; 'I' for Inactive)
REMARK    1  A    between atoms: O1_2  and  C2_3 
REMARK    2  A    between atoms: C2_3  and  C3_4 
REMARK    3  A    between atoms: C2_3  and  C7_12 
REMARK    4  A    between atoms: C3_4  and  N1_5 
REMARK    5  A    between atoms: N1_5  and  C5_7 
REMARK    6  A    between atoms: C5_7  and  C6_8 
REMARK    7  A    between atoms: C6_8  and  O2_9 
REMARK    8  A    between atoms: C7_12  and  N2_14 
REMARK    9  A    between atoms: N2_14  and  C9_15 
ROOT
HETATM    1  C2  UNL     1      24.137   1.159  52.481  1.00  0.00     0.160 C 
ENDROOT
BRANCH   1   2
HETATM    2  O1  UNL     1      23.088   0.806  53.403  1.00  0.00    -0.387 OA
HETATM    3  C1  UNL     1      23.311  -0.502  53.844  1.00  0.00     0.202 C 
ENDBRANCH   1   2
BRANCH   1   4
HETATM    4  C3  UNL     1      25.345   1.350  53.299  1.00  0.00     0.150 C 
BRANCH   4   5
HETATM    5  N1  UNL     1      26.590   1.038  52.724  1.00  0.00    -0.406 N 
HETATM    6  C4  UNL     1      26.806  -0.119  51.981  1.00  0.00     0.143 C 
BRANCH   5   7
HETATM    7  C5  UNL     1      27.687   1.891  52.933  1.00  0.00     0.228 C 
BRANCH   7   8
HETATM    8  C6  UNL     1      28.750   1.418  53.895  1.00  0.00     0.368 C 
HETATM    9  F1  UNL     1      28.114   0.679  54.892  1.00  0.00    -0.174 F 
HETATM   10  F2  UNL     1      29.646   0.567  53.268  1.00  0.00    -0.174 F 
BRANCH   8  11
HETATM   11  O2  UNL     1      29.459   2.434  54.511  1.00  0.00    -0.335 OA
HETATM   12  H12 UNL     1      28.859   3.034  54.976  1.00  0.00     0.216 HD
ENDBRANCH   8  11
ENDBRANCH   7   8
ENDBRANCH   5   7
ENDBRANCH   4   5
ENDBRANCH   1   4
BRANCH   1  13
HETATM   13  C7  UNL     1      23.625   2.441  51.861  1.00  0.00     0.108 C 
HETATM   14  C8  UNL     1      23.845   3.628  52.785  1.00  0.00     0.035 C 
BRANCH  13  15
HETATM   15  N2  UNL     1      24.133   2.689  50.556  1.00  0.00    -0.386 N 
HETATM   16  H17 UNL     1      23.614   2.088  49.831  1.00  0.00     0.160 HD
BRANCH  15  17
HETATM   17  C9  UNL     1      25.123   3.486  49.927  1.00  0.00     0.016 A 
HETATM   18  C10 UNL     1      26.459   3.245  49.691  1.00  0.00     0.022 A 
HETATM   19  C11 UNL     1      27.168   4.251  49.089  1.00  0.00    -0.012 A 
HETATM   20  C12 UNL     1      26.237   5.241  48.907  1.00  0.00     0.010 A 
HETATM   21  C13 UNL     1      25.086   6.068  48.847  1.00  0.00     0.023 A 
HETATM   22  C14 UNL     1      24.965   4.780  49.421  1.00  0.00     0.034 A 
ENDBRANCH  15  17
ENDBRANCH  13  15
ENDBRANCH   1  13
TORSDOF 9
ENDMDL
MODEL 3
REMARK VINA RESULT:      -6.3      3.435      5.858
REMARK  9 active torsions:
REMARK  status: ('A' for Active; 'I' for Inactive)
REMARK    1  A    between atoms: O1_2  and  C2_3 
REMARK    2  A    between atoms: C2_3  and  C3_4 
REMARK    3  A    between atoms: C2_3  and  C7_12 
REMARK    4  A    between atoms: C3_4  and  N1_5 
REMARK    5  A    between atoms: N1_5  and  C5_7 
REMARK    6  A    between atoms: C5_7  and  C6_8 
REMARK    7  A    between atoms: C6_8  and  O2_9 
REMARK    8  A    between atoms: C7_12  and  N2_14 
REMARK    9  A    between atoms: N2_14  and  C9_15 
ROOT
HETATM    1  C2  UNL     1      25.688   2.316  52.141  1.00  0.00     0.160 C 
ENDROOT
BRANCH   1   2
HETATM    2  O1  UNL     1      25.339   2.819  50.837  1.00  0.00    -0.387 OA
HETATM    3  C1  UNL     1      26.511   3.244  50.202  1.00  0.00     0.202 C 
ENDBRANCH   1   2
BRANCH   1   4
HETATM    4  C3  UNL     1      26.211   0.958  51.924  1.00  0.00     0.150 C 
BRANCH   4   5
HETATM    5  N1  UNL     1      26.831   0.306  53.005  1.00  0.00    -0.406 N 
HETATM    6  C4  UNL     1      26.806  -1.077  53.162  1.00  0.00     0.143 C 
BRANCH   5   7
HETATM    7  C5  UNL     1      27.469   1.063  54.001  1.00  0.00     0.228 C 
BRANCH   7   8
HETATM    8  C6  UNL     1      28.911   1.440  53.759  1.00  0.00     0.368 C 
HETATM    9  F1  UNL     1      29.514   1.611  55.004  1.00  0.00    -0.174 F 
HETATM   10  F2  UNL     1      29.592   0.419  53.115  1.00  0.00    -0.174 F 
BRANCH   8  11
HETATM   11  O2  UNL     1      29.085   2.611  53.042  1.00  0.00    -0.335 OA
HETATM   12  H12 UNL     1      30.024   2.757  52.853  1.00  0.00     0.216 HD
ENDBRANCH   8  11
ENDBRANCH   7   8
ENDBRANCH   5   7
ENDBRANCH   4   5
ENDBRANCH   1   4
BRANCH   1  13
HETATM   13  C7  UNL     1      24.365   2.338  52.877  1.00  0.00     0.108 C 
HETATM   14  C8  UNL     1      23.620   3.641  52.636  1.00  0.00     0.035 C 
BRANCH  13  15
HETATM   15  N2  UNL     1      23.544   1.207  52.614  1.00  0.00    -0.386 N 
HETATM   16  H17 UNL     1      23.482   1.026  51.556  1.00  0.00     0.160 HD
BRANCH  15  17
HETATM   17  C9  UNL     1      22.779   0.251  53.329  1.00  0.00     0.016 A 
HETATM   18  C10 UNL     1      23.165  -0.740  54.205  1.00  0.00     0.022 A 
HETATM   19  C11 UNL     1      22.171  -1.540  54.706  1.00  0.00    -0.012 A 
HETATM   20  C12 UNL     1      21.033  -1.047  54.122  1.00  0.00     0.010 A 
HETATM   21  C13 UNL     1      20.045  -0.342  53.388  1.00  0.00     0.023 A 
HETATM   22  C14 UNL     1      21.395   0.064  53.267  1.00  0.00     0.034 A 
ENDBRANCH  15  17
ENDBRANCH  13  15
ENDBRANCH   1  13
TORSDOF 9
ENDMDL
MODEL 4
REMARK VINA RESULT:      -6.2      3.699      6.127
REMARK  9 active torsions:
REMARK  status: ('A' for Active; 'I' for Inactive)
REMARK    1  A    between atoms: O1_2  and  C2_3 
REMARK    2  A    between atoms: C2_3  and  C3_4 
REMARK    3  A    between atoms: C2_3  and  C7_12 
REMARK    4  A    between atoms: C3_4  and  N1_5 
REMARK    5  A    between atoms: N1_5  and  C5_7 
REMARK    6  A    between atoms: C5_7  and  C6_8 
REMARK    7  A    between atoms: C6_8  and  O2_9 
REMARK    8  A    between atoms: C7_12  and  N2_14 
REMARK    9  A    between atoms: N2_14  and  C9_15 
ROOT
HETATM    1  C2  UNL     1      23.360   2.534  51.274  1.00  0.00     0.160 C 
ENDROOT
BRANCH   1   2
HETATM    2  O1  UNL     1      22.398   3.602  51.197  1.00  0.00    -0.387 OA
HETATM    3  C1  UNL     1      22.546   4.411  52.329  1.00  0.00     0.202 C 
ENDBRANCH   1   2
BRANCH   1   4
HETATM    4  C3  UNL     1      24.117   2.760  52.515  1.00  0.00     0.150 C 
BRANCH   4   5
HETATM    5  N1  UNL     1      24.798   1.670  53.085  1.00  0.00    -0.406 N 
HETATM    6  C4  UNL     1      24.183   0.443  53.326  1.00  0.00     0.143 C 
BRANCH   5   7
HETATM    7  C5  UNL     1      26.139   1.813  53.476  1.00  0.00     0.228 C 
BRANCH   7   8
HETATM    8  C6  UNL     1      27.187   1.663  52.400  1.00  0.00     0.368 C 
HETATM    9  F1  UNL     1      28.256   0.958  52.952  1.00  0.00    -0.174 F 
HETATM   10  F2  UNL     1      26.709   0.911  51.339  1.00  0.00    -0.174 F 
BRANCH   8  11
HETATM   11  O2  UNL     1      27.680   2.859  51.908  1.00  0.00    -0.335 OA
HETATM   12  H12 UNL     1      27.520   3.577  52.537  1.00  0.00     0.216 HD
ENDBRANCH   8  11
ENDBRANCH   7   8
ENDBRANCH   5   7
ENDBRANCH   4   5
ENDBRANCH   1   4
BRANCH   1  13
HETATM   13  C7  UNL     1      24.189   2.735  50.023  1.00  0.00     0.108 C 
HETATM   14  C8  UNL     1      23.315   3.097  48.833  1.00  0.00     0.035 C 
BRANCH  13  15
HETATM   15  N2  UNL     1      25.261   3.654  50.188  1.00  0.00    -0.386 N 
HETATM   16  H17 UNL     1      25.770   3.475  51.117  1.00  0.00     0.160 HD
BRANCH  15  17
HETATM   17  C9  UNL     1      25.854   4.741  49.495  1.00  0.00     0.016 A 
HETATM   18  C10 UNL     1      25.328   5.950  49.096  1.00  0.00     0.022 A 
HETATM   19  C11 UNL     1      26.163   6.782  48.395  1.00  0.00    -0.012 A 
HETATM   20  C12 UNL     1      27.336   6.077  48.321  1.00  0.00     0.010 A 
HETATM   21  C13 UNL     1      28.398   5.141  48.401  1.00  0.00     0.023 A 
HETATM   22  C14 UNL     1      27.159   4.811  48.999  1.00  0.00     0.034 A 
ENDBRANCH  15  17
ENDBRANCH  13  15
ENDBRANCH   1  13
TORSDOF 9
ENDMDL
MODEL 5
REMARK VINA RESULT:      -6.1      2.186      4.651
REMARK  9 active torsions:
REMARK  status: ('A' for Active; 'I' for Inactive)
REMARK    1  A    between atoms: O1_2  and  C2_3 
REMARK    2  A    between atoms: C2_3  and  C3_4 
REMARK    3  A    between atoms: C2_3  and  C7_12 
REMARK    4  A    between atoms: C3_4  and  N1_5 
REMARK    5  A    between atoms: N1_5  and  C5_7 
REMARK    6  A    between atoms: C5_7  and  C6_8 
REMARK    7  A    between atoms: C6_8  and  O2_9 
REMARK    8  A    between atoms: C7_12  and  N2_14 
REMARK    9  A    between atoms: N2_14  and  C9_15 
ROOT
HETATM    1  C2  UNL     1      25.445   1.451  53.442  1.00  0.00     0.160 C 
ENDROOT
BRANCH   1   2
HETATM    2  O1  UNL     1      26.441   1.461  54.482  1.00  0.00    -0.387 OA
HETATM    3  C1  UNL     1      26.383   0.237  55.158  1.00  0.00     0.202 C 
ENDBRANCH   1   2
BRANCH   1   4
HETATM    4  C3  UNL     1      24.702   0.192  53.606  1.00  0.00     0.150 C 
BRANCH   4   5
HETATM    5  N1  UNL     1      23.335   0.181  53.276  1.00  0.00    -0.406 N 
HETATM    6  C4  UNL     1      22.658   1.318  52.842  1.00  0.00     0.143 C 
BRANCH   5   7
HETATM    7  C5  UNL     1      22.592  -1.001  53.424  1.00  0.00     0.228 C 
BRANCH   7   8
HETATM    8  C6  UNL     1      21.976  -1.259  54.779  1.00  0.00     0.368 C 
HETATM    9  F1  UNL     1      21.579  -0.027  55.299  1.00  0.00    -0.174 F 
HETATM   10  F2  UNL     1      20.837  -2.039  54.668  1.00  0.00    -0.174 F 
BRANCH   8  11
HETATM   11  O2  UNL     1      22.829  -1.847  55.695  1.00  0.00    -0.335 OA
HETATM   12  H12 UNL     1      22.506  -2.724  55.947  1.00  0.00     0.216 HD
ENDBRANCH   8  11
ENDBRANCH   7   8
ENDBRANCH   5   7
ENDBRANCH   4   5
ENDBRANCH   1   4
BRANCH   1  13
HETATM   13  C7  UNL     1      26.277   1.495  52.177  1.00  0.00     0.108 C 
HETATM   14  C8  UNL     1      26.693   0.099  51.742  1.00  0.00     0.035 C 
BRANCH  13  15
HETATM   15  N2  UNL     1      25.668   2.217  51.115  1.00  0.00    -0.386 N 
HETATM   16  H17 UNL     1      24.768   1.724  50.793  1.00  0.00     0.160 HD
BRANCH  15  17
HETATM   17  C9  UNL     1      25.896   3.389  50.350  1.00  0.00     0.016 A 
HETATM   18  C10 UNL     1      26.877   3.689  49.430  1.00  0.00     0.022 A 
HETATM   19  C11 UNL     1      26.847   4.946  48.886  1.00  0.00    -0.012 A 
HETATM   20  C12 UNL     1      25.762   5.533  49.486  1.00  0.00     0.010 A 
HETATM   21  C13 UNL     1      24.616   5.875  50.247  1.00  0.00     0.023 A 
HETATM   22  C14 UNL     1      25.164   4.580  50.396  1.00  0.00     0.034 A 
ENDBRANCH  15  17
ENDBRANCH  13  15
ENDBRANCH   1  13
TORSDOF 9
ENDMDL
MODEL 6
REMARK VINA RESULT:      -6.1      1.575      2.004
REMARK  9 active torsions:
REMARK  status: ('A' for Active; 'I' for Inactive)
REMARK    1  A    between atoms: O1_2  and  C2_3 
REMARK    2  A    between atoms: C2_3  and  C3_4 
REMARK    3  A    between atoms: C2_3  and  C7_12 
REMARK    4  A    between atoms: C3_4  and  N1_5 
REMARK    5  A    between atoms: N1_5  and  C5_7 
REMARK    6  A    between atoms: C5_7  and  C6_8 
REMARK    7  A    between atoms: C6_8  and  O2_9 
REMARK    8  A    between atoms: C7_12  and  N2_14 
REMARK    9  A    between atoms: N2_14  and  C9_15 
ROOT
HETATM    1  C2  UNL     1      23.174   1.556  51.268  1.00  0.00     0.160 C 
ENDROOT
BRANCH   1   2
HETATM    2  O1  UNL     1      23.060   2.389  50.099  1.00  0.00    -0.387 OA
HETATM    3  C1  UNL     1      21.958   3.234  50.266  1.00  0.00     0.202 C 
ENDBRANCH   1   2
BRANCH   1   4
HETATM    4  C3  UNL     1      22.022   1.895  52.119  1.00  0.00     0.150 C 
BRANCH   4   5
HETATM    5  N1  UNL     1      21.251   0.841  52.642  1.00  0.00    -0.406 N 
HETATM    6  C4  UNL     1      20.229   0.229  51.922  1.00  0.00     0.143 C 
BRANCH   5   7
HETATM    7  C5  UNL     1      21.474   0.402  53.957  1.00  0.00     0.228 C 
BRANCH   7   8
HETATM    8  C6  UNL     1      22.370  -0.799  54.137  1.00  0.00     0.368 C 
HETATM    9  F1  UNL     1      22.397  -1.487  52.924  1.00  0.00    -0.174 F 
HETATM   10  F2  UNL     1      23.672  -0.413  54.413  1.00  0.00    -0.174 F 
BRANCH   8  11
HETATM   11  O2  UNL     1      21.954  -1.686  55.114  1.00  0.00    -0.335 OA
HETATM   12  H12 UNL     1      20.988  -1.686  55.184  1.00  0.00     0.216 HD
ENDBRANCH   8  11
ENDBRANCH   7   8
ENDBRANCH   5   7
ENDBRANCH   4   5
ENDBRANCH   1   4
BRANCH   1  13
HETATM   13  C7  UNL     1      24.500   1.982  51.859  1.00  0.00     0.108 C 
HETATM   14  C8  UNL     1      24.304   2.789  53.132  1.00  0.00     0.035 C 
BRANCH  13  15
HETATM   15  N2  UNL     1      25.413   0.909  52.051  1.00  0.00    -0.386 N 
HETATM   16  H17 UNL     1      24.995  -0.010  51.684  1.00  0.00     0.160 HD
BRANCH  15  17
HETATM   17  C9  UNL     1      26.707   0.689  52.588  1.00  0.00     0.016 A 
HETATM   18  C10 UNL     1      27.392  -0.479  52.841  1.00  0.00     0.022 A 
HETATM   19  C11 UNL     1      28.631  -0.355  53.414  1.00  0.00    -0.012 A 
HETATM   20  C12 UNL     1      28.788   1.000  53.555  1.00  0.00     0.010 A 
HETATM   21  C13 UNL     1      28.678   2.413  53.576  1.00  0.00     0.023 A 
HETATM   22  C14 UNL     1      27.604   1.659  53.047  1.00  0.00     0.034 A 
ENDBRANCH  15  17
ENDBRANCH  13  15
ENDBRANCH   1  13
TORSDOF 9
ENDMDL
MODEL 7
REMARK VINA RESULT:      -6.0      2.377      5.328
REMARK  9 active torsions:
REMARK  status: ('A' for Active; 'I' for Inactive)
REMARK    1  A    between atoms: O1_2  and  C2_3 
REMARK    2  A    between atoms: C2_3  and  C3_4 
REMARK    3  A    between atoms: C2_3  and  C7_12 
REMARK    4  A    between atoms: C3_4  and  N1_5 
REMARK    5  A    between atoms: N1_5  and  C5_7 
REMARK    6  A    between atoms: C5_7  and  C6_8 
REMARK    7  A    between atoms: C6_8  and  O2_9 
REMARK    8  A    between atoms: C7_12  and  N2_14 
REMARK    9  A    between atoms: N2_14  and  C9_15 
ROOT
HETATM    1  C2  UNL     1      24.096   2.933  51.967  1.00  0.00     0.160 C 
ENDROOT
BRANCH   1   2
HETATM    2  O1  UNL     1      24.291   4.115  51.168  1.00  0.00    -0.387 OA
HETATM    3  C1  UNL     1      23.623   5.178  51.785  1.00  0.00     0.202 C 
ENDBRANCH   1   2
BRANCH   1   4
HETATM    4  C3  UNL     1      25.098   1.961  51.501  1.00  0.00     0.150 C 
BRANCH   4   5
HETATM    5  N1  UNL     1      25.990   1.424  52.445  1.00  0.00    -0.406 N 
HETATM    6  C4  UNL     1      26.195   1.999  53.697  1.00  0.00     0.143 C 
BRANCH   5   7
HETATM    7  C5  UNL     1      26.751   0.290  52.119  1.00  0.00     0.228 C 
BRANCH   7   8
HETATM    8  C6  UNL     1      26.361  -1.011  52.780  1.00  0.00     0.368 C 
HETATM    9  F1  UNL     1      24.978  -0.993  52.955  1.00  0.00    -0.174 F 
HETATM   10  F2  UNL     1      26.653  -2.092  51.964  1.00  0.00    -0.174 F 
BRANCH   8  11
HETATM   11  O2  UNL     1      26.940  -1.221  54.019  1.00  0.00    -0.335 OA
HETATM   12  H12 UNL     1      27.097  -2.165  54.165  1.00  0.00     0.216 HD
ENDBRANCH   8  11
ENDBRANCH   7   8
ENDBRANCH   5   7
ENDBRANCH   4   5
ENDBRANCH   1   4
BRANCH   1  13
HETATM   13  C7  UNL     1      22.674   2.532  51.636  1.00  0.00     0.108 C 
HETATM   14  C8  UNL     1      22.631   1.575  50.456  1.00  0.00     0.035 C 
BRANCH  13  15
HETATM   15  N2  UNL     1      21.947   2.028  52.749  1.00  0.00    -0.386 N 
HETATM   16  H17 UNL     1      21.741   2.816  53.451  1.00  0.00     0.160 HD
BRANCH  15  17
HETATM   17  C9  UNL     1      21.419   0.796  53.212  1.00  0.00     0.016 A 
HETATM   18  C10 UNL     1      20.219   0.174  52.950  1.00  0.00     0.022 A 
HETATM   19  C11 UNL     1      19.985  -1.011  53.599  1.00  0.00    -0.012 A 
HETATM   20  C12 UNL     1      21.115  -1.197  54.352  1.00  0.00     0.010 A 
HETATM   21  C13 UNL     1      22.371  -1.129  55.007  1.00  0.00     0.023 A 
HETATM   22  C14 UNL     1      22.013  -0.085  54.122  1.00  0.00     0.034 A 
ENDBRANCH  15  17
ENDBRANCH  13  15
ENDBRANCH   1  13
TORSDOF 9
ENDMDL
MODEL 8
REMARK VINA RESULT:      -5.9      3.251      5.784
REMARK  9 active torsions:
REMARK  status: ('A' for Active; 'I' for Inactive)
REMARK    1  A    between atoms: O1_2  and  C2_3 
REMARK    2  A    between atoms: C2_3  and  C3_4 
REMARK    3  A    between atoms: C2_3  and  C7_12 
REMARK    4  A    between atoms: C3_4  and  N1_5 
REMARK    5  A    between atoms: N1_5  and  C5_7 
REMARK    6  A    between atoms: C5_7  and  C6_8 
REMARK    7  A    between atoms: C6_8  and  O2_9 
REMARK    8  A    between atoms: C7_12  and  N2_14 
REMARK    9  A    between atoms: N2_14  and  C9_15 
ROOT
HETATM    1  C2  UNL     1      23.726   2.436  52.284  1.00  0.00     0.160 C 
ENDROOT
BRANCH   1   2
HETATM    2  O1  UNL     1      24.188   3.753  51.929  1.00  0.00    -0.387 OA
HETATM    3  C1  UNL     1      23.376   4.693  52.573  1.00  0.00     0.202 C 
ENDBRANCH   1   2
BRANCH   1   4
HETATM    4  C3  UNL     1      24.575   1.496  51.536  1.00  0.00     0.150 C 
BRANCH   4   5
HETATM    5  N1  UNL     1      25.621   0.855  52.224  1.00  0.00    -0.406 N 
HETATM    6  C4  UNL     1      25.429  -0.305  52.970  1.00  0.00     0.143 C 
BRANCH   5   7
HETATM    7  C5  UNL     1      26.909   1.413  52.209  1.00  0.00     0.228 C 
BRANCH   7   8
HETATM    8  C6  UNL     1      27.405   2.029  53.495  1.00  0.00     0.368 C 
HETATM    9  F1  UNL     1      27.800   0.987  54.333  1.00  0.00    -0.174 F 
HETATM   10  F2  UNL     1      28.523   2.816  53.272  1.00  0.00    -0.174 F 
BRANCH   8  11
HETATM   11  O2  UNL     1      26.462   2.780  54.173  1.00  0.00    -0.335 OA
HETATM   12  H12 UNL     1      25.894   3.256  53.550  1.00  0.00     0.216 HD
ENDBRANCH   8  11
ENDBRANCH   7   8
ENDBRANCH   5   7
ENDBRANCH   4   5
ENDBRANCH   1   4
BRANCH   1  13
HETATM   13  C7  UNL     1      22.286   2.445  51.816  1.00  0.00     0.108 C 
HETATM   14  C8  UNL     1      22.155   1.853  50.423  1.00  0.00     0.035 C 
BRANCH  13  15
HETATM   15  N2  UNL     1      21.383   1.840  52.732  1.00  0.00    -0.386 N 
HETATM   16  H17 UNL     1      20.731   2.580  53.161  1.00  0.00     0.160 HD
BRANCH  15  17
HETATM   17  C9  UNL     1      21.089   0.555  53.254  1.00  0.00     0.016 A 
HETATM   18  C10 UNL     1      19.991  -0.259  53.082  1.00  0.00     0.022 A 
HETATM   19  C11 UNL     1      19.990  -1.445  53.769  1.00  0.00    -0.012 A 
HETATM   20  C12 UNL     1      21.179  -1.425  54.452  1.00  0.00     0.010 A 
HETATM   21  C13 UNL     1      22.444  -1.137  55.024  1.00  0.00     0.023 A 
HETATM   22  C14 UNL     1      21.870  -0.192  54.142  1.00  0.00     0.034 A 
ENDBRANCH  15  17
ENDBRANCH  13  15
ENDBRANCH   1  13
TORSDOF 9
ENDMDL
MODEL 9
REMARK VINA RESULT:      -5.7      2.896      4.033
REMARK  9 active torsions:
REMARK  status: ('A' for Active; 'I' for Inactive)
REMARK    1  A    between atoms: O1_2  and  C2_3 
REMARK    2  A    between atoms: C2_3  and  C3_4 
REMARK    3  A    between atoms: C2_3  and  C7_12 
REMARK    4  A    between atoms: C3_4  and  N1_5 
REMARK    5  A    between atoms: N1_5  and  C5_7 
REMARK    6  A    between atoms: C5_7  and  C6_8 
REMARK    7  A    between atoms: C6_8  and  O2_9 
REMARK    8  A    between atoms: C7_12  and  N2_14 
REMARK    9  A    between atoms: N2_14  and  C9_15 
ROOT
HETATM    1  C2  UNL     1      24.332   1.290  51.862  1.00  0.00     0.160 C 
ENDROOT
BRANCH   1   2
HETATM    2  O1  UNL     1      25.014   2.516  52.187  1.00  0.00    -0.387 OA
HETATM    3  C1  UNL     1      24.621   2.913  53.469  1.00  0.00     0.202 C 
ENDBRANCH   1   2
BRANCH   1   4
HETATM    4  C3  UNL     1      22.901   1.627  51.806  1.00  0.00     0.150 C 
BRANCH   4   5
HETATM    5  N1  UNL     1      22.483   2.591  50.871  1.00  0.00    -0.406 N 
HETATM    6  C4  UNL     1      21.712   3.695  51.224  1.00  0.00     0.143 C 
BRANCH   5   7
HETATM    7  C5  UNL     1      22.807   2.431  49.514  1.00  0.00     0.228 C 
BRANCH   7   8
HETATM    8  C6  UNL     1      21.861   1.604  48.676  1.00  0.00     0.368 C 
HETATM    9  F1  UNL     1      22.501   1.333  47.467  1.00  0.00    -0.174 F 
HETATM   10  F2  UNL     1      21.599   0.384  49.279  1.00  0.00    -0.174 F 
BRANCH   8  11
HETATM   11  O2  UNL     1      20.659   2.224  48.386  1.00  0.00    -0.335 OA
HETATM   12  H12 UNL     1      20.810   3.117  48.044  1.00  0.00     0.216 HD
ENDBRANCH   8  11
ENDBRANCH   7   8
ENDBRANCH   5   7
ENDBRANCH   4   5
ENDBRANCH   1   4
BRANCH   1  13
HETATM   13  C7  UNL     1      24.688   0.387  53.023  1.00  0.00     0.108 C 
HETATM   14  C8  UNL     1      23.557  -0.578  53.340  1.00  0.00     0.035 C 
BRANCH  13  15
HETATM   15  N2  UNL     1      25.928  -0.291  52.864  1.00  0.00    -0.386 N 
HETATM   16  H17 UNL     1      25.777  -1.245  52.392  1.00  0.00     0.160 HD
BRANCH  15  17
HETATM   17  C9  UNL     1      27.303  -0.087  53.146  1.00  0.00     0.016 A 
HETATM   18  C10 UNL     1      28.340  -0.984  53.273  1.00  0.00     0.022 A 
HETATM   19  C11 UNL     1      29.566  -0.465  53.599  1.00  0.00    -0.012 A 
HETATM   20  C12 UNL     1      29.332   0.882  53.697  1.00  0.00     0.010 A 
HETATM   21  C13 UNL     1      28.809   2.199  53.728  1.00  0.00     0.023 A 
HETATM   22  C14 UNL     1      27.934   1.131  53.419  1.00  0.00     0.034 A 
ENDBRANCH  15  17
ENDBRANCH  13  15
ENDBRANCH   1  13
TORSDOF 9
ENDMDL
