MODEL 1
REMARK VINA RESULT:      -8.8      0.000      0.000
REMARK  5 active torsions:
REMARK  status: ('A' for Active; 'I' for Inactive)
REMARK    1  A    between atoms: C5_5  and  C6_6 
REMARK    2  A    between atoms: C6_6  and  N1_7 
REMARK    3  A    between atoms: N1_7  and  C7_8 
REMARK    4  A    between atoms: C10_14  and  C11_15 
REMARK    5  A    between atoms: C14_18  and  O1_19 
ROOT
HETATM    1  C7  UNL     1      21.607   0.427  53.196  1.00  0.00     0.101 C 
HETATM    2  N2  UNL     1      22.045  -0.593  53.778  1.00  0.00    -0.236 NA
HETATM    3  C8  UNL     1      21.334  -1.700  54.194  1.00  0.00     0.809 C 
HETATM    4  N3  UNL     1      22.285  -1.722  55.097  1.00  0.00     0.060 NA
HETATM    5  C9  UNL     1      23.304  -0.686  55.039  1.00  0.00     0.375 C 
HETATM    6  N4  UNL     1      24.068  -0.737  53.823  1.00  0.00    -0.366 N 
HETATM    7  C10 UNL     1      24.845   0.393  53.497  1.00  0.00     0.032 C 
HETATM    8  C17 UNL     1      23.893   1.209  53.097  1.00  0.00     0.010 C 
HETATM    9  C18 UNL     1      22.503   1.553  52.822  1.00  0.00     0.107 C 
HETATM   10  H12 UNL     1      24.284  -1.346  53.028  1.00  0.00     0.161 HD
ENDROOT
BRANCH   1  11
HETATM   11  N1  UNL     1      20.255   0.674  52.828  1.00  0.00    -0.374 N 
HETATM   12  H8  UNL     1      19.519   1.072  53.474  1.00  0.00     0.161 HD
BRANCH  11  13
HETATM   13  C6  UNL     1      19.828   0.363  51.466  1.00  0.00     0.159 C 
BRANCH  13  14
HETATM   14  C5  UNL     1      18.424  -0.185  51.468  1.00  0.00    -0.041 A 
HETATM   15  C4  UNL     1      17.553  -0.022  50.411  1.00  0.00     0.009 A 
HETATM   16  C3  UNL     1      16.275  -0.567  50.511  1.00  0.00     0.007 A 
HETATM   17  C2  UNL     1      15.890  -1.264  51.663  1.00  0.00    -0.062 A 
HETATM   18  C1  UNL     1      14.514  -1.833  51.734  1.00  0.00     0.048 C 
HETATM   19  C20 UNL     1      16.789  -1.405  52.699  1.00  0.00     0.007 A 
HETATM   20  C19 UNL     1      18.072  -0.874  52.633  1.00  0.00     0.009 A 
ENDBRANCH  13  14
ENDBRANCH  11  13
ENDBRANCH   1  11
BRANCH   7  21
HETATM   21  C11 UNL     1      26.269   0.520  53.602  1.00  0.00    -0.032 C 
HETATM   22  C12 UNL     1      27.001   0.033  54.583  1.00  0.00    -0.011 C 
HETATM   23  C13 UNL     1      28.481   0.218  54.604  1.00  0.00     0.091 C 
HETATM   24  C14 UNL     1      28.743   1.609  54.100  1.00  0.00     0.043 C 
HETATM   25  C15 UNL     1      27.991   2.075  53.116  1.00  0.00     0.010 C 
HETATM   26  C16 UNL     1      26.887   1.266  52.482  1.00  0.00     0.070 C 
BRANCH  24  27
HETATM   27  O1  UNL     1      29.757   2.421  54.644  1.00  0.00    -0.365 OA
HETATM   28  H16 UNL     1      30.731   2.105  54.671  1.00  0.00     0.217 HD
ENDBRANCH  24  27
ENDBRANCH   7  21
TORSDOF 5
ENDMDL
MODEL 2
REMARK VINA RESULT:      -8.7      4.682      8.885
REMARK  5 active torsions:
REMARK  status: ('A' for Active; 'I' for Inactive)
REMARK    1  A    between atoms: C5_5  and  C6_6 
REMARK    2  A    between atoms: C6_6  and  N1_7 
REMARK    3  A    between atoms: N1_7  and  C7_8 
REMARK    4  A    between atoms: C10_14  and  C11_15 
REMARK    5  A    between atoms: C14_18  and  O1_19 
ROOT
HETATM    1  C7  UNL     1      26.024   2.460  51.594  1.00  0.00     0.101 C 
HETATM    2  N2  UNL     1      26.450   1.655  52.455  1.00  0.00    -0.236 NA
HETATM    3  C8  UNL     1      27.755   1.471  52.868  1.00  0.00     0.809 C 
HETATM    4  N3  UNL     1      27.305   0.257  53.077  1.00  0.00     0.060 NA
HETATM    5  C9  UNL     1      25.911  -0.017  52.764  1.00  0.00     0.375 C 
HETATM    6  N4  UNL     1      25.007   0.760  53.565  1.00  0.00    -0.366 N 
HETATM    7  C10 UNL     1      23.666   0.838  53.138  1.00  0.00     0.032 C 
HETATM    8  C17 UNL     1      23.801   1.672  52.129  1.00  0.00     0.010 C 
HETATM    9  C18 UNL     1      24.581   2.531  51.245  1.00  0.00     0.107 C 
HETATM   10  H12 UNL     1      24.965   1.333  54.413  1.00  0.00     0.161 HD
ENDROOT
BRANCH   1  11
HETATM   11  N1  UNL     1      26.803   3.378  50.837  1.00  0.00    -0.374 N 
HETATM   12  H8  UNL     1      27.527   4.032  51.245  1.00  0.00     0.161 HD
BRANCH  11  13
HETATM   13  C6  UNL     1      26.609   3.441  49.391  1.00  0.00     0.159 C 
BRANCH  13  14
HETATM   14  C5  UNL     1      27.011   4.796  48.866  1.00  0.00    -0.041 A 
HETATM   15  C4  UNL     1      28.294   5.090  48.454  1.00  0.00     0.009 A 
HETATM   16  C3  UNL     1      28.565   6.374  47.984  1.00  0.00     0.007 A 
HETATM   17  C2  UNL     1      27.551   7.339  47.935  1.00  0.00    -0.062 A 
HETATM   18  C1  UNL     1      27.878   8.701  47.426  1.00  0.00     0.048 C 
HETATM   19  C20 UNL     1      26.281   7.005  48.356  1.00  0.00     0.007 A 
HETATM   20  C19 UNL     1      25.976   5.735  48.830  1.00  0.00     0.009 A 
ENDBRANCH  13  14
ENDBRANCH  11  13
ENDBRANCH   1  11
BRANCH   7  21
HETATM   21  C11 UNL     1      22.538   0.163  53.711  1.00  0.00    -0.032 C 
HETATM   22  C12 UNL     1      22.523  -1.101  54.083  1.00  0.00    -0.011 C 
HETATM   23  C13 UNL     1      21.297  -1.715  54.672  1.00  0.00     0.091 C 
HETATM   24  C14 UNL     1      20.131  -1.149  53.910  1.00  0.00     0.043 C 
HETATM   25  C15 UNL     1      20.174   0.122  53.546  1.00  0.00     0.010 C 
HETATM   26  C16 UNL     1      21.341   1.022  53.864  1.00  0.00     0.070 C 
BRANCH  24  27
HETATM   27  O1  UNL     1      19.008  -1.930  53.578  1.00  0.00    -0.365 OA
HETATM   28  H16 UNL     1      18.124  -1.494  53.296  1.00  0.00     0.217 HD
ENDBRANCH  24  27
ENDBRANCH   7  21
TORSDOF 5
ENDMDL
MODEL 3
REMARK VINA RESULT:      -8.6      5.543      8.625
REMARK  5 active torsions:
REMARK  status: ('A' for Active; 'I' for Inactive)
REMARK    1  A    between atoms: C5_5  and  C6_6 
REMARK    2  A    between atoms: C6_6  and  N1_7 
REMARK    3  A    between atoms: N1_7  and  C7_8 
REMARK    4  A    between atoms: C10_14  and  C11_15 
REMARK    5  A    between atoms: C14_18  and  O1_19 
ROOT
HETATM    1  C7  UNL     1      24.964   2.893  50.894  1.00  0.00     0.101 C 
HETATM    2  N2  UNL     1      24.494   4.054  50.909  1.00  0.00    -0.236 NA
HETATM    3  C8  UNL     1      23.387   4.509  51.598  1.00  0.00     0.809 C 
HETATM    4  N3  UNL     1      23.345   5.336  50.581  1.00  0.00     0.060 NA
HETATM    5  C9  UNL     1      24.371   5.212  49.558  1.00  0.00     0.375 C 
HETATM    6  N4  UNL     1      25.689   5.462  50.070  1.00  0.00    -0.366 N 
HETATM    7  C10 UNL     1      26.782   5.053  49.280  1.00  0.00     0.032 C 
HETATM    8  C17 UNL     1      26.733   3.755  49.488  1.00  0.00     0.010 C 
HETATM    9  C18 UNL     1      26.164   2.552  50.085  1.00  0.00     0.107 C 
HETATM   10  H12 UNL     1      26.182   5.868  50.872  1.00  0.00     0.161 HD
ENDROOT
BRANCH   1  11
HETATM   11  N1  UNL     1      24.453   1.765  51.594  1.00  0.00    -0.374 N 
HETATM   12  H8  UNL     1      23.838   1.019  51.165  1.00  0.00     0.161 HD
BRANCH  11  13
HETATM   13  C6  UNL     1      24.785   1.602  53.006  1.00  0.00     0.159 C 
BRANCH  13  14
HETATM   14  C5  UNL     1      26.127   0.931  53.156  1.00  0.00    -0.041 A 
HETATM   15  C4  UNL     1      27.228   1.566  53.692  1.00  0.00     0.009 A 
HETATM   16  C3  UNL     1      28.425   0.858  53.788  1.00  0.00     0.007 A 
HETATM   17  C2  UNL     1      28.500  -0.468  53.346  1.00  0.00    -0.062 A 
HETATM   18  C1  UNL     1      29.797  -1.194  53.464  1.00  0.00     0.048 C 
HETATM   19  C20 UNL     1      27.377  -1.068  52.815  1.00  0.00     0.007 A 
HETATM   20  C19 UNL     1      26.168  -0.392  52.705  1.00  0.00     0.009 A 
ENDBRANCH  13  14
ENDBRANCH  11  13
ENDBRANCH   1  11
BRANCH   7  21
HETATM   21  C11 UNL     1      27.647   5.892  48.504  1.00  0.00    -0.032 C 
HETATM   22  C12 UNL     1      28.895   5.609  48.191  1.00  0.00    -0.011 C 
HETATM   23  C13 UNL     1      29.718   6.550  47.376  1.00  0.00     0.091 C 
HETATM   24  C14 UNL     1      29.364   7.934  47.842  1.00  0.00     0.043 C 
HETATM   25  C15 UNL     1      28.104   8.192  48.154  1.00  0.00     0.010 C 
HETATM   26  C16 UNL     1      27.013   7.155  48.059  1.00  0.00     0.070 C 
BRANCH  24  27
HETATM   27  O1  UNL     1      30.330   8.953  47.954  1.00  0.00    -0.365 OA
HETATM   28  H16 UNL     1      30.090   9.869  48.346  1.00  0.00     0.217 HD
ENDBRANCH  24  27
ENDBRANCH   7  21
TORSDOF 5
ENDMDL
MODEL 4
REMARK VINA RESULT:      -8.5      3.409      9.003
REMARK  5 active torsions:
REMARK  status: ('A' for Active; 'I' for Inactive)
REMARK    1  A    between atoms: C5_5  and  C6_6 
REMARK    2  A    between atoms: C6_6  and  N1_7 
REMARK    3  A    between atoms: N1_7  and  C7_8 
REMARK    4  A    between atoms: C10_14  and  C11_15 
REMARK    5  A    between atoms: C14_18  and  O1_19 
ROOT
HETATM    1  C7  UNL     1      22.627   0.418  53.352  1.00  0.00     0.101 C 
HETATM    2  N2  UNL     1      22.132  -0.378  54.183  1.00  0.00    -0.236 NA
HETATM    3  C8  UNL     1      22.732  -0.906  55.309  1.00  0.00     0.809 C 
HETATM    4  N3  UNL     1      21.913  -1.893  55.036  1.00  0.00     0.060 NA
HETATM    5  C9  UNL     1      21.048  -1.761  53.875  1.00  0.00     0.375 C 
HETATM    6  N4  UNL     1      20.132  -0.661  53.996  1.00  0.00    -0.366 N 
HETATM    7  C10 UNL     1      19.483  -0.223  52.824  1.00  0.00     0.032 C 
HETATM    8  C17 UNL     1      20.478   0.412  52.243  1.00  0.00     0.010 C 
HETATM    9  C18 UNL     1      21.855   0.888  52.172  1.00  0.00     0.107 C 
HETATM   10  H12 UNL     1      19.732  -0.013  54.682  1.00  0.00     0.161 HD
ENDROOT
BRANCH   1  11
HETATM   11  N1  UNL     1      23.940   0.964  53.384  1.00  0.00    -0.374 N 
HETATM   12  H8  UNL     1      24.359   1.476  54.209  1.00  0.00     0.161 HD
BRANCH  11  13
HETATM   13  C6  UNL     1      24.791   0.822  52.205  1.00  0.00     0.159 C 
BRANCH  13  14
HETATM   14  C5  UNL     1      26.182   0.405  52.610  1.00  0.00    -0.041 A 
HETATM   15  C4  UNL     1      27.162   1.308  52.966  1.00  0.00     0.009 A 
HETATM   16  C3  UNL     1      28.418   0.822  53.325  1.00  0.00     0.007 A 
HETATM   17  C2  UNL     1      28.672  -0.554  53.321  1.00  0.00    -0.062 A 
HETATM   18  C1  UNL     1      30.027  -1.038  53.711  1.00  0.00     0.048 C 
HETATM   19  C20 UNL     1      27.665  -1.426  52.958  1.00  0.00     0.007 A 
HETATM   20  C19 UNL     1      26.402  -0.976  52.595  1.00  0.00     0.009 A 
ENDBRANCH  13  14
ENDBRANCH  11  13
ENDBRANCH   1  11
BRANCH   7  21
HETATM   21  C11 UNL     1      18.116  -0.454  52.458  1.00  0.00    -0.032 C 
HETATM   22  C12 UNL     1      17.376  -1.453  52.892  1.00  0.00    -0.011 C 
HETATM   23  C13 UNL     1      15.958  -1.609  52.452  1.00  0.00     0.091 C 
HETATM   24  C14 UNL     1      15.921  -1.232  50.998  1.00  0.00     0.043 C 
HETATM   25  C15 UNL     1      16.678  -0.226  50.588  1.00  0.00     0.010 C 
HETATM   26  C16 UNL     1      17.571   0.554  51.520  1.00  0.00     0.070 C 
BRANCH  24  27
HETATM   27  O1  UNL     1      15.111  -1.915  50.070  1.00  0.00    -0.365 OA
HETATM   28  H16 UNL     1      15.524  -2.497  49.334  1.00  0.00     0.217 HD
ENDBRANCH  24  27
ENDBRANCH   7  21
TORSDOF 5
ENDMDL
MODEL 5
REMARK VINA RESULT:      -8.5      1.869      3.255
REMARK  5 active torsions:
REMARK  status: ('A' for Active; 'I' for Inactive)
REMARK    1  A    between atoms: C5_5  and  C6_6 
REMARK    2  A    between atoms: C6_6  and  N1_7 
REMARK    3  A    between atoms: N1_7  and  C7_8 
REMARK    4  A    between atoms: C10_14  and  C11_15 
REMARK    5  A    between atoms: C14_18  and  O1_19 
ROOT
HETATM    1  C7  UNL     1      21.553   0.514  53.136  1.00  0.00     0.101 C 
HETATM    2  N2  UNL     1      21.962  -0.519  53.715  1.00  0.00    -0.236 NA
HETATM    3  C8  UNL     1      21.224  -1.618  54.106  1.00  0.00     0.809 C 
HETATM    4  N3  UNL     1      22.158  -1.666  55.025  1.00  0.00     0.060 NA
HETATM    5  C9  UNL     1      23.196  -0.648  54.996  1.00  0.00     0.375 C 
HETATM    6  N4  UNL     1      23.981  -0.700  53.794  1.00  0.00    -0.366 N 
HETATM    7  C10 UNL     1      24.783   0.420  53.494  1.00  0.00     0.032 C 
HETATM    8  C17 UNL     1      23.853   1.257  53.086  1.00  0.00     0.010 C 
HETATM    9  C18 UNL     1      22.474   1.628  52.790  1.00  0.00     0.107 C 
HETATM   10  H12 UNL     1      24.200  -1.304  52.996  1.00  0.00     0.161 HD
ENDROOT
BRANCH   1  11
HETATM   11  N1  UNL     1      20.212   0.789  52.746  1.00  0.00    -0.374 N 
HETATM   12  H8  UNL     1      19.541   1.400  53.290  1.00  0.00     0.161 HD
BRANCH  11  13
HETATM   13  C6  UNL     1      19.702   0.198  51.512  1.00  0.00     0.159 C 
BRANCH  13  14
HETATM   14  C5  UNL     1      20.180   0.983  50.317  1.00  0.00    -0.041 A 
HETATM   15  C4  UNL     1      21.268   0.606  49.558  1.00  0.00     0.009 A 
HETATM   16  C3  UNL     1      21.630   1.400  48.472  1.00  0.00     0.007 A 
HETATM   17  C2  UNL     1      20.901   2.555  48.164  1.00  0.00    -0.062 A 
HETATM   18  C1  UNL     1      21.317   3.380  46.995  1.00  0.00     0.048 C 
HETATM   19  C20 UNL     1      19.818   2.898  48.948  1.00  0.00     0.007 A 
HETATM   20  C19 UNL     1      19.430   2.129  50.038  1.00  0.00     0.009 A 
ENDBRANCH  13  14
ENDBRANCH  11  13
ENDBRANCH   1  11
BRANCH   7  21
HETATM   21  C11 UNL     1      26.207   0.520  53.625  1.00  0.00    -0.032 C 
HETATM   22  C12 UNL     1      26.905   0.072  54.649  1.00  0.00    -0.011 C 
HETATM   23  C13 UNL     1      28.389   0.224  54.695  1.00  0.00     0.091 C 
HETATM   24  C14 UNL     1      28.694   1.579  54.121  1.00  0.00     0.043 C 
HETATM   25  C15 UNL     1      27.976   2.007  53.096  1.00  0.00     0.010 C 
HETATM   26  C16 UNL     1      26.867   1.190  52.481  1.00  0.00     0.070 C 
BRANCH  24  27
HETATM   27  O1  UNL     1      29.715   2.397  54.644  1.00  0.00    -0.365 OA
HETATM   28  H16 UNL     1      30.258   3.019  54.037  1.00  0.00     0.217 HD
ENDBRANCH  24  27
ENDBRANCH   7  21
TORSDOF 5
ENDMDL
MODEL 6
REMARK VINA RESULT:      -8.5      1.660      2.624
REMARK  5 active torsions:
REMARK  status: ('A' for Active; 'I' for Inactive)
REMARK    1  A    between atoms: C5_5  and  C6_6 
REMARK    2  A    between atoms: C6_6  and  N1_7 
REMARK    3  A    between atoms: N1_7  and  C7_8 
REMARK    4  A    between atoms: C10_14  and  C11_15 
REMARK    5  A    between atoms: C14_18  and  O1_19 
ROOT
HETATM    1  C7  UNL     1      21.834   0.531  52.417  1.00  0.00     0.101 C 
HETATM    2  N2  UNL     1      22.247   1.628  51.975  1.00  0.00    -0.236 NA
HETATM    3  C8  UNL     1      21.528   2.592  51.297  1.00  0.00     0.809 C 
HETATM    4  N3  UNL     1      22.709   2.815  50.771  1.00  0.00     0.060 NA
HETATM    5  C9  UNL     1      23.820   1.989  51.215  1.00  0.00     0.375 C 
HETATM    6  N4  UNL     1      24.100   2.153  52.615  1.00  0.00    -0.366 N 
HETATM    7  C10 UNL     1      24.914   1.181  53.232  1.00  0.00     0.032 C 
HETATM    8  C17 UNL     1      24.052   0.191  53.318  1.00  0.00     0.010 C 
HETATM    9  C18 UNL     1      22.740  -0.415  53.119  1.00  0.00     0.107 C 
HETATM   10  H12 UNL     1      23.914   2.772  53.410  1.00  0.00     0.161 HD
ENDROOT
BRANCH   1  11
HETATM   11  N1  UNL     1      20.508   0.025  52.314  1.00  0.00    -0.374 N 
HETATM   12  H8  UNL     1      19.958  -0.041  51.413  1.00  0.00     0.161 HD
BRANCH  11  13
HETATM   13  C6  UNL     1      19.837  -0.443  53.523  1.00  0.00     0.159 C 
BRANCH  13  14
HETATM   14  C5  UNL     1      18.535  -1.118  53.173  1.00  0.00    -0.041 A 
HETATM   15  C4  UNL     1      17.584  -0.538  52.361  1.00  0.00     0.009 A 
HETATM   16  C3  UNL     1      16.412  -1.244  52.097  1.00  0.00     0.007 A 
HETATM   17  C2  UNL     1      16.212  -2.515  52.649  1.00  0.00    -0.062 A 
HETATM   18  C1  UNL     1      14.946  -3.241  52.345  1.00  0.00     0.048 C 
HETATM   19  C20 UNL     1      17.187  -3.062  53.457  1.00  0.00     0.007 A 
HETATM   20  C19 UNL     1      18.367  -2.386  53.740  1.00  0.00     0.009 A 
ENDBRANCH  13  14
ENDBRANCH  11  13
ENDBRANCH   1  11
BRANCH   7  21
HETATM   21  C11 UNL     1      26.285   1.327  53.622  1.00  0.00    -0.032 C 
HETATM   22  C12 UNL     1      27.124   2.212  53.122  1.00  0.00    -0.011 C 
HETATM   23  C13 UNL     1      28.537   2.287  53.594  1.00  0.00     0.091 C 
HETATM   24  C14 UNL     1      28.989   0.869  53.806  1.00  0.00     0.043 C 
HETATM   25  C15 UNL     1      28.126   0.000  54.308  1.00  0.00     0.010 C 
HETATM   26  C16 UNL     1      26.712   0.376  54.674  1.00  0.00     0.070 C 
BRANCH  24  27
HETATM   27  O1  UNL     1      30.294   0.447  53.487  1.00  0.00    -0.365 OA
HETATM   28  H16 UNL     1      30.476  -0.505  53.153  1.00  0.00     0.217 HD
ENDBRANCH  24  27
ENDBRANCH   7  21
TORSDOF 5
ENDMDL
MODEL 7
REMARK VINA RESULT:      -8.3      5.891      7.928
REMARK  5 active torsions:
REMARK  status: ('A' for Active; 'I' for Inactive)
REMARK    1  A    between atoms: C5_5  and  C6_6 
REMARK    2  A    between atoms: C6_6  and  N1_7 
REMARK    3  A    between atoms: N1_7  and  C7_8 
REMARK    4  A    between atoms: C10_14  and  C11_15 
REMARK    5  A    between atoms: C14_18  and  O1_19 
ROOT
HETATM    1  C7  UNL     1      25.375   4.174  50.275  1.00  0.00     0.101 C 
HETATM    2  N2  UNL     1      25.230   5.418  50.262  1.00  0.00    -0.236 NA
HETATM    3  C8  UNL     1      24.270   6.165  50.916  1.00  0.00     0.809 C 
HETATM    4  N3  UNL     1      24.471   6.952  49.887  1.00  0.00     0.060 NA
HETATM    5  C9  UNL     1      25.448   6.539  48.891  1.00  0.00     0.375 C 
HETATM    6  N4  UNL     1      26.774   6.440  49.434  1.00  0.00    -0.366 N 
HETATM    7  C10 UNL     1      27.735   5.739  48.677  1.00  0.00     0.032 C 
HETATM    8  C17 UNL     1      27.338   4.505  48.903  1.00  0.00     0.010 C 
HETATM    9  C18 UNL     1      26.457   3.509  49.503  1.00  0.00     0.107 C 
HETATM   10  H12 UNL     1      27.341   6.717  50.242  1.00  0.00     0.161 HD
ENDROOT
BRANCH   1  11
HETATM   11  N1  UNL     1      24.567   3.237  50.978  1.00  0.00    -0.374 N 
HETATM   12  H8  UNL     1      23.512   3.187  50.918  1.00  0.00     0.161 HD
BRANCH  11  13
HETATM   13  C6  UNL     1      25.216   2.262  51.851  1.00  0.00     0.159 C 
BRANCH  13  14
HETATM   14  C5  UNL     1      24.185   1.399  52.532  1.00  0.00    -0.041 A 
HETATM   15  C4  UNL     1      22.842   1.711  52.554  1.00  0.00     0.009 A 
HETATM   16  C3  UNL     1      21.968   0.846  53.211  1.00  0.00     0.007 A 
HETATM   17  C2  UNL     1      22.451  -0.311  53.833  1.00  0.00    -0.062 A 
HETATM   18  C1  UNL     1      21.486  -1.213  54.526  1.00  0.00     0.048 C 
HETATM   19  C20 UNL     1      23.802  -0.588  53.788  1.00  0.00     0.007 A 
HETATM   20  C19 UNL     1      24.700   0.251  53.143  1.00  0.00     0.009 A 
ENDBRANCH  13  14
ENDBRANCH  11  13
ENDBRANCH   1  11
BRANCH   7  21
HETATM   21  C11 UNL     1      28.808   6.302  47.912  1.00  0.00    -0.032 C 
HETATM   22  C12 UNL     1      30.046   5.850  47.899  1.00  0.00    -0.011 C 
HETATM   23  C13 UNL     1      31.096   6.507  47.067  1.00  0.00     0.091 C 
HETATM   24  C14 UNL     1      30.845   7.986  47.156  1.00  0.00     0.043 C 
HETATM   25  C15 UNL     1      29.592   8.413  47.171  1.00  0.00     0.010 C 
HETATM   26  C16 UNL     1      28.412   7.477  47.101  1.00  0.00     0.070 C 
BRANCH  24  27
HETATM   27  O1  UNL     1      31.898   8.919  47.224  1.00  0.00    -0.365 OA
HETATM   28  H16 UNL     1      32.720   8.747  47.811  1.00  0.00     0.217 HD
ENDBRANCH  24  27
ENDBRANCH   7  21
TORSDOF 5
ENDMDL
MODEL 8
REMARK VINA RESULT:      -7.8      1.805      2.738
REMARK  5 active torsions:
REMARK  status: ('A' for Active; 'I' for Inactive)
REMARK    1  A    between atoms: C5_5  and  C6_6 
REMARK    2  A    between atoms: C6_6  and  N1_7 
REMARK    3  A    between atoms: N1_7  and  C7_8 
REMARK    4  A    between atoms: C10_14  and  C11_15 
REMARK    5  A    between atoms: C14_18  and  O1_19 
ROOT
HETATM    1  C7  UNL     1      21.495   1.530  52.620  1.00  0.00     0.101 C 
HETATM    2  N2  UNL     1      22.259   2.464  52.284  1.00  0.00    -0.236 NA
HETATM    3  C8  UNL     1      21.925   3.778  52.023  1.00  0.00     0.809 C 
HETATM    4  N3  UNL     1      22.965   3.675  51.232  1.00  0.00     0.060 NA
HETATM    5  C9  UNL     1      23.663   2.399  51.186  1.00  0.00     0.375 C 
HETATM    6  N4  UNL     1      24.236   2.042  52.454  1.00  0.00    -0.366 N 
HETATM    7  C10 UNL     1      24.639   0.702  52.630  1.00  0.00     0.032 C 
HETATM    8  C17 UNL     1      23.462   0.133  52.778  1.00  0.00     0.010 C 
HETATM    9  C18 UNL     1      22.006   0.154  52.855  1.00  0.00     0.107 C 
HETATM   10  H12 UNL     1      24.489   2.433  53.367  1.00  0.00     0.161 HD
ENDROOT
BRANCH   1  11
HETATM   11  N1  UNL     1      20.087   1.617  52.809  1.00  0.00    -0.374 N 
HETATM   12  H8  UNL     1      19.615   1.796  53.739  1.00  0.00     0.161 HD
BRANCH  11  13
HETATM   13  C6  UNL     1      19.210   1.452  51.654  1.00  0.00     0.159 C 
BRANCH  13  14
HETATM   14  C5  UNL     1      18.249   0.314  51.883  1.00  0.00    -0.041 A 
HETATM   15  C4  UNL     1      18.440  -0.647  52.854  1.00  0.00     0.009 A 
HETATM   16  C3  UNL     1      17.492  -1.660  52.987  1.00  0.00     0.007 A 
HETATM   17  C2  UNL     1      16.372  -1.695  52.148  1.00  0.00    -0.062 A 
HETATM   18  C1  UNL     1      15.379  -2.794  52.318  1.00  0.00     0.048 C 
HETATM   19  C20 UNL     1      16.216  -0.716  51.188  1.00  0.00     0.007 A 
HETATM   20  C19 UNL     1      17.141   0.307  51.029  1.00  0.00     0.009 A 
ENDBRANCH  13  14
ENDBRANCH  11  13
ENDBRANCH   1  11
BRANCH   7  21
HETATM   21  C11 UNL     1      25.982   0.200  52.634  1.00  0.00    -0.032 C 
HETATM   22  C12 UNL     1      26.324  -1.042  52.909  1.00  0.00    -0.011 C 
HETATM   23  C13 UNL     1      27.753  -1.470  52.887  1.00  0.00     0.091 C 
HETATM   24  C14 UNL     1      28.546  -0.333  53.468  1.00  0.00     0.043 C 
HETATM   25  C15 UNL     1      28.179   0.905  53.177  1.00  0.00     0.010 C 
HETATM   26  C16 UNL     1      27.001   1.218  52.288  1.00  0.00     0.070 C 
BRANCH  24  27
HETATM   27  O1  UNL     1      29.657  -0.550  54.305  1.00  0.00    -0.365 OA
HETATM   28  H16 UNL     1      29.905   0.120  55.040  1.00  0.00     0.217 HD
ENDBRANCH  24  27
ENDBRANCH   7  21
TORSDOF 5
ENDMDL
MODEL 9
REMARK VINA RESULT:      -7.6      3.284      4.704
REMARK  5 active torsions:
REMARK  status: ('A' for Active; 'I' for Inactive)
REMARK    1  A    between atoms: C5_5  and  C6_6 
REMARK    2  A    between atoms: C6_6  and  N1_7 
REMARK    3  A    between atoms: N1_7  and  C7_8 
REMARK    4  A    between atoms: C10_14  and  C11_15 
REMARK    5  A    between atoms: C14_18  and  O1_19 
ROOT
HETATM    1  C7  UNL     1      23.917   4.166  51.427  1.00  0.00     0.101 C 
HETATM    2  N2  UNL     1      25.012   4.234  50.821  1.00  0.00    -0.236 NA
HETATM    3  C8  UNL     1      25.363   5.101  49.805  1.00  0.00     0.809 C 
HETATM    4  N3  UNL     1      26.126   4.086  49.476  1.00  0.00     0.060 NA
HETATM    5  C9  UNL     1      26.075   2.896  50.311  1.00  0.00     0.375 C 
HETATM    6  N4  UNL     1      26.510   3.151  51.656  1.00  0.00    -0.366 N 
HETATM    7  C10 UNL     1      26.196   2.185  52.634  1.00  0.00     0.032 C 
HETATM    8  C17 UNL     1      24.914   2.435  52.790  1.00  0.00     0.010 C 
HETATM    9  C18 UNL     1      23.683   3.161  52.496  1.00  0.00     0.107 C 
HETATM   10  H12 UNL     1      27.013   3.836  52.227  1.00  0.00     0.161 HD
ENDROOT
BRANCH   1  11
HETATM   11  N1  UNL     1      22.773   4.979  51.198  1.00  0.00    -0.374 N 
HETATM   12  H8  UNL     1      22.521   5.837  51.763  1.00  0.00     0.161 HD
BRANCH  11  13
HETATM   13  C6  UNL     1      21.864   4.627  50.110  1.00  0.00     0.159 C 
BRANCH  13  14
HETATM   14  C5  UNL     1      21.093   3.378  50.455  1.00  0.00    -0.041 A 
HETATM   15  C4  UNL     1      21.282   2.176  49.806  1.00  0.00     0.009 A 
HETATM   16  C3  UNL     1      20.518   1.078  50.199  1.00  0.00     0.007 A 
HETATM   17  C2  UNL     1      19.581   1.202  51.232  1.00  0.00    -0.062 A 
HETATM   18  C1  UNL     1      18.782   0.006  51.626  1.00  0.00     0.048 C 
HETATM   19  C20 UNL     1      19.421   2.421  51.857  1.00  0.00     0.007 A 
HETATM   20  C19 UNL     1      20.165   3.535  51.490  1.00  0.00     0.009 A 
ENDBRANCH  13  14
ENDBRANCH  11  13
ENDBRANCH   1  11
BRANCH   7  21
HETATM   21  C11 UNL     1      27.093   1.241  53.231  1.00  0.00    -0.032 C 
HETATM   22  C12 UNL     1      28.325   1.506  53.615  1.00  0.00    -0.011 C 
HETATM   23  C13 UNL     1      29.185   0.453  54.229  1.00  0.00     0.091 C 
HETATM   24  C14 UNL     1      28.896  -0.819  53.483  1.00  0.00     0.043 C 
HETATM   25  C15 UNL     1      27.650  -1.060  53.106  1.00  0.00     0.010 C 
HETATM   26  C16 UNL     1      26.514  -0.112  53.397  1.00  0.00     0.070 C 
BRANCH  24  27
HETATM   27  O1  UNL     1      29.907  -1.751  53.176  1.00  0.00    -0.365 OA
HETATM   28  H16 UNL     1      29.759  -2.756  53.311  1.00  0.00     0.217 HD
ENDBRANCH  24  27
ENDBRANCH   7  21
TORSDOF 5
ENDMDL
