MODEL 1
REMARK VINA RESULT:      -7.3      0.000      0.000
REMARK  5 active torsions:
REMARK  status: ('A' for Active; 'I' for Inactive)
REMARK    1  A    between atoms: C1_2  and  C2_3 
REMARK    2  A    between atoms: C7_9  and  N1_10 
REMARK    3  A    between atoms: N1_10  and  C8_11 
REMARK    4  A    between atoms: C10_13  and  N2_14 
REMARK    5  A    between atoms: N2_14  and  P1_15 
ROOT
HETATM    1  C8  UNL     1      24.890   1.384  52.659  1.00  0.00     0.032 C 
HETATM    2  C9  UNL     1      23.884   0.516  52.825  1.00  0.00     0.029 C 
HETATM    3  C10 UNL     1      22.449   0.726  53.208  1.00  0.00     0.148 C 
HETATM    4  C11 UNL     1      21.862   1.908  52.520  1.00  0.00     0.124 C 
HETATM    5 CL1  UNL     1      20.237   1.855  51.812  1.00  0.00    -0.065 Cl
HETATM    6  N3  UNL     1      22.342   3.086  52.308  1.00  0.00    -0.251 NA
HETATM    7  C12 UNL     1      23.616   3.590  52.693  1.00  0.00     0.120 C 
HETATM    8  C13 UNL     1      24.725   2.844  52.845  1.00  0.00     0.048 C 
ENDROOT
BRANCH   1   9
HETATM    9  N1  UNL     1      26.153   0.866  52.288  1.00  0.00    -0.356 N 
HETATM   10  H5  UNL     1      26.250   1.492  51.464  1.00  0.00     0.166 HD
BRANCH   9  11
HETATM   11  C7  UNL     1      27.099  -0.089  52.683  1.00  0.00     0.046 A 
HETATM   12  C2  UNL     1      28.247   0.179  53.371  1.00  0.00     0.031 A 
HETATM   13  C3  UNL     1      29.183  -0.748  53.761  1.00  0.00     0.059 A 
HETATM   14  C4  UNL     1      28.893  -2.044  53.403  1.00  0.00     0.117 A 
HETATM   15  F1  UNL     1      29.743  -3.045  53.733  1.00  0.00    -0.206 F 
HETATM   16  C5  UNL     1      27.741  -2.336  52.708  1.00  0.00     0.044 A 
HETATM   17  C6  UNL     1      26.818  -1.387  52.328  1.00  0.00     0.033 A 
BRANCH  12  18
HETATM   18  C1  UNL     1      28.556   1.545  53.754  1.00  0.00     0.272 C 
HETATM   19  O1  UNL     1      28.316   2.721  54.049  1.00  0.00    -0.301 OA
ENDBRANCH  12  18
ENDBRANCH   9  11
ENDBRANCH   1   9
BRANCH   3  20
HETATM   20  N2  UNL     1      21.686  -0.439  52.884  1.00  0.00    -0.290 NA
HETATM   21  H8  UNL     1      22.239  -1.019  52.212  1.00  0.00     0.127 HD
BRANCH  20  22
HETATM   22  P1  UNL     1      21.367  -1.424  54.326  1.00  0.00    -0.068 P 
HETATM   23  H9  UNL     1      20.046  -1.305  54.862  1.00  0.00     0.071 HD
HETATM   24  H10 UNL     1      22.349  -1.287  55.363  1.00  0.00     0.071 HD
ENDBRANCH  20  22
ENDBRANCH   3  20
TORSDOF 5
ENDMDL
MODEL 2
REMARK VINA RESULT:      -7.0      2.047      2.546
REMARK  5 active torsions:
REMARK  status: ('A' for Active; 'I' for Inactive)
REMARK    1  A    between atoms: C1_2  and  C2_3 
REMARK    2  A    between atoms: C7_9  and  N1_10 
REMARK    3  A    between atoms: N1_10  and  C8_11 
REMARK    4  A    between atoms: C10_13  and  N2_14 
REMARK    5  A    between atoms: N2_14  and  P1_15 
ROOT
HETATM    1  C8  UNL     1      25.776   2.374  52.123  1.00  0.00     0.032 C 
HETATM    2  C9  UNL     1      24.520   2.809  52.285  1.00  0.00     0.029 C 
HETATM    3  C10 UNL     1      23.707   3.797  51.501  1.00  0.00     0.148 C 
HETATM    4  C11 UNL     1      23.899   3.630  50.035  1.00  0.00     0.124 C 
HETATM    5 CL1  UNL     1      22.529   3.686  48.909  1.00  0.00    -0.065 Cl
HETATM    6  N3  UNL     1      24.967   3.428  49.340  1.00  0.00    -0.251 NA
HETATM    7  C12 UNL     1      26.304   3.309  49.813  1.00  0.00     0.120 C 
HETATM    8  C13 UNL     1      26.653   2.848  51.028  1.00  0.00     0.048 C 
ENDROOT
BRANCH   1   9
HETATM    9  N1  UNL     1      26.265   1.420  53.046  1.00  0.00    -0.356 N 
HETATM   10  H5  UNL     1      25.835   1.886  53.869  1.00  0.00     0.166 HD
BRANCH   9  11
HETATM   11  C7  UNL     1      27.031   0.248  53.102  1.00  0.00     0.046 A 
HETATM   12  C2  UNL     1      28.298   0.160  53.602  1.00  0.00     0.031 A 
HETATM   13  C3  UNL     1      29.060  -0.983  53.660  1.00  0.00     0.059 A 
HETATM   14  C4  UNL     1      28.449  -2.107  53.158  1.00  0.00     0.117 A 
HETATM   15  F1  UNL     1      29.102  -3.293  53.161  1.00  0.00    -0.206 F 
HETATM   16  C5  UNL     1      27.171  -2.041  52.648  1.00  0.00     0.044 A 
HETATM   17  C6  UNL     1      26.428  -0.881  52.601  1.00  0.00     0.033 A 
BRANCH  12  18
HETATM   18  C1  UNL     1      28.947   1.344  54.136  1.00  0.00     0.272 C 
HETATM   19  O1  UNL     1      29.120   2.552  54.326  1.00  0.00    -0.301 OA
ENDBRANCH  12  18
ENDBRANCH   9  11
ENDBRANCH   1   9
BRANCH   3  20
HETATM   20  N2  UNL     1      22.322   3.644  51.820  1.00  0.00    -0.290 NA
HETATM   21  H8  UNL     1      21.758   3.945  50.992  1.00  0.00     0.127 HD
BRANCH  20  22
HETATM   22  P1  UNL     1      21.922   1.950  52.170  1.00  0.00    -0.068 P 
HETATM   23  H9  UNL     1      20.896   1.758  53.149  1.00  0.00     0.071 HD
HETATM   24  H10 UNL     1      23.059   1.124  52.459  1.00  0.00     0.071 HD
ENDBRANCH  20  22
ENDBRANCH   3  20
TORSDOF 5
ENDMDL
MODEL 3
REMARK VINA RESULT:      -6.9      1.979      2.469
REMARK  5 active torsions:
REMARK  status: ('A' for Active; 'I' for Inactive)
REMARK    1  A    between atoms: C1_2  and  C2_3 
REMARK    2  A    between atoms: C7_9  and  N1_10 
REMARK    3  A    between atoms: N1_10  and  C8_11 
REMARK    4  A    between atoms: C10_13  and  N2_14 
REMARK    5  A    between atoms: N2_14  and  P1_15 
ROOT
HETATM    1  C8  UNL     1      24.492   0.916  52.419  1.00  0.00     0.032 C 
HETATM    2  C9  UNL     1      24.093   1.792  51.488  1.00  0.00     0.029 C 
HETATM    3  C10 UNL     1      22.729   2.112  50.951  1.00  0.00     0.148 C 
HETATM    4  C11 UNL     1      21.710   2.168  52.033  1.00  0.00     0.124 C 
HETATM    5 CL1  UNL     1      20.486   3.451  52.087  1.00  0.00    -0.065 Cl
HETATM    6  N3  UNL     1      21.512   1.398  53.049  1.00  0.00    -0.251 NA
HETATM    7  C12 UNL     1      22.250   0.239  53.421  1.00  0.00     0.120 C 
HETATM    8  C13 UNL     1      23.550   0.033  53.144  1.00  0.00     0.048 C 
ENDROOT
BRANCH   1   9
HETATM    9  N1  UNL     1      25.875   0.850  52.710  1.00  0.00    -0.356 N 
HETATM   10  H5  UNL     1      25.997   1.882  52.725  1.00  0.00     0.166 HD
BRANCH   9  11
HETATM   11  C7  UNL     1      26.900  -0.079  52.932  1.00  0.00     0.046 A 
HETATM   12  C2  UNL     1      28.147   0.223  53.400  1.00  0.00     0.031 A 
HETATM   13  C3  UNL     1      29.161  -0.678  53.620  1.00  0.00     0.059 A 
HETATM   14  C4  UNL     1      28.844  -1.984  53.327  1.00  0.00     0.117 A 
HETATM   15  F1  UNL     1      29.763  -2.961  53.503  1.00  0.00    -0.206 F 
HETATM   16  C5  UNL     1      27.592  -2.310  52.853  1.00  0.00     0.044 A 
HETATM   17  C6  UNL     1      26.592  -1.387  52.641  1.00  0.00     0.033 A 
BRANCH  12  18
HETATM   18  C1  UNL     1      28.486   1.599  53.714  1.00  0.00     0.272 C 
HETATM   19  O1  UNL     1      28.301   2.740  54.150  1.00  0.00    -0.301 OA
ENDBRANCH  12  18
ENDBRANCH   9  11
ENDBRANCH   1   9
BRANCH   3  20
HETATM   20  N2  UNL     1      22.762   3.364  50.263  1.00  0.00    -0.290 NA
HETATM   21  H8  UNL     1      22.549   4.123  50.949  1.00  0.00     0.127 HD
BRANCH  20  22
HETATM   22  P1  UNL     1      24.367   3.681  49.573  1.00  0.00    -0.068 P 
HETATM   23  H9  UNL     1      24.888   2.638  48.743  1.00  0.00     0.071 HD
HETATM   24  H10 UNL     1      25.348   4.103  50.531  1.00  0.00     0.071 HD
ENDBRANCH  20  22
ENDBRANCH   3  20
TORSDOF 5
ENDMDL
MODEL 4
REMARK VINA RESULT:      -6.8      4.644      6.912
REMARK  5 active torsions:
REMARK  status: ('A' for Active; 'I' for Inactive)
REMARK    1  A    between atoms: C1_2  and  C2_3 
REMARK    2  A    between atoms: C7_9  and  N1_10 
REMARK    3  A    between atoms: N1_10  and  C8_11 
REMARK    4  A    between atoms: C10_13  and  N2_14 
REMARK    5  A    between atoms: N2_14  and  P1_15 
ROOT
HETATM    1  C8  UNL     1      24.738   0.144  53.480  1.00  0.00     0.032 C 
HETATM    2  C9  UNL     1      25.460   1.091  52.867  1.00  0.00     0.029 C 
HETATM    3  C10 UNL     1      26.697   1.824  53.296  1.00  0.00     0.148 C 
HETATM    4  C11 UNL     1      27.678   0.914  53.948  1.00  0.00     0.124 C 
HETATM    5 CL1  UNL     1      29.411   1.004  53.578  1.00  0.00    -0.065 Cl
HETATM    6  N3  UNL     1      27.512  -0.026  54.815  1.00  0.00    -0.251 NA
HETATM    7  C12 UNL     1      26.293  -0.463  55.404  1.00  0.00     0.120 C 
HETATM    8  C13 UNL     1      25.084  -0.387  54.819  1.00  0.00     0.048 C 
ENDROOT
BRANCH   1   9
HETATM    9  N1  UNL     1      23.602  -0.359  52.803  1.00  0.00    -0.356 N 
HETATM   10  H5  UNL     1      24.107  -1.177  52.410  1.00  0.00     0.166 HD
BRANCH   9  11
HETATM   11  C7  UNL     1      22.248  -0.074  52.582  1.00  0.00     0.046 A 
HETATM   12  C2  UNL     1      21.212  -0.551  53.330  1.00  0.00     0.031 A 
HETATM   13  C3  UNL     1      19.881  -0.281  53.122  1.00  0.00     0.059 A 
HETATM   14  C4  UNL     1      19.622   0.547  52.055  1.00  0.00     0.117 A 
HETATM   15  F1  UNL     1      18.347   0.884  51.752  1.00  0.00    -0.206 F 
HETATM   16  C5  UNL     1      20.653   1.040  51.286  1.00  0.00     0.044 A 
HETATM   17  C6  UNL     1      21.981   0.753  51.516  1.00  0.00     0.033 A 
BRANCH  12  18
HETATM   18  C1  UNL     1      21.479  -1.423  54.460  1.00  0.00     0.272 C 
HETATM   19  O1  UNL     1      22.160  -1.959  55.341  1.00  0.00    -0.301 OA
ENDBRANCH  12  18
ENDBRANCH   9  11
ENDBRANCH   1   9
BRANCH   3  20
HETATM   20  N2  UNL     1      27.306   2.447  52.164  1.00  0.00    -0.290 NA
HETATM   21  H8  UNL     1      28.033   1.800  51.782  1.00  0.00     0.127 HD
BRANCH  20  22
HETATM   22  P1  UNL     1      26.119   2.759  50.881  1.00  0.00    -0.068 P 
HETATM   23  H9  UNL     1      25.595   4.090  50.849  1.00  0.00     0.071 HD
HETATM   24  H10 UNL     1      25.059   1.795  50.812  1.00  0.00     0.071 HD
ENDBRANCH  20  22
ENDBRANCH   3  20
TORSDOF 5
ENDMDL
MODEL 5
REMARK VINA RESULT:      -6.8      2.052      2.518
REMARK  5 active torsions:
REMARK  status: ('A' for Active; 'I' for Inactive)
REMARK    1  A    between atoms: C1_2  and  C2_3 
REMARK    2  A    between atoms: C7_9  and  N1_10 
REMARK    3  A    between atoms: N1_10  and  C8_11 
REMARK    4  A    between atoms: C10_13  and  N2_14 
REMARK    5  A    between atoms: N2_14  and  P1_15 
ROOT
HETATM    1  C8  UNL     1      24.342   2.499  52.984  1.00  0.00     0.032 C 
HETATM    2  C9  UNL     1      23.478   1.477  53.025  1.00  0.00     0.029 C 
HETATM    3  C10 UNL     1      22.161   1.267  52.338  1.00  0.00     0.148 C 
HETATM    4  C11 UNL     1      22.201   1.716  50.919  1.00  0.00     0.124 C 
HETATM    5 CL1  UNL     1      21.475   0.749  49.621  1.00  0.00    -0.065 Cl
HETATM    6  N3  UNL     1      22.711   2.772  50.381  1.00  0.00    -0.251 NA
HETATM    7  C12 UNL     1      23.399   3.835  51.030  1.00  0.00     0.120 C 
HETATM    8  C13 UNL     1      24.110   3.712  52.166  1.00  0.00     0.048 C 
ENDROOT
BRANCH   1   9
HETATM    9  N1  UNL     1      25.520   2.396  53.760  1.00  0.00    -0.356 N 
HETATM   10  H5  UNL     1      25.211   3.102  54.457  1.00  0.00     0.166 HD
BRANCH   9  11
HETATM   11  C7  UNL     1      26.743   1.715  53.801  1.00  0.00     0.046 A 
HETATM   12  C2  UNL     1      26.931   0.466  54.320  1.00  0.00     0.031 A 
HETATM   13  C3  UNL     1      28.126  -0.211  54.369  1.00  0.00     0.059 A 
HETATM   14  C4  UNL     1      29.195   0.470  53.836  1.00  0.00     0.117 A 
HETATM   15  F1  UNL     1      30.424  -0.096  53.828  1.00  0.00    -0.206 F 
HETATM   16  C5  UNL     1      29.028   1.731  53.308  1.00  0.00     0.044 A 
HETATM   17  C6  UNL     1      27.818   2.389  53.272  1.00  0.00     0.033 A 
BRANCH  12  18
HETATM   18  C1  UNL     1      25.805  -0.259  54.881  1.00  0.00     0.272 C 
HETATM   19  O1  UNL     1      25.238  -1.141  55.535  1.00  0.00    -0.301 OA
ENDBRANCH  12  18
ENDBRANCH   9  11
ENDBRANCH   1   9
BRANCH   3  20
HETATM   20  N2  UNL     1      21.803  -0.115  52.389  1.00  0.00    -0.290 NA
HETATM   21  H8  UNL     1      22.572  -0.672  51.950  1.00  0.00     0.127 HD
BRANCH  20  22
HETATM   22  P1  UNL     1      21.610  -0.671  54.064  1.00  0.00    -0.068 P 
HETATM   23  H9  UNL     1      20.769  -1.818  54.230  1.00  0.00     0.071 HD
HETATM   24  H10 UNL     1      21.246   0.362  54.990  1.00  0.00     0.071 HD
ENDBRANCH  20  22
ENDBRANCH   3  20
TORSDOF 5
ENDMDL
MODEL 6
REMARK VINA RESULT:      -6.8      4.551      6.691
REMARK  5 active torsions:
REMARK  status: ('A' for Active; 'I' for Inactive)
REMARK    1  A    between atoms: C1_2  and  C2_3 
REMARK    2  A    between atoms: C7_9  and  N1_10 
REMARK    3  A    between atoms: N1_10  and  C8_11 
REMARK    4  A    between atoms: C10_13  and  N2_14 
REMARK    5  A    between atoms: N2_14  and  P1_15 
ROOT
HETATM    1  C8  UNL     1      24.957   0.198  52.618  1.00  0.00     0.032 C 
HETATM    2  C9  UNL     1      26.071  -0.265  53.199  1.00  0.00     0.029 C 
HETATM    3  C10 UNL     1      27.507   0.141  53.049  1.00  0.00     0.148 C 
HETATM    4  C11 UNL     1      27.659   1.620  52.990  1.00  0.00     0.124 C 
HETATM    5 CL1  UNL     1      28.943   2.456  53.883  1.00  0.00    -0.065 Cl
HETATM    6  N3  UNL     1      26.976   2.515  52.360  1.00  0.00    -0.251 NA
HETATM    7  C12 UNL     1      25.847   2.316  51.516  1.00  0.00     0.120 C 
HETATM    8  C13 UNL     1      24.969   1.303  51.632  1.00  0.00     0.048 C 
ENDROOT
BRANCH   1   9
HETATM    9  N1  UNL     1      23.729  -0.405  52.976  1.00  0.00    -0.356 N 
HETATM   10  H5  UNL     1      24.177  -1.165  53.525  1.00  0.00     0.166 HD
BRANCH   9  11
HETATM   11  C7  UNL     1      22.347  -0.255  52.800  1.00  0.00     0.046 A 
HETATM   12  C2  UNL     1      21.390  -0.744  53.642  1.00  0.00     0.031 A 
HETATM   13  C3  UNL     1      20.032  -0.605  53.479  1.00  0.00     0.059 A 
HETATM   14  C4  UNL     1      19.656   0.094  52.357  1.00  0.00     0.117 A 
HETATM   15  F1  UNL     1      18.344   0.295  52.091  1.00  0.00    -0.206 F 
HETATM   16  C5  UNL     1      20.605   0.596  51.494  1.00  0.00     0.044 A 
HETATM   17  C6  UNL     1      21.962   0.442  51.680  1.00  0.00     0.033 A 
BRANCH  12  18
HETATM   18  C1  UNL     1      21.782  -1.481  54.830  1.00  0.00     0.272 C 
HETATM   19  O1  UNL     1      22.552  -1.897  55.702  1.00  0.00    -0.301 OA
ENDBRANCH  12  18
ENDBRANCH   9  11
ENDBRANCH   1   9
BRANCH   3  20
HETATM   20  N2  UNL     1      28.272  -0.372  54.142  1.00  0.00    -0.290 NA
HETATM   21  H8  UNL     1      27.685  -1.067  54.658  1.00  0.00     0.127 HD
BRANCH  20  22
HETATM   22  P1  UNL     1      29.735  -1.202  53.575  1.00  0.00    -0.068 P 
HETATM   23  H9  UNL     1      30.749  -1.391  54.567  1.00  0.00     0.071 HD
HETATM   24  H10 UNL     1      30.297  -0.652  52.375  1.00  0.00     0.071 HD
ENDBRANCH  20  22
ENDBRANCH   3  20
TORSDOF 5
ENDMDL
MODEL 7
REMARK VINA RESULT:      -6.7      4.572      6.874
REMARK  5 active torsions:
REMARK  status: ('A' for Active; 'I' for Inactive)
REMARK    1  A    between atoms: C1_2  and  C2_3 
REMARK    2  A    between atoms: C7_9  and  N1_10 
REMARK    3  A    between atoms: N1_10  and  C8_11 
REMARK    4  A    between atoms: C10_13  and  N2_14 
REMARK    5  A    between atoms: N2_14  and  P1_15 
ROOT
HETATM    1  C8  UNL     1      25.589   0.154  53.403  1.00  0.00     0.032 C 
HETATM    2  C9  UNL     1      26.575   0.724  54.108  1.00  0.00     0.029 C 
HETATM    3  C10 UNL     1      27.836   0.152  54.686  1.00  0.00     0.148 C 
HETATM    4  C11 UNL     1      28.497  -0.790  53.741  1.00  0.00     0.124 C 
HETATM    5 CL1  UNL     1      30.252  -0.764  53.485  1.00  0.00    -0.065 Cl
HETATM    6  N3  UNL     1      28.006  -1.716  52.990  1.00  0.00    -0.251 NA
HETATM    7  C12 UNL     1      26.643  -2.101  52.860  1.00  0.00     0.120 C 
HETATM    8  C13 UNL     1      25.591  -1.282  53.040  1.00  0.00     0.048 C 
ENDROOT
BRANCH   1   9
HETATM    9  N1  UNL     1      24.513   0.976  52.994  1.00  0.00    -0.356 N 
HETATM   10  H5  UNL     1      24.785   1.766  53.612  1.00  0.00     0.166 HD
BRANCH   9  11
HETATM   11  C7  UNL     1      23.404   0.977  52.138  1.00  0.00     0.046 A 
HETATM   12  C2  UNL     1      22.235   0.311  52.366  1.00  0.00     0.031 A 
HETATM   13  C3  UNL     1      21.141   0.302  51.533  1.00  0.00     0.059 A 
HETATM   14  C4  UNL     1      21.287   1.042  50.384  1.00  0.00     0.117 A 
HETATM   15  F1  UNL     1      20.276   1.109  49.487  1.00  0.00    -0.206 F 
HETATM   16  C5  UNL     1      22.459   1.722  50.134  1.00  0.00     0.044 A 
HETATM   17  C6  UNL     1      23.542   1.714  50.986  1.00  0.00     0.033 A 
BRANCH  12  18
HETATM   18  C1  UNL     1      22.074  -0.471  53.579  1.00  0.00     0.272 C 
HETATM   19  O1  UNL     1      22.228  -0.756  54.771  1.00  0.00    -0.301 OA
ENDBRANCH  12  18
ENDBRANCH   9  11
ENDBRANCH   1   9
BRANCH   3  20
HETATM   20  N2  UNL     1      28.740   1.209  55.014  1.00  0.00    -0.290 NA
HETATM   21  H8  UNL     1      29.695   0.800  55.136  1.00  0.00     0.127 HD
BRANCH  20  22
HETATM   22  P1  UNL     1      28.823   2.415  53.714  1.00  0.00    -0.068 P 
HETATM   23  H9  UNL     1      30.105   3.025  53.531  1.00  0.00     0.071 HD
HETATM   24  H10 UNL     1      27.791   3.411  53.767  1.00  0.00     0.071 HD
ENDBRANCH  20  22
ENDBRANCH   3  20
TORSDOF 5
ENDMDL
MODEL 8
REMARK VINA RESULT:      -6.6      4.476      6.542
REMARK  5 active torsions:
REMARK  status: ('A' for Active; 'I' for Inactive)
REMARK    1  A    between atoms: C1_2  and  C2_3 
REMARK    2  A    between atoms: C7_9  and  N1_10 
REMARK    3  A    between atoms: N1_10  and  C8_11 
REMARK    4  A    between atoms: C10_13  and  N2_14 
REMARK    5  A    between atoms: N2_14  and  P1_15 
ROOT
HETATM    1  C8  UNL     1      25.611   0.475  53.263  1.00  0.00     0.032 C 
HETATM    2  C9  UNL     1      26.626   0.936  54.005  1.00  0.00     0.029 C 
HETATM    3  C10 UNL     1      27.773   0.227  54.662  1.00  0.00     0.148 C 
HETATM    4  C11 UNL     1      28.352  -0.821  53.778  1.00  0.00     0.124 C 
HETATM    5 CL1  UNL     1      30.106  -1.029  53.614  1.00  0.00    -0.065 Cl
HETATM    6  N3  UNL     1      27.782  -1.701  53.026  1.00  0.00    -0.251 NA
HETATM    7  C12 UNL     1      26.389  -1.913  52.834  1.00  0.00     0.120 C 
HETATM    8  C13 UNL     1      25.444  -0.960  52.938  1.00  0.00     0.048 C 
ENDROOT
BRANCH   1   9
HETATM    9  N1  UNL     1      24.672   1.415  52.777  1.00  0.00    -0.356 N 
HETATM   10  H5  UNL     1      24.558   1.887  53.695  1.00  0.00     0.166 HD
BRANCH   9  11
HETATM   11  C7  UNL     1      24.000   1.779  51.603  1.00  0.00     0.046 A 
HETATM   12  C2  UNL     1      24.496   2.607  50.637  1.00  0.00     0.031 A 
HETATM   13  C3  UNL     1      23.846   2.973  49.483  1.00  0.00     0.059 A 
HETATM   14  C4  UNL     1      22.590   2.434  49.334  1.00  0.00     0.117 A 
HETATM   15  F1  UNL     1      21.853   2.723  48.237  1.00  0.00    -0.206 F 
HETATM   16  C5  UNL     1      22.070   1.597  50.297  1.00  0.00     0.044 A 
HETATM   17  C6  UNL     1      22.743   1.245  51.446  1.00  0.00     0.033 A 
BRANCH  12  18
HETATM   18  C1  UNL     1      25.823   3.177  50.788  1.00  0.00     0.272 C 
HETATM   19  O1  UNL     1      27.044   3.263  50.621  1.00  0.00    -0.301 OA
ENDBRANCH  12  18
ENDBRANCH   9  11
ENDBRANCH   1   9
BRANCH   3  20
HETATM   20  N2  UNL     1      28.789   1.169  55.010  1.00  0.00    -0.290 NA
HETATM   21  H8  UNL     1      29.692   0.655  55.122  1.00  0.00     0.127 HD
BRANCH  20  22
HETATM   22  P1  UNL     1      29.005   2.387  53.736  1.00  0.00    -0.068 P 
HETATM   23  H9  UNL     1      29.257   3.716  54.202  1.00  0.00     0.071 HD
HETATM   24  H10 UNL     1      27.973   2.386  52.739  1.00  0.00     0.071 HD
ENDBRANCH  20  22
ENDBRANCH   3  20
TORSDOF 5
ENDMDL
MODEL 9
REMARK VINA RESULT:      -6.6      2.198      2.844
REMARK  5 active torsions:
REMARK  status: ('A' for Active; 'I' for Inactive)
REMARK    1  A    between atoms: C1_2  and  C2_3 
REMARK    2  A    between atoms: C7_9  and  N1_10 
REMARK    3  A    between atoms: N1_10  and  C8_11 
REMARK    4  A    between atoms: C10_13  and  N2_14 
REMARK    5  A    between atoms: N2_14  and  P1_15 
ROOT
HETATM    1  C8  UNL     1      23.667   0.740  52.408  1.00  0.00     0.032 C 
HETATM    2  C9  UNL     1      22.713   0.423  53.293  1.00  0.00     0.029 C 
HETATM    3  C10 UNL     1      21.267   0.817  53.373  1.00  0.00     0.148 C 
HETATM    4  C11 UNL     1      20.614   0.792  52.037  1.00  0.00     0.124 C 
HETATM    5 CL1  UNL     1      18.995   0.105  51.810  1.00  0.00    -0.065 Cl
HETATM    6  N3  UNL     1      21.025   1.208  50.887  1.00  0.00    -0.251 NA
HETATM    7  C12 UNL     1      22.268   1.829  50.579  1.00  0.00     0.120 C 
HETATM    8  C13 UNL     1      23.418   1.622  51.245  1.00  0.00     0.048 C 
ENDROOT
BRANCH   1   9
HETATM    9  N1  UNL     1      24.957   0.197  52.609  1.00  0.00    -0.356 N 
HETATM   10  H5  UNL     1      24.692  -0.750  52.275  1.00  0.00     0.166 HD
BRANCH   9  11
HETATM   11  C7  UNL     1      26.235   0.557  53.059  1.00  0.00     0.046 A 
HETATM   12  C2  UNL     1      27.290  -0.298  53.193  1.00  0.00     0.031 A 
HETATM   13  C3  UNL     1      28.546   0.042  53.635  1.00  0.00     0.059 A 
HETATM   14  C4  UNL     1      28.703   1.369  53.957  1.00  0.00     0.117 A 
HETATM   15  F1  UNL     1      29.897   1.822  54.404  1.00  0.00    -0.206 F 
HETATM   16  C5  UNL     1      27.650   2.249  53.829  1.00  0.00     0.044 A 
HETATM   17  C6  UNL     1      26.400   1.882  53.384  1.00  0.00     0.033 A 
BRANCH  12  18
HETATM   18  C1  UNL     1      27.131  -1.700  52.852  1.00  0.00     0.272 C 
HETATM   19  O1  UNL     1      27.391  -2.762  52.276  1.00  0.00    -0.301 OA
ENDBRANCH  12  18
ENDBRANCH   9  11
ENDBRANCH   1   9
BRANCH   3  20
HETATM   20  N2  UNL     1      20.574  -0.065  54.258  1.00  0.00    -0.290 NA
HETATM   21  H8  UNL     1      19.637  -0.276  53.846  1.00  0.00     0.127 HD
BRANCH  20  22
HETATM   22  P1  UNL     1      21.445  -1.599  54.455  1.00  0.00    -0.068 P 
HETATM   23  H9  UNL     1      21.714  -1.975  55.809  1.00  0.00     0.071 HD
HETATM   24  H10 UNL     1      22.629  -1.712  53.653  1.00  0.00     0.071 HD
ENDBRANCH  20  22
ENDBRANCH   3  20
TORSDOF 5
ENDMDL
