MODEL 1
REMARK VINA RESULT:      -8.3      0.000      0.000
REMARK  6 active torsions:
REMARK  status: ('A' for Active; 'I' for Inactive)
REMARK    1  A    between atoms: C7_7  and  C8_8 
REMARK    2  A    between atoms: C8_8  and  C9_9 
REMARK    3  A    between atoms: C8_8  and  N1_11 
REMARK    4  A    between atoms: C9_9  and  O1_10 
REMARK    5  A    between atoms: N1_11  and  C10_12 
REMARK    6  A    between atoms: N4_23  and  C18_24 
ROOT
HETATM    1  C10 UNL     1      23.983   1.184  53.117  1.00  0.00     0.139 A 
HETATM    2  N2  UNL     1      23.897  -0.106  53.334  1.00  0.00    -0.224 NA
HETATM    3  C11 UNL     1      22.848  -0.885  53.120  1.00  0.00     0.236 A 
HETATM    4  N3  UNL     1      21.790  -0.223  52.629  1.00  0.00    -0.234 NA
HETATM    5  C12 UNL     1      21.825   1.085  52.390  1.00  0.00     0.114 A 
HETATM    6  S1  UNL     1      20.588   2.286  51.734  1.00  0.00    -0.072 SA
HETATM    7  C13 UNL     1      21.648   3.741  51.822  1.00  0.00     0.010 A 
HETATM    8  C14 UNL     1      22.903   3.242  52.351  1.00  0.00    -0.025 A 
HETATM    9  C15 UNL     1      22.944   1.913  52.618  1.00  0.00     0.053 A 
HETATM   10  C16 UNL     1      23.682   4.477  52.385  1.00  0.00     0.060 C 
HETATM   11  C17 UNL     1      23.677   5.125  50.987  1.00  0.00     0.130 C 
HETATM   12  N4  UNL     1      22.402   5.705  50.694  1.00  0.00    -0.354 N 
HETATM   13  C19 UNL     1      21.322   5.098  51.451  1.00  0.00     0.171 C 
ENDROOT
BRANCH   1  14
HETATM   14  N1  UNL     1      25.263   1.641  53.442  1.00  0.00    -0.363 N 
HETATM   15  H12 UNL     1      25.317   1.975  54.401  1.00  0.00     0.162 HD
BRANCH  14  16
HETATM   16  C8  UNL     1      26.580   1.801  52.881  1.00  0.00     0.140 C 
BRANCH  16  17
HETATM   17  C7  UNL     1      27.487   0.658  53.040  1.00  0.00    -0.028 A 
HETATM   18  C2  UNL     1      28.740   0.966  53.556  1.00  0.00    -0.054 A 
HETATM   19  C1  UNL     1      29.147   2.334  53.936  1.00  0.00     0.049 C 
HETATM   20  C3  UNL     1      29.675  -0.066  53.742  1.00  0.00     0.007 A 
HETATM   21  C4  UNL     1      29.436  -1.389  53.446  1.00  0.00     0.001 A 
HETATM   22  C5  UNL     1      28.197  -1.677  52.938  1.00  0.00     0.001 A 
HETATM   23  C6  UNL     1      27.293  -0.667  52.760  1.00  0.00     0.010 A 
ENDBRANCH  16  17
BRANCH  16  24
HETATM   24  C9  UNL     1      26.379   2.086  51.369  1.00  0.00     0.194 C 
BRANCH  24  25
HETATM   25  O1  UNL     1      27.051   3.267  51.076  1.00  0.00    -0.399 OA
HETATM   26  H11 UNL     1      26.869   3.463  50.113  1.00  0.00     0.209 HD
ENDBRANCH  24  25
ENDBRANCH  16  24
ENDBRANCH  14  16
ENDBRANCH   1  14
BRANCH  12  27
HETATM   27  C18 UNL     1      22.236   6.758  49.763  1.00  0.00     0.351 C 
HETATM   28  O2  UNL     1      22.252   7.972  50.072  1.00  0.00    -0.284 OA
ENDBRANCH  12  27
TORSDOF 6
ENDMDL
MODEL 2
REMARK VINA RESULT:      -8.2      2.696      6.168
REMARK  6 active torsions:
REMARK  status: ('A' for Active; 'I' for Inactive)
REMARK    1  A    between atoms: C7_7  and  C8_8 
REMARK    2  A    between atoms: C8_8  and  C9_9 
REMARK    3  A    between atoms: C8_8  and  N1_11 
REMARK    4  A    between atoms: C9_9  and  O1_10 
REMARK    5  A    between atoms: N1_11  and  C10_12 
REMARK    6  A    between atoms: N4_23  and  C18_24 
ROOT
HETATM    1  C10 UNL     1      22.648   2.603  51.797  1.00  0.00     0.139 A 
HETATM    2  N2  UNL     1      21.363   2.861  51.815  1.00  0.00    -0.224 NA
HETATM    3  C11 UNL     1      20.418   2.176  52.439  1.00  0.00     0.236 A 
HETATM    4  N3  UNL     1      20.889   1.113  53.107  1.00  0.00    -0.234 NA
HETATM    5  C12 UNL     1      22.183   0.807  53.122  1.00  0.00     0.114 A 
HETATM    6  S1  UNL     1      23.156  -0.546  53.915  1.00  0.00    -0.072 SA
HETATM    7  C13 UNL     1      24.770  -0.025  53.303  1.00  0.00     0.010 A 
HETATM    8  C14 UNL     1      24.491   1.162  52.517  1.00  0.00    -0.025 A 
HETATM    9  C15 UNL     1      23.190   1.539  52.456  1.00  0.00     0.053 A 
HETATM   10  C16 UNL     1      25.840   1.502  52.070  1.00  0.00     0.060 C 
HETATM   11  C17 UNL     1      26.768   1.628  53.294  1.00  0.00     0.130 C 
HETATM   12  N4  UNL     1      27.064   0.343  53.849  1.00  0.00    -0.354 N 
HETATM   13  C19 UNL     1      26.049  -0.649  53.539  1.00  0.00     0.171 C 
ENDROOT
BRANCH   1  14
HETATM   14  N1  UNL     1      23.323   3.572  51.050  1.00  0.00    -0.363 N 
HETATM   15  H12 UNL     1      23.929   4.148  51.630  1.00  0.00     0.162 HD
BRANCH  14  16
HETATM   16  C8  UNL     1      23.476   4.052  49.701  1.00  0.00     0.140 C 
BRANCH  16  17
HETATM   17  C7  UNL     1      24.817   4.523  49.336  1.00  0.00    -0.028 A 
HETATM   18  C2  UNL     1      24.876   5.826  48.857  1.00  0.00    -0.054 A 
HETATM   19  C1  UNL     1      23.691   6.696  48.727  1.00  0.00     0.049 C 
HETATM   20  C3  UNL     1      26.120   6.361  48.483  1.00  0.00     0.007 A 
HETATM   21  C4  UNL     1      27.311   5.675  48.560  1.00  0.00     0.001 A 
HETATM   22  C5  UNL     1      27.238   4.392  49.035  1.00  0.00     0.001 A 
HETATM   23  C6  UNL     1      26.023   3.879  49.396  1.00  0.00     0.010 A 
ENDBRANCH  16  17
BRANCH  16  24
HETATM   24  C9  UNL     1      23.078   2.875  48.771  1.00  0.00     0.194 C 
BRANCH  24  25
HETATM   25  O1  UNL     1      21.704   2.950  48.572  1.00  0.00    -0.399 OA
HETATM   26  H11 UNL     1      21.320   2.107  48.947  1.00  0.00     0.209 HD
ENDBRANCH  24  25
ENDBRANCH  16  24
ENDBRANCH  14  16
ENDBRANCH   1  14
BRANCH  12  27
HETATM   27  C18 UNL     1      28.226   0.089  54.616  1.00  0.00     0.351 C 
HETATM   28  O2  UNL     1      28.892   0.980  55.190  1.00  0.00    -0.284 OA
ENDBRANCH  12  27
TORSDOF 6
ENDMDL
MODEL 3
REMARK VINA RESULT:      -8.0      2.326      4.330
REMARK  6 active torsions:
REMARK  status: ('A' for Active; 'I' for Inactive)
REMARK    1  A    between atoms: C7_7  and  C8_8 
REMARK    2  A    between atoms: C8_8  and  C9_9 
REMARK    3  A    between atoms: C8_8  and  N1_11 
REMARK    4  A    between atoms: C9_9  and  O1_10 
REMARK    5  A    between atoms: N1_11  and  C10_12 
REMARK    6  A    between atoms: N4_23  and  C18_24 
ROOT
HETATM    1  C10 UNL     1      23.920   3.704  52.029  1.00  0.00     0.139 A 
HETATM    2  N2  UNL     1      24.147   4.974  51.800  1.00  0.00    -0.224 NA
HETATM    3  C11 UNL     1      23.270   5.887  51.412  1.00  0.00     0.236 A 
HETATM    4  N3  UNL     1      22.033   5.395  51.254  1.00  0.00    -0.234 NA
HETATM    5  C12 UNL     1      21.748   4.115  51.473  1.00  0.00     0.114 A 
HETATM    6  S1  UNL     1      20.196   3.124  51.356  1.00  0.00    -0.072 SA
HETATM    7  C13 UNL     1      20.920   1.550  51.855  1.00  0.00     0.010 A 
HETATM    8  C14 UNL     1      22.318   1.853  52.089  1.00  0.00    -0.025 A 
HETATM    9  C15 UNL     1      22.685   3.143  51.887  1.00  0.00     0.053 A 
HETATM   10  C16 UNL     1      22.811   0.536  52.481  1.00  0.00     0.060 C 
HETATM   11  C17 UNL     1      21.966   0.001  53.655  1.00  0.00     0.130 C 
HETATM   12  N4  UNL     1      20.665  -0.398  53.211  1.00  0.00    -0.354 N 
HETATM   13  C19 UNL     1      20.258   0.274  51.990  1.00  0.00     0.171 C 
ENDROOT
BRANCH   1  14
HETATM   14  N1  UNL     1      25.095   3.073  52.448  1.00  0.00    -0.363 N 
HETATM   15  H12 UNL     1      25.028   2.737  53.406  1.00  0.00     0.162 HD
BRANCH  14  16
HETATM   16  C8  UNL     1      26.409   2.710  51.981  1.00  0.00     0.140 C 
BRANCH  16  17
HETATM   17  C7  UNL     1      26.863   1.360  52.334  1.00  0.00    -0.028 A 
HETATM   18  C2  UNL     1      27.998   1.308  53.133  1.00  0.00    -0.054 A 
HETATM   19  C1  UNL     1      28.705   2.512  53.615  1.00  0.00     0.049 C 
HETATM   20  C3  UNL     1      28.506   0.056  53.520  1.00  0.00     0.007 A 
HETATM   21  C4  UNL     1      27.948  -1.149  53.159  1.00  0.00     0.001 A 
HETATM   22  C5  UNL     1      26.829  -1.083  52.371  1.00  0.00     0.001 A 
HETATM   23  C6  UNL     1      26.342   0.139  51.999  1.00  0.00     0.010 A 
ENDBRANCH  16  17
BRANCH  16  24
HETATM   24  C9  UNL     1      26.376   2.850  50.436  1.00  0.00     0.194 C 
BRANCH  24  25
HETATM   25  O1  UNL     1      27.226   3.897  50.097  1.00  0.00    -0.399 OA
HETATM   26  H11 UNL     1      27.984   3.490  49.588  1.00  0.00     0.209 HD
ENDBRANCH  24  25
ENDBRANCH  16  24
ENDBRANCH  14  16
ENDBRANCH   1  14
BRANCH  12  27
HETATM   27  C18 UNL     1      19.879  -1.349  53.904  1.00  0.00     0.351 C 
HETATM   28  O2  UNL     1      18.702  -1.644  53.590  1.00  0.00    -0.284 OA
ENDBRANCH  12  27
TORSDOF 6
ENDMDL
MODEL 4
REMARK VINA RESULT:      -7.6      2.607      5.750
REMARK  6 active torsions:
REMARK  status: ('A' for Active; 'I' for Inactive)
REMARK    1  A    between atoms: C7_7  and  C8_8 
REMARK    2  A    between atoms: C8_8  and  C9_9 
REMARK    3  A    between atoms: C8_8  and  N1_11 
REMARK    4  A    between atoms: C9_9  and  O1_10 
REMARK    5  A    between atoms: N1_11  and  C10_12 
REMARK    6  A    between atoms: N4_23  and  C18_24 
ROOT
HETATM    1  C10 UNL     1      25.088   1.271  52.911  1.00  0.00     0.139 A 
HETATM    2  N2  UNL     1      26.290   0.884  53.261  1.00  0.00    -0.224 NA
HETATM    3  C11 UNL     1      26.608  -0.164  54.006  1.00  0.00     0.236 A 
HETATM    4  N3  UNL     1      25.540  -0.864  54.416  1.00  0.00    -0.234 NA
HETATM    5  C12 UNL     1      24.299  -0.515  54.088  1.00  0.00     0.114 A 
HETATM    6  S1  UNL     1      22.641  -1.228  54.467  1.00  0.00    -0.072 SA
HETATM    7  C13 UNL     1      21.678  -0.005  53.556  1.00  0.00     0.010 A 
HETATM    8  C14 UNL     1      22.671   0.896  53.004  1.00  0.00    -0.025 A 
HETATM    9  C15 UNL     1      23.963   0.602  53.294  1.00  0.00     0.053 A 
HETATM   10  C16 UNL     1      21.806   1.836  52.296  1.00  0.00     0.060 C 
HETATM   11  C17 UNL     1      20.891   1.062  51.327  1.00  0.00     0.130 C 
HETATM   12  N4  UNL     1      19.871   0.353  52.039  1.00  0.00    -0.354 N 
HETATM   13  C19 UNL     1      20.244   0.063  53.412  1.00  0.00     0.171 C 
ENDROOT
BRANCH   1  14
HETATM   14  N1  UNL     1      25.166   2.406  52.100  1.00  0.00    -0.363 N 
HETATM   15  H12 UNL     1      25.464   3.228  52.619  1.00  0.00     0.162 HD
BRANCH  14  16
HETATM   16  C8  UNL     1      24.978   2.834  50.737  1.00  0.00     0.140 C 
BRANCH  16  17
HETATM   17  C7  UNL     1      24.080   3.979  50.544  1.00  0.00    -0.028 A 
HETATM   18  C2  UNL     1      23.166   3.844  49.506  1.00  0.00    -0.054 A 
HETATM   19  C1  UNL     1      23.077   2.640  48.656  1.00  0.00     0.049 C 
HETATM   20  C3  UNL     1      22.266   4.892  49.248  1.00  0.00     0.007 A 
HETATM   21  C4  UNL     1      22.222   6.067  49.962  1.00  0.00     0.001 A 
HETATM   22  C5  UNL     1      23.128   6.186  50.982  1.00  0.00     0.001 A 
HETATM   23  C6  UNL     1      24.001   5.162  51.227  1.00  0.00     0.010 A 
ENDBRANCH  16  17
BRANCH  16  24
HETATM   24  C9  UNL     1      26.387   3.194  50.194  1.00  0.00     0.194 C 
BRANCH  24  25
HETATM   25  O1  UNL     1      27.266   3.159  51.271  1.00  0.00    -0.399 OA
HETATM   26  H11 UNL     1      27.182   2.248  51.673  1.00  0.00     0.209 HD
ENDBRANCH  24  25
ENDBRANCH  16  24
ENDBRANCH  14  16
ENDBRANCH   1  14
BRANCH  12  27
HETATM   27  C18 UNL     1      18.640  -0.015  51.447  1.00  0.00     0.351 C 
HETATM   28  O2  UNL     1      18.160   0.538  50.431  1.00  0.00    -0.284 OA
ENDBRANCH  12  27
TORSDOF 6
ENDMDL
MODEL 5
REMARK VINA RESULT:      -7.5      2.246      6.524
REMARK  6 active torsions:
REMARK  status: ('A' for Active; 'I' for Inactive)
REMARK    1  A    between atoms: C7_7  and  C8_8 
REMARK    2  A    between atoms: C8_8  and  C9_9 
REMARK    3  A    between atoms: C8_8  and  N1_11 
REMARK    4  A    between atoms: C9_9  and  O1_10 
REMARK    5  A    between atoms: N1_11  and  C10_12 
REMARK    6  A    between atoms: N4_23  and  C18_24 
ROOT
HETATM    1  C10 UNL     1      22.446   2.222  51.937  1.00  0.00     0.139 A 
HETATM    2  N2  UNL     1      21.147   2.398  51.955  1.00  0.00    -0.224 NA
HETATM    3  C11 UNL     1      20.252   1.686  52.622  1.00  0.00     0.236 A 
HETATM    4  N3  UNL     1      20.796   0.692  53.338  1.00  0.00    -0.234 NA
HETATM    5  C12 UNL     1      22.107   0.469  53.355  1.00  0.00     0.114 A 
HETATM    6  S1  UNL     1      23.170  -0.777  54.204  1.00  0.00    -0.072 SA
HETATM    7  C13 UNL     1      24.743  -0.186  53.549  1.00  0.00     0.010 A 
HETATM    8  C14 UNL     1      24.383   0.939  52.708  1.00  0.00    -0.025 A 
HETATM    9  C15 UNL     1      23.060   1.229  52.642  1.00  0.00     0.053 A 
HETATM   10  C16 UNL     1      25.703   1.342  52.230  1.00  0.00     0.060 C 
HETATM   11  C17 UNL     1      26.631   1.589  53.436  1.00  0.00     0.130 C 
HETATM   12  N4  UNL     1      27.012   0.355  54.052  1.00  0.00    -0.354 N 
HETATM   13  C19 UNL     1      26.062  -0.714  53.802  1.00  0.00     0.171 C 
ENDROOT
BRANCH   1  14
HETATM   14  N1  UNL     1      23.051   3.193  51.135  1.00  0.00    -0.363 N 
HETATM   15  H12 UNL     1      22.879   3.033  50.145  1.00  0.00     0.162 HD
BRANCH  14  16
HETATM   16  C8  UNL     1      23.852   4.388  51.220  1.00  0.00     0.140 C 
BRANCH  16  17
HETATM   17  C7  UNL     1      23.751   5.309  50.082  1.00  0.00    -0.028 A 
HETATM   18  C2  UNL     1      24.899   5.416  49.306  1.00  0.00    -0.054 A 
HETATM   19  C1  UNL     1      26.136   4.658  49.579  1.00  0.00     0.049 C 
HETATM   20  C3  UNL     1      24.894   6.276  48.195  1.00  0.00     0.007 A 
HETATM   21  C4  UNL     1      23.813   7.035  47.809  1.00  0.00     0.001 A 
HETATM   22  C5  UNL     1      22.689   6.919  48.583  1.00  0.00     0.001 A 
HETATM   23  C6  UNL     1      22.702   6.080  49.663  1.00  0.00     0.010 A 
ENDBRANCH  16  17
BRANCH  16  24
HETATM   24  C9  UNL     1      23.403   5.121  52.512  1.00  0.00     0.194 C 
BRANCH  24  25
HETATM   25  O1  UNL     1      24.274   6.189  52.706  1.00  0.00    -0.399 OA
HETATM   26  H11 UNL     1      24.949   6.137  51.971  1.00  0.00     0.209 HD
ENDBRANCH  24  25
ENDBRANCH  16  24
ENDBRANCH  14  16
ENDBRANCH   1  14
BRANCH  12  27
HETATM   27  C18 UNL     1      28.194   0.214  54.818  1.00  0.00     0.351 C 
HETATM   28  O2  UNL     1      28.969   1.162  55.087  1.00  0.00    -0.284 OA
ENDBRANCH  12  27
TORSDOF 6
ENDMDL
MODEL 6
REMARK VINA RESULT:      -7.4      3.340      7.512
REMARK  6 active torsions:
REMARK  status: ('A' for Active; 'I' for Inactive)
REMARK    1  A    between atoms: C7_7  and  C8_8 
REMARK    2  A    between atoms: C8_8  and  C9_9 
REMARK    3  A    between atoms: C8_8  and  N1_11 
REMARK    4  A    between atoms: C9_9  and  O1_10 
REMARK    5  A    between atoms: N1_11  and  C10_12 
REMARK    6  A    between atoms: N4_23  and  C18_24 
ROOT
HETATM    1  C10 UNL     1      22.080   1.944  50.207  1.00  0.00     0.139 A 
HETATM    2  N2  UNL     1      21.801   2.403  49.011  1.00  0.00    -0.224 NA
HETATM    3  C11 UNL     1      22.597   3.102  48.216  1.00  0.00     0.236 A 
HETATM    4  N3  UNL     1      23.805   3.334  48.751  1.00  0.00    -0.234 NA
HETATM    5  C12 UNL     1      24.139   2.891  49.960  1.00  0.00     0.114 A 
HETATM    6  S1  UNL     1      25.671   3.022  50.978  1.00  0.00    -0.072 SA
HETATM    7  C13 UNL     1      25.054   2.097  52.398  1.00  0.00     0.010 A 
HETATM    8  C14 UNL     1      23.701   1.730  52.028  1.00  0.00    -0.025 A 
HETATM    9  C15 UNL     1      23.289   2.145  50.805  1.00  0.00     0.053 A 
HETATM   10  C16 UNL     1      23.293   0.997  53.224  1.00  0.00     0.060 C 
HETATM   11  C17 UNL     1      24.311  -0.125  53.509  1.00  0.00     0.130 C 
HETATM   12  N4  UNL     1      25.537   0.410  54.016  1.00  0.00    -0.354 N 
HETATM   13  C19 UNL     1      25.749   1.793  53.626  1.00  0.00     0.171 C 
ENDROOT
BRANCH   1  14
HETATM   14  N1  UNL     1      20.990   1.232  50.714  1.00  0.00    -0.363 N 
HETATM   15  H12 UNL     1      21.082   0.231  50.558  1.00  0.00     0.162 HD
BRANCH  14  16
HETATM   16  C8  UNL     1      19.744   1.422  51.412  1.00  0.00     0.140 C 
BRANCH  16  17
HETATM   17  C7  UNL     1      19.247   0.262  52.162  1.00  0.00    -0.028 A 
HETATM   18  C2  UNL     1      17.978  -0.175  51.801  1.00  0.00    -0.054 A 
HETATM   19  C1  UNL     1      17.176   0.458  50.735  1.00  0.00     0.049 C 
HETATM   20  C3  UNL     1      17.421  -1.280  52.466  1.00  0.00     0.007 A 
HETATM   21  C4  UNL     1      18.054  -1.978  53.469  1.00  0.00     0.001 A 
HETATM   22  C5  UNL     1      19.304  -1.536  53.814  1.00  0.00     0.001 A 
HETATM   23  C6  UNL     1      19.839  -0.460  53.162  1.00  0.00     0.010 A 
ENDBRANCH  16  17
BRANCH  16  24
HETATM   24  C9  UNL     1      19.969   2.604  52.392  1.00  0.00     0.194 C 
BRANCH  24  25
HETATM   25  O1  UNL     1      19.004   3.564  52.112  1.00  0.00    -0.399 OA
HETATM   26  H11 UNL     1      18.672   3.894  52.995  1.00  0.00     0.209 HD
ENDBRANCH  24  25
ENDBRANCH  16  24
ENDBRANCH  14  16
ENDBRANCH   1  14
BRANCH  12  27
HETATM   27  C18 UNL     1      26.432  -0.345  54.810  1.00  0.00     0.351 C 
HETATM   28  O2  UNL     1      27.657  -0.100  54.908  1.00  0.00    -0.284 OA
ENDBRANCH  12  27
TORSDOF 6
ENDMDL
MODEL 7
REMARK VINA RESULT:      -7.3      2.993      6.378
REMARK  6 active torsions:
REMARK  status: ('A' for Active; 'I' for Inactive)
REMARK    1  A    between atoms: C7_7  and  C8_8 
REMARK    2  A    between atoms: C8_8  and  C9_9 
REMARK    3  A    between atoms: C8_8  and  N1_11 
REMARK    4  A    between atoms: C9_9  and  O1_10 
REMARK    5  A    between atoms: N1_11  and  C10_12 
REMARK    6  A    between atoms: N4_23  and  C18_24 
ROOT
HETATM    1  C10 UNL     1      20.214   0.368  51.841  1.00  0.00     0.139 A 
HETATM    2  N2  UNL     1      18.952   0.051  52.001  1.00  0.00    -0.224 NA
HETATM    3  C11 UNL     1      18.437  -0.739  52.931  1.00  0.00     0.236 A 
HETATM    4  N3  UNL     1      19.358  -1.239  53.768  1.00  0.00    -0.234 NA
HETATM    5  C12 UNL     1      20.650  -0.949  53.650  1.00  0.00     0.114 A 
HETATM    6  S1  UNL     1      22.152  -1.445  54.600  1.00  0.00    -0.072 SA
HETATM    7  C13 UNL     1      23.337  -0.509  53.615  1.00  0.00     0.010 A 
HETATM    8  C14 UNL     1      22.529   0.141  52.602  1.00  0.00    -0.025 A 
HETATM    9  C15 UNL     1      21.197  -0.106  52.659  1.00  0.00     0.053 A 
HETATM   10  C16 UNL     1      23.564   0.862  51.865  1.00  0.00     0.060 C 
HETATM   11  C17 UNL     1      24.371   1.741  52.842  1.00  0.00     0.130 C 
HETATM   12  N4  UNL     1      25.231   0.942  53.660  1.00  0.00    -0.354 N 
HETATM   13  C19 UNL     1      24.767  -0.428  53.793  1.00  0.00     0.171 C 
ENDROOT
BRANCH   1  14
HETATM   14  N1  UNL     1      20.355   1.248  50.765  1.00  0.00    -0.363 N 
HETATM   15  H12 UNL     1      20.442   0.757  49.878  1.00  0.00     0.162 HD
BRANCH  14  16
HETATM   16  C8  UNL     1      20.413   2.654  50.457  1.00  0.00     0.140 C 
BRANCH  16  17
HETATM   17  C7  UNL     1      21.720   3.163  50.027  1.00  0.00    -0.028 A 
HETATM   18  C2  UNL     1      22.308   4.084  50.886  1.00  0.00    -0.054 A 
HETATM   19  C1  UNL     1      21.686   4.524  52.151  1.00  0.00     0.049 C 
HETATM   20  C3  UNL     1      23.561   4.625  50.555  1.00  0.00     0.007 A 
HETATM   21  C4  UNL     1      24.266   4.302  49.418  1.00  0.00     0.001 A 
HETATM   22  C5  UNL     1      23.676   3.393  48.581  1.00  0.00     0.001 A 
HETATM   23  C6  UNL     1      22.456   2.871  48.911  1.00  0.00     0.010 A 
ENDBRANCH  16  17
BRANCH  16  24
HETATM   24  C9  UNL     1      19.375   2.896  49.329  1.00  0.00     0.194 C 
BRANCH  24  25
HETATM   25  O1  UNL     1      19.076   1.659  48.769  1.00  0.00    -0.399 OA
HETATM   26  H11 UNL     1      19.077   1.002  49.522  1.00  0.00     0.209 HD
ENDBRANCH  24  25
ENDBRANCH  16  24
ENDBRANCH  14  16
ENDBRANCH   1  14
BRANCH  12  27
HETATM   27  C18 UNL     1      26.405   1.453  54.264  1.00  0.00     0.351 C 
HETATM   28  O2  UNL     1      27.110   0.809  55.075  1.00  0.00    -0.284 OA
ENDBRANCH  12  27
TORSDOF 6
ENDMDL
MODEL 8
REMARK VINA RESULT:      -7.2      8.087      9.277
REMARK  6 active torsions:
REMARK  status: ('A' for Active; 'I' for Inactive)
REMARK    1  A    between atoms: C7_7  and  C8_8 
REMARK    2  A    between atoms: C8_8  and  C9_9 
REMARK    3  A    between atoms: C8_8  and  N1_11 
REMARK    4  A    between atoms: C9_9  and  O1_10 
REMARK    5  A    between atoms: N1_11  and  C10_12 
REMARK    6  A    between atoms: N4_23  and  C18_24 
ROOT
HETATM    1  C10 UNL     1      29.245   5.728  48.046  1.00  0.00     0.139 A 
HETATM    2  N2  UNL     1      28.509   4.717  48.439  1.00  0.00    -0.224 NA
HETATM    3  C11 UNL     1      27.270   4.761  48.902  1.00  0.00     0.236 A 
HETATM    4  N3  UNL     1      26.769   6.004  48.950  1.00  0.00    -0.234 NA
HETATM    5  C12 UNL     1      27.472   7.065  48.563  1.00  0.00     0.114 A 
HETATM    6  S1  UNL     1      27.106   8.871  48.496  1.00  0.00    -0.072 SA
HETATM    7  C13 UNL     1      28.705   9.380  47.835  1.00  0.00     0.010 A 
HETATM    8  C14 UNL     1      29.448   8.142  47.696  1.00  0.00    -0.025 A 
HETATM    9  C15 UNL     1      28.793   7.015  48.070  1.00  0.00     0.053 A 
HETATM   10  C16 UNL     1      30.709   8.652  47.163  1.00  0.00     0.060 C 
HETATM   11  C17 UNL     1      30.429   9.491  45.900  1.00  0.00     0.130 C 
HETATM   12  N4  UNL     1      29.836  10.749  46.240  1.00  0.00    -0.354 N 
HETATM   13  C19 UNL     1      29.147  10.717  47.518  1.00  0.00     0.171 C 
ENDROOT
BRANCH   1  14
HETATM   14  N1  UNL     1      30.488   5.273  47.599  1.00  0.00    -0.363 N 
HETATM   15  H12 UNL     1      30.553   5.273  46.583  1.00  0.00     0.162 HD
BRANCH  14  16
HETATM   16  C8  UNL     1      31.758   4.797  48.086  1.00  0.00     0.140 C 
BRANCH  16  17
HETATM   17  C7  UNL     1      32.812   4.639  47.078  1.00  0.00    -0.028 A 
HETATM   18  C2  UNL     1      33.479   3.421  47.107  1.00  0.00    -0.054 A 
HETATM   19  C1  UNL     1      33.158   2.343  48.064  1.00  0.00     0.049 C 
HETATM   20  C3  UNL     1      34.505   3.181  46.178  1.00  0.00     0.007 A 
HETATM   21  C4  UNL     1      34.907   4.084  45.220  1.00  0.00     0.001 A 
HETATM   22  C5  UNL     1      34.241   5.281  45.203  1.00  0.00     0.001 A 
HETATM   23  C6  UNL     1      33.243   5.506  46.111  1.00  0.00     0.010 A 
ENDBRANCH  16  17
BRANCH  16  24
HETATM   24  C9  UNL     1      32.224   5.819  49.157  1.00  0.00     0.194 C 
BRANCH  24  25
HETATM   25  O1  UNL     1      31.664   5.433  50.370  1.00  0.00    -0.399 OA
HETATM   26  H11 UNL     1      30.782   5.016  50.152  1.00  0.00     0.209 HD
ENDBRANCH  24  25
ENDBRANCH  16  24
ENDBRANCH  14  16
ENDBRANCH   1  14
BRANCH  12  27
HETATM   27  C18 UNL     1      29.925  11.888  45.405  1.00  0.00     0.351 C 
HETATM   28  O2  UNL     1      30.456  12.968  45.752  1.00  0.00    -0.284 OA
ENDBRANCH  12  27
TORSDOF 6
ENDMDL
MODEL 9
REMARK VINA RESULT:      -7.0      2.831      5.003
REMARK  6 active torsions:
REMARK  status: ('A' for Active; 'I' for Inactive)
REMARK    1  A    between atoms: C7_7  and  C8_8 
REMARK    2  A    between atoms: C8_8  and  C9_9 
REMARK    3  A    between atoms: C8_8  and  N1_11 
REMARK    4  A    between atoms: C9_9  and  O1_10 
REMARK    5  A    between atoms: N1_11  and  C10_12 
REMARK    6  A    between atoms: N4_23  and  C18_24 
ROOT
HETATM    1  C10 UNL     1      23.139   3.660  49.271  1.00  0.00     0.139 A 
HETATM    2  N2  UNL     1      23.281   4.786  48.615  1.00  0.00    -0.224 NA
HETATM    3  C11 UNL     1      22.320   5.562  48.139  1.00  0.00     0.236 A 
HETATM    4  N3  UNL     1      21.090   5.089  48.385  1.00  0.00    -0.234 NA
HETATM    5  C12 UNL     1      20.889   3.952  49.046  1.00  0.00     0.114 A 
HETATM    6  S1  UNL     1      19.373   3.029  49.547  1.00  0.00    -0.072 SA
HETATM    7  C13 UNL     1      20.224   1.665  50.364  1.00  0.00     0.010 A 
HETATM    8  C14 UNL     1      21.632   1.978  50.215  1.00  0.00    -0.025 A 
HETATM    9  C15 UNL     1      21.915   3.127  49.553  1.00  0.00     0.053 A 
HETATM   10  C16 UNL     1      22.228   0.832  50.898  1.00  0.00     0.060 C 
HETATM   11  C17 UNL     1      21.643   0.721  52.319  1.00  0.00     0.130 C 
HETATM   12  N4  UNL     1      20.292   0.249  52.284  1.00  0.00    -0.354 N 
HETATM   13  C19 UNL     1      19.636   0.520  51.017  1.00  0.00     0.171 C 
ENDROOT
BRANCH   1  14
HETATM   14  N1  UNL     1      24.389   3.151  49.629  1.00  0.00    -0.363 N 
HETATM   15  H12 UNL     1      24.684   2.392  49.019  1.00  0.00     0.162 HD
BRANCH  14  16
HETATM   16  C8  UNL     1      25.451   3.335  50.587  1.00  0.00     0.140 C 
BRANCH  16  17
HETATM   17  C7  UNL     1      25.710   2.202  51.482  1.00  0.00    -0.028 A 
HETATM   18  C2  UNL     1      25.056   2.256  52.707  1.00  0.00    -0.054 A 
HETATM   19  C1  UNL     1      24.153   3.357  53.096  1.00  0.00     0.049 C 
HETATM   20  C3  UNL     1      25.246   1.213  53.629  1.00  0.00     0.007 A 
HETATM   21  C4  UNL     1      26.047   0.117  53.403  1.00  0.00     0.001 A 
HETATM   22  C5  UNL     1      26.684   0.077  52.191  1.00  0.00     0.001 A 
HETATM   23  C6  UNL     1      26.494   1.096  51.299  1.00  0.00     0.010 A 
ENDBRANCH  16  17
BRANCH  16  24
HETATM   24  C9  UNL     1      26.731   3.639  49.764  1.00  0.00     0.194 C 
BRANCH  24  25
HETATM   25  O1  UNL     1      26.463   4.753  48.976  1.00  0.00    -0.399 OA
HETATM   26  H11 UNL     1      25.723   4.488  48.359  1.00  0.00     0.209 HD
ENDBRANCH  24  25
ENDBRANCH  16  24
ENDBRANCH  14  16
ENDBRANCH   1  14
BRANCH  12  27
HETATM   27  C18 UNL     1      19.683  -0.410  53.378  1.00  0.00     0.351 C 
HETATM   28  O2  UNL     1      18.533  -0.906  53.342  1.00  0.00    -0.284 OA
ENDBRANCH  12  27
TORSDOF 6
ENDMDL
