MODEL 1
REMARK VINA RESULT:      -8.5      0.000      0.000
REMARK  7 active torsions:
REMARK  status: ('A' for Active; 'I' for Inactive)
REMARK    1  A    between atoms: N1_9  and  C7_10 
REMARK    2  A    between atoms: C12_17  and  N4_18 
REMARK    3  A    between atoms: N4_18  and  C13_19 
REMARK    4  A    between atoms: C13_19  and  C14_20 
REMARK    5  A    between atoms: C14_20  and  C15_21 
REMARK    6  A    between atoms: C15_21  and  C16_22 
REMARK    7  A    between atoms: C16_22  and  N5_23 
ROOT
HETATM    1  C7  UNL     1      24.430  -0.471  53.799  1.00  0.00     0.120 C 
HETATM    2  N2  UNL     1      23.993  -1.132  54.804  1.00  0.00    -0.228 NA
HETATM    3  C8  UNL     1      22.695  -1.285  55.279  1.00  0.00     0.235 C 
HETATM    4  N3  UNL     1      21.701  -0.716  54.632  1.00  0.00    -0.245 NA
HETATM    5  C9  UNL     1      21.998   0.030  53.432  1.00  0.00     0.053 A 
HETATM    6  C10 UNL     1      21.300   0.472  52.370  1.00  0.00     0.030 A 
HETATM    7  C11 UNL     1      22.279   1.167  51.502  1.00  0.00     0.028 A 
HETATM    8  C12 UNL     1      23.500   1.117  52.067  1.00  0.00     0.022 A 
HETATM    9  C21 UNL     1      23.398   0.445  53.367  1.00  0.00     0.156 A 
ENDROOT
BRANCH   8  10
HETATM   10  N4  UNL     1      24.385   1.780  51.197  1.00  0.00    -0.392 N 
HETATM   11  H12 UNL     1      24.410   1.202  50.316  1.00  0.00     0.159 HD
BRANCH  10  12
HETATM   12  C13 UNL     1      25.177   2.960  51.272  1.00  0.00     0.119 C 
BRANCH  12  13
HETATM   13  C14 UNL     1      26.529   2.879  50.608  1.00  0.00     0.021 C 
BRANCH  13  14
HETATM   14  C15 UNL     1      26.707   3.773  49.434  1.00  0.00     0.021 C 
BRANCH  14  15
HETATM   15  C16 UNL     1      25.771   4.941  49.356  1.00  0.00     0.126 C 
BRANCH  15  16
HETATM   16  N5  UNL     1      26.370   6.206  49.112  1.00  0.00    -0.348 N 
HETATM   17  C17 UNL     1      27.373   6.742  48.206  1.00  0.00     0.152 C 
HETATM   18  C18 UNL     1      28.060   7.951  48.801  1.00  0.00     0.188 C 
HETATM   19  O1  UNL     1      27.172   8.995  48.891  1.00  0.00    -0.380 OA
HETATM   20  C19 UNL     1      26.290   8.728  49.937  1.00  0.00     0.270 C 
HETATM   21  C20 UNL     1      25.915   7.291  49.946  1.00  0.00     0.243 C 
HETATM   22  O2  UNL     1      25.057   7.176  50.886  1.00  0.00    -0.271 OA
ENDBRANCH  15  16
ENDBRANCH  14  15
ENDBRANCH  13  14
ENDBRANCH  12  13
ENDBRANCH  10  12
ENDBRANCH   8  10
BRANCH   1  23
HETATM   23  N1  UNL     1      25.677  -0.229  53.176  1.00  0.00    -0.357 N 
HETATM   24  C2  UNL     1      26.455   0.788  53.878  1.00  0.00     0.121 C 
HETATM   25  C1  UNL     1      26.607   0.281  55.311  1.00  0.00     0.036 C 
HETATM   26  C3  UNL     1      27.884   0.870  53.339  1.00  0.00     0.236 C 
HETATM   27  F1  UNL     1      28.616   1.551  54.276  1.00  0.00    -0.241 F 
HETATM   28  C4  UNL     1      28.348  -0.560  53.223  1.00  0.00     0.045 C 
HETATM   29 CL1  UNL     1      29.879  -0.977  54.012  1.00  0.00    -0.086 Cl
HETATM   30  C5  UNL     1      27.612  -1.442  52.551  1.00  0.00     0.015 C 
HETATM   31  C6  UNL     1      26.397  -0.733  52.028  1.00  0.00     0.153 C 
ENDBRANCH   1  23
TORSDOF 7
ENDMDL
MODEL 2
REMARK VINA RESULT:      -8.2      2.073      2.842
REMARK  7 active torsions:
REMARK  status: ('A' for Active; 'I' for Inactive)
REMARK    1  A    between atoms: N1_9  and  C7_10 
REMARK    2  A    between atoms: C12_17  and  N4_18 
REMARK    3  A    between atoms: N4_18  and  C13_19 
REMARK    4  A    between atoms: C13_19  and  C14_20 
REMARK    5  A    between atoms: C14_20  and  C15_21 
REMARK    6  A    between atoms: C15_21  and  C16_22 
REMARK    7  A    between atoms: C16_22  and  N5_23 
ROOT
HETATM    1  C7  UNL     1      24.560  -0.515  53.829  1.00  0.00     0.120 C 
HETATM    2  N2  UNL     1      24.108  -1.136  54.851  1.00  0.00    -0.228 NA
HETATM    3  C8  UNL     1      22.813  -1.216  55.351  1.00  0.00     0.235 C 
HETATM    4  N3  UNL     1      21.837  -0.607  54.712  1.00  0.00    -0.245 NA
HETATM    5  C9  UNL     1      22.150   0.104  53.494  1.00  0.00     0.053 A 
HETATM    6  C10 UNL     1      21.457   0.563  52.436  1.00  0.00     0.030 A 
HETATM    7  C11 UNL     1      22.453   1.194  51.540  1.00  0.00     0.028 A 
HETATM    8  C12 UNL     1      23.680   1.090  52.085  1.00  0.00     0.022 A 
HETATM    9  C21 UNL     1      23.568   0.445  53.398  1.00  0.00     0.156 A 
ENDROOT
BRANCH   8  10
HETATM   10  N4  UNL     1      24.582   1.694  51.189  1.00  0.00    -0.392 N 
HETATM   11  H12 UNL     1      24.564   1.100  50.319  1.00  0.00     0.159 HD
BRANCH  10  12
HETATM   12  C13 UNL     1      25.432   2.834  51.230  1.00  0.00     0.119 C 
BRANCH  12  13
HETATM   13  C14 UNL     1      26.024   3.252  49.908  1.00  0.00     0.021 C 
BRANCH  13  14
HETATM   14  C15 UNL     1      25.994   4.713  49.638  1.00  0.00     0.021 C 
BRANCH  14  15
HETATM   15  C16 UNL     1      24.732   5.236  49.022  1.00  0.00     0.126 C 
BRANCH  15  16
HETATM   16  N5  UNL     1      23.588   5.263  49.866  1.00  0.00    -0.348 N 
HETATM   17  C17 UNL     1      23.203   5.925  51.101  1.00  0.00     0.152 C 
HETATM   18  C18 UNL     1      22.172   5.118  51.859  1.00  0.00     0.188 C 
HETATM   19  O1  UNL     1      20.988   5.103  51.163  1.00  0.00    -0.380 OA
HETATM   20  C19 UNL     1      21.139   4.259  50.064  1.00  0.00     0.270 C 
HETATM   21  C20 UNL     1      22.480   4.437  49.452  1.00  0.00     0.243 C 
HETATM   22  O2  UNL     1      22.481   3.680  48.423  1.00  0.00    -0.271 OA
ENDBRANCH  15  16
ENDBRANCH  14  15
ENDBRANCH  13  14
ENDBRANCH  12  13
ENDBRANCH  10  12
ENDBRANCH   8  10
BRANCH   1  23
HETATM   23  N1  UNL     1      25.806  -0.346  53.181  1.00  0.00    -0.357 N 
HETATM   24  C2  UNL     1      26.617   0.695  53.807  1.00  0.00     0.121 C 
HETATM   25  C1  UNL     1      26.770   0.281  55.269  1.00  0.00     0.036 C 
HETATM   26  C3  UNL     1      28.041   0.705  53.251  1.00  0.00     0.236 C 
HETATM   27  F1  UNL     1      28.799   1.427  54.135  1.00  0.00    -0.241 F 
HETATM   28  C4  UNL     1      28.468  -0.741  53.227  1.00  0.00     0.045 C 
HETATM   29 CL1  UNL     1      29.997  -1.143  54.029  1.00  0.00    -0.086 Cl
HETATM   30  C5  UNL     1      27.704  -1.647  52.622  1.00  0.00     0.015 C 
HETATM   31  C6  UNL     1      26.502  -0.943  52.063  1.00  0.00     0.153 C 
ENDBRANCH   1  23
TORSDOF 7
ENDMDL
MODEL 3
REMARK VINA RESULT:      -8.0      3.094      3.986
REMARK  7 active torsions:
REMARK  status: ('A' for Active; 'I' for Inactive)
REMARK    1  A    between atoms: N1_9  and  C7_10 
REMARK    2  A    between atoms: C12_17  and  N4_18 
REMARK    3  A    between atoms: N4_18  and  C13_19 
REMARK    4  A    between atoms: C13_19  and  C14_20 
REMARK    5  A    between atoms: C14_20  and  C15_21 
REMARK    6  A    between atoms: C15_21  and  C16_22 
REMARK    7  A    between atoms: C16_22  and  N5_23 
ROOT
HETATM    1  C7  UNL     1      24.430  -0.543  53.865  1.00  0.00     0.120 C 
HETATM    2  N2  UNL     1      24.041  -1.193  54.895  1.00  0.00    -0.228 NA
HETATM    3  C8  UNL     1      22.760  -1.399  55.393  1.00  0.00     0.235 C 
HETATM    4  N3  UNL     1      21.728  -0.904  54.744  1.00  0.00    -0.245 NA
HETATM    5  C9  UNL     1      21.970  -0.181  53.518  1.00  0.00     0.053 A 
HETATM    6  C10 UNL     1      21.236   0.190  52.452  1.00  0.00     0.030 A 
HETATM    7  C11 UNL     1      22.165   0.908  51.549  1.00  0.00     0.028 A 
HETATM    8  C12 UNL     1      23.394   0.939  52.097  1.00  0.00     0.022 A 
HETATM    9  C21 UNL     1      23.345   0.304  53.419  1.00  0.00     0.156 A 
ENDROOT
BRANCH   8  10
HETATM   10  N4  UNL     1      24.232   1.620  51.195  1.00  0.00    -0.392 N 
HETATM   11  H12 UNL     1      24.267   1.023  50.328  1.00  0.00     0.159 HD
BRANCH  10  12
HETATM   12  C13 UNL     1      24.971   2.836  51.226  1.00  0.00     0.119 C 
BRANCH  12  13
HETATM   13  C14 UNL     1      24.156   4.096  51.079  1.00  0.00     0.021 C 
BRANCH  13  14
HETATM   14  C15 UNL     1      23.303   4.433  52.250  1.00  0.00     0.021 C 
BRANCH  14  15
HETATM   15  C16 UNL     1      22.058   5.210  51.947  1.00  0.00     0.126 C 
BRANCH  15  16
HETATM   16  N5  UNL     1      21.214   4.671  50.939  1.00  0.00    -0.348 N 
HETATM   17  C17 UNL     1      21.101   4.769  49.493  1.00  0.00     0.152 C 
HETATM   18  C18 UNL     1      19.682   4.516  49.035  1.00  0.00     0.188 C 
HETATM   19  O1  UNL     1      19.346   3.203  49.258  1.00  0.00    -0.380 OA
HETATM   20  C19 UNL     1      19.151   3.029  50.628  1.00  0.00     0.270 C 
HETATM   21  C20 UNL     1      20.170   3.788  51.397  1.00  0.00     0.243 C 
HETATM   22  O2  UNL     1      19.945   3.500  52.622  1.00  0.00    -0.271 OA
ENDBRANCH  15  16
ENDBRANCH  14  15
ENDBRANCH  13  14
ENDBRANCH  12  13
ENDBRANCH  10  12
ENDBRANCH   8  10
BRANCH   1  23
HETATM   23  N1  UNL     1      25.654  -0.255  53.216  1.00  0.00    -0.357 N 
HETATM   24  C2  UNL     1      26.400   0.803  53.892  1.00  0.00     0.121 C 
HETATM   25  C1  UNL     1      26.599   0.320  55.328  1.00  0.00     0.036 C 
HETATM   26  C3  UNL     1      27.814   0.939  53.326  1.00  0.00     0.236 C 
HETATM   27  F1  UNL     1      28.533   1.661  54.242  1.00  0.00    -0.241 F 
HETATM   28  C4  UNL     1      28.337  -0.472  53.218  1.00  0.00     0.045 C 
HETATM   29 CL1  UNL     1      29.899  -0.814  53.983  1.00  0.00    -0.086 Cl
HETATM   30  C5  UNL     1      27.627  -1.393  52.570  1.00  0.00     0.015 C 
HETATM   31  C6  UNL     1      26.374  -0.742  52.061  1.00  0.00     0.153 C 
ENDBRANCH   1  23
TORSDOF 7
ENDMDL
MODEL 4
REMARK VINA RESULT:      -8.0      3.917      6.670
REMARK  7 active torsions:
REMARK  status: ('A' for Active; 'I' for Inactive)
REMARK    1  A    between atoms: N1_9  and  C7_10 
REMARK    2  A    between atoms: C12_17  and  N4_18 
REMARK    3  A    between atoms: N4_18  and  C13_19 
REMARK    4  A    between atoms: C13_19  and  C14_20 
REMARK    5  A    between atoms: C14_20  and  C15_21 
REMARK    6  A    between atoms: C15_21  and  C16_22 
REMARK    7  A    between atoms: C16_22  and  N5_23 
ROOT
HETATM    1  C7  UNL     1      20.481   2.449  50.540  1.00  0.00     0.120 C 
HETATM    2  N2  UNL     1      19.760   2.892  49.580  1.00  0.00    -0.228 NA
HETATM    3  C8  UNL     1      18.549   2.427  49.081  1.00  0.00     0.235 C 
HETATM    4  N3  UNL     1      17.974   1.389  49.649  1.00  0.00    -0.245 NA
HETATM    5  C9  UNL     1      18.618   0.785  50.792  1.00  0.00     0.053 A 
HETATM    6  C10 UNL     1      18.245  -0.032  51.793  1.00  0.00     0.030 A 
HETATM    7  C11 UNL     1      19.451  -0.227  52.631  1.00  0.00     0.028 A 
HETATM    8  C12 UNL     1      20.480   0.467  52.108  1.00  0.00     0.022 A 
HETATM    9  C21 UNL     1      20.041   1.111  50.865  1.00  0.00     0.156 A 
ENDROOT
BRANCH   8  10
HETATM   10  N4  UNL     1      21.590   0.254  52.947  1.00  0.00    -0.392 N 
HETATM   11  H12 UNL     1      22.187   1.117  52.859  1.00  0.00     0.159 HD
BRANCH  10  12
HETATM   12  C13 UNL     1      22.020  -0.800  53.801  1.00  0.00     0.119 C 
BRANCH  12  13
HETATM   13  C14 UNL     1      23.463  -0.738  54.235  1.00  0.00     0.021 C 
BRANCH  13  14
HETATM   14  C15 UNL     1      24.393  -0.144  53.239  1.00  0.00     0.021 C 
BRANCH  14  15
HETATM   15  C16 UNL     1      25.817  -0.605  53.322  1.00  0.00     0.126 C 
BRANCH  15  16
HETATM   16  N5  UNL     1      26.781   0.396  53.620  1.00  0.00    -0.348 N 
HETATM   17  C17 UNL     1      26.807   1.847  53.698  1.00  0.00     0.152 C 
HETATM   18  C18 UNL     1      28.194   2.387  53.427  1.00  0.00     0.188 C 
HETATM   19  O1  UNL     1      29.041   2.033  54.449  1.00  0.00    -0.380 OA
HETATM   20  C19 UNL     1      29.326   0.673  54.327  1.00  0.00     0.270 C 
HETATM   21  C20 UNL     1      28.107  -0.079  53.935  1.00  0.00     0.243 C 
HETATM   22  O2  UNL     1      28.461  -1.307  53.926  1.00  0.00    -0.271 OA
ENDBRANCH  15  16
ENDBRANCH  14  15
ENDBRANCH  13  14
ENDBRANCH  12  13
ENDBRANCH  10  12
ENDBRANCH   8  10
BRANCH   1  23
HETATM   23  N1  UNL     1      21.694   2.800  51.178  1.00  0.00    -0.357 N 
HETATM   24  C2  UNL     1      22.859   2.255  50.485  1.00  0.00     0.121 C 
HETATM   25  C1  UNL     1      22.777   2.784  49.055  1.00  0.00     0.036 C 
HETATM   26  C3  UNL     1      24.161   2.832  51.042  1.00  0.00     0.236 C 
HETATM   27  F1  UNL     1      25.133   2.567  50.113  1.00  0.00    -0.241 F 
HETATM   28  C4  UNL     1      23.918   4.316  51.163  1.00  0.00     0.045 C 
HETATM   29 CL1  UNL     1      25.099   5.391  50.394  1.00  0.00    -0.086 Cl
HETATM   30  C5  UNL     1      22.853   4.760  51.827  1.00  0.00     0.015 C 
HETATM   31  C6  UNL     1      22.092   3.571  52.335  1.00  0.00     0.153 C 
ENDBRANCH   1  23
TORSDOF 7
ENDMDL
MODEL 5
REMARK VINA RESULT:      -7.9      4.631      7.072
REMARK  7 active torsions:
REMARK  status: ('A' for Active; 'I' for Inactive)
REMARK    1  A    between atoms: N1_9  and  C7_10 
REMARK    2  A    between atoms: C12_17  and  N4_18 
REMARK    3  A    between atoms: N4_18  and  C13_19 
REMARK    4  A    between atoms: C13_19  and  C14_20 
REMARK    5  A    between atoms: C14_20  and  C15_21 
REMARK    6  A    between atoms: C15_21  and  C16_22 
REMARK    7  A    between atoms: C16_22  and  N5_23 
ROOT
HETATM    1  C7  UNL     1      20.160   0.607  52.474  1.00  0.00     0.120 C 
HETATM    2  N2  UNL     1      19.289  -0.171  52.995  1.00  0.00    -0.228 NA
HETATM    3  C8  UNL     1      19.457  -1.299  53.791  1.00  0.00     0.235 C 
HETATM    4  N3  UNL     1      20.671  -1.672  54.130  1.00  0.00    -0.245 NA
HETATM    5  C9  UNL     1      21.788  -0.876  53.678  1.00  0.00     0.053 A 
HETATM    6  C10 UNL     1      23.078  -0.729  54.032  1.00  0.00     0.030 A 
HETATM    7  C11 UNL     1      23.635   0.296  53.121  1.00  0.00     0.028 A 
HETATM    8  C12 UNL     1      22.677   0.715  52.272  1.00  0.00     0.022 A 
HETATM    9  C21 UNL     1      21.449  -0.046  52.524  1.00  0.00     0.156 A 
ENDROOT
BRANCH   8  10
HETATM   10  N4  UNL     1      23.259   1.691  51.441  1.00  0.00    -0.392 N 
HETATM   11  H12 UNL     1      22.999   1.422  50.457  1.00  0.00     0.159 HD
BRANCH  10  12
HETATM   12  C13 UNL     1      24.054   2.852  51.654  1.00  0.00     0.119 C 
BRANCH  12  13
HETATM   13  C14 UNL     1      25.028   3.184  50.551  1.00  0.00     0.021 C 
BRANCH  13  14
HETATM   14  C15 UNL     1      26.334   2.479  50.632  1.00  0.00     0.021 C 
BRANCH  14  15
HETATM   15  C16 UNL     1      27.041   2.567  51.951  1.00  0.00     0.126 C 
BRANCH  15  16
HETATM   16  N5  UNL     1      27.373   1.329  52.566  1.00  0.00    -0.348 N 
HETATM   17  C17 UNL     1      27.114  -0.078  52.312  1.00  0.00     0.152 C 
HETATM   18  C18 UNL     1      27.152  -0.883  53.592  1.00  0.00     0.188 C 
HETATM   19  O1  UNL     1      28.434  -0.915  54.086  1.00  0.00    -0.380 OA
HETATM   20  C19 UNL     1      28.723   0.338  54.626  1.00  0.00     0.270 C 
HETATM   21  C20 UNL     1      28.172   1.415  53.764  1.00  0.00     0.243 C 
HETATM   22  O2  UNL     1      28.556   2.506  54.307  1.00  0.00    -0.271 OA
ENDBRANCH  15  16
ENDBRANCH  14  15
ENDBRANCH  13  14
ENDBRANCH  12  13
ENDBRANCH  10  12
ENDBRANCH   8  10
BRANCH   1  23
HETATM   23  N1  UNL     1      20.167   1.777  51.678  1.00  0.00    -0.357 N 
HETATM   24  C2  UNL     1      20.012   1.478  50.257  1.00  0.00     0.121 C 
HETATM   25  C1  UNL     1      18.704   0.697  50.136  1.00  0.00     0.036 C 
HETATM   26  C3  UNL     1      19.785   2.750  49.439  1.00  0.00     0.236 C 
HETATM   27  F1  UNL     1      19.287   2.349  48.227  1.00  0.00    -0.241 F 
HETATM   28  C4  UNL     1      18.759   3.541  50.212  1.00  0.00     0.045 C 
HETATM   29 CL1  UNL     1      17.319   4.074  49.326  1.00  0.00    -0.086 Cl
HETATM   30  C5  UNL     1      18.961   3.807  51.500  1.00  0.00     0.015 C 
HETATM   31  C6  UNL     1      20.275   3.202  51.900  1.00  0.00     0.153 C 
ENDBRANCH   1  23
TORSDOF 7
ENDMDL
MODEL 6
REMARK VINA RESULT:      -7.9      3.060      4.825
REMARK  7 active torsions:
REMARK  status: ('A' for Active; 'I' for Inactive)
REMARK    1  A    between atoms: N1_9  and  C7_10 
REMARK    2  A    between atoms: C12_17  and  N4_18 
REMARK    3  A    between atoms: N4_18  and  C13_19 
REMARK    4  A    between atoms: C13_19  and  C14_20 
REMARK    5  A    between atoms: C14_20  and  C15_21 
REMARK    6  A    between atoms: C15_21  and  C16_22 
REMARK    7  A    between atoms: C16_22  and  N5_23 
ROOT
HETATM    1  C7  UNL     1      24.281   1.335  52.860  1.00  0.00     0.120 C 
HETATM    2  N2  UNL     1      23.769   0.377  53.536  1.00  0.00    -0.228 NA
HETATM    3  C8  UNL     1      24.386  -0.642  54.253  1.00  0.00     0.235 C 
HETATM    4  N3  UNL     1      25.699  -0.679  54.320  1.00  0.00    -0.245 NA
HETATM    5  C9  UNL     1      26.452   0.361  53.660  1.00  0.00     0.053 A 
HETATM    6  C10 UNL     1      27.704   0.847  53.736  1.00  0.00     0.030 A 
HETATM    7  C11 UNL     1      27.774   1.950  52.750  1.00  0.00     0.028 A 
HETATM    8  C12 UNL     1      26.585   2.079  52.133  1.00  0.00     0.022 A 
HETATM    9  C21 UNL     1      25.675   1.037  52.622  1.00  0.00     0.156 A 
ENDROOT
BRANCH   8  10
HETATM   10  N4  UNL     1      26.707   3.144  51.220  1.00  0.00    -0.392 N 
HETATM   11  H12 UNL     1      26.941   3.993  51.798  1.00  0.00     0.159 HD
BRANCH  10  12
HETATM   12  C13 UNL     1      26.583   3.281  49.809  1.00  0.00     0.119 C 
BRANCH  12  13
HETATM   13  C14 UNL     1      26.616   4.695  49.288  1.00  0.00     0.021 C 
BRANCH  13  14
HETATM   14  C15 UNL     1      27.878   5.083  48.605  1.00  0.00     0.021 C 
BRANCH  14  15
HETATM   15  C16 UNL     1      27.872   6.426  47.939  1.00  0.00     0.126 C 
BRANCH  15  16
HETATM   16  N5  UNL     1      27.250   7.479  48.661  1.00  0.00    -0.348 N 
HETATM   17  C17 UNL     1      25.898   7.829  49.063  1.00  0.00     0.152 C 
HETATM   18  C18 UNL     1      25.746   9.324  49.238  1.00  0.00     0.188 C 
HETATM   19  O1  UNL     1      26.480   9.744  50.321  1.00  0.00    -0.380 OA
HETATM   20  C19 UNL     1      27.829   9.717  49.968  1.00  0.00     0.270 C 
HETATM   21  C20 UNL     1      28.130   8.511  49.155  1.00  0.00     0.243 C 
HETATM   22  O2  UNL     1      29.391   8.549  48.954  1.00  0.00    -0.271 OA
ENDBRANCH  15  16
ENDBRANCH  14  15
ENDBRANCH  13  14
ENDBRANCH  12  13
ENDBRANCH  10  12
ENDBRANCH   8  10
BRANCH   1  23
HETATM   23  N1  UNL     1      23.818   2.440  52.107  1.00  0.00    -0.357 N 
HETATM   24  C2  UNL     1      23.355   2.046  50.778  1.00  0.00     0.121 C 
HETATM   25  C1  UNL     1      22.266   1.001  51.010  1.00  0.00     0.036 C 
HETATM   26  C3  UNL     1      22.645   3.200  50.069  1.00  0.00     0.236 C 
HETATM   27  F1  UNL     1      21.939   2.645  49.034  1.00  0.00    -0.241 F 
HETATM   28  C4  UNL     1      21.718   3.791  51.102  1.00  0.00     0.045 C 
HETATM   29 CL1  UNL     1      20.013   3.962  50.650  1.00  0.00    -0.086 Cl
HETATM   30  C5  UNL     1      22.197   4.156  52.289  1.00  0.00     0.015 C 
HETATM   31  C6  UNL     1      23.669   3.864  52.307  1.00  0.00     0.153 C 
ENDBRANCH   1  23
TORSDOF 7
ENDMDL
MODEL 7
REMARK VINA RESULT:      -7.8      3.265      4.947
REMARK  7 active torsions:
REMARK  status: ('A' for Active; 'I' for Inactive)
REMARK    1  A    between atoms: N1_9  and  C7_10 
REMARK    2  A    between atoms: C12_17  and  N4_18 
REMARK    3  A    between atoms: N4_18  and  C13_19 
REMARK    4  A    between atoms: C13_19  and  C14_20 
REMARK    5  A    between atoms: C14_20  and  C15_21 
REMARK    6  A    between atoms: C15_21  and  C16_22 
REMARK    7  A    between atoms: C16_22  and  N5_23 
ROOT
HETATM    1  C7  UNL     1      21.138   0.738  52.447  1.00  0.00     0.120 C 
HETATM    2  N2  UNL     1      19.931   0.356  52.629  1.00  0.00    -0.228 NA
HETATM    3  C8  UNL     1      19.425  -0.677  53.409  1.00  0.00     0.235 C 
HETATM    4  N3  UNL     1      20.253  -1.406  54.126  1.00  0.00    -0.245 NA
HETATM    5  C9  UNL     1      21.660  -1.085  54.092  1.00  0.00     0.053 A 
HETATM    6  C10 UNL     1      22.732  -1.351  54.860  1.00  0.00     0.030 A 
HETATM    7  C11 UNL     1      23.876  -0.670  54.212  1.00  0.00     0.028 A 
HETATM    8  C12 UNL     1      23.454  -0.036  53.102  1.00  0.00     0.022 A 
HETATM    9  C21 UNL     1      22.025  -0.306  52.910  1.00  0.00     0.156 A 
ENDROOT
BRANCH   8  10
HETATM   10  N4  UNL     1      24.576   0.599  52.536  1.00  0.00    -0.392 N 
HETATM   11  H12 UNL     1      24.212   1.147  51.713  1.00  0.00     0.159 HD
BRANCH  10  12
HETATM   12  C13 UNL     1      25.968   0.635  52.829  1.00  0.00     0.119 C 
BRANCH  12  13
HETATM   13  C14 UNL     1      26.789   1.562  51.970  1.00  0.00     0.021 C 
BRANCH  13  14
HETATM   14  C15 UNL     1      26.003   2.505  51.131  1.00  0.00     0.021 C 
BRANCH  14  15
HETATM   15  C16 UNL     1      26.743   3.136  49.992  1.00  0.00     0.126 C 
BRANCH  15  16
HETATM   16  N5  UNL     1      26.316   4.437  49.613  1.00  0.00    -0.348 N 
HETATM   17  C17 UNL     1      25.137   5.262  49.818  1.00  0.00     0.152 C 
HETATM   18  C18 UNL     1      24.960   6.257  48.692  1.00  0.00     0.188 C 
HETATM   19  O1  UNL     1      25.968   7.189  48.729  1.00  0.00    -0.380 OA
HETATM   20  C19 UNL     1      27.140   6.581  48.280  1.00  0.00     0.270 C 
HETATM   21  C20 UNL     1      27.243   5.197  48.810  1.00  0.00     0.243 C 
HETATM   22  O2  UNL     1      28.375   4.767  48.402  1.00  0.00    -0.271 OA
ENDBRANCH  15  16
ENDBRANCH  14  15
ENDBRANCH  13  14
ENDBRANCH  12  13
ENDBRANCH  10  12
ENDBRANCH   8  10
BRANCH   1  23
HETATM   23  N1  UNL     1      21.812   1.752  51.727  1.00  0.00    -0.357 N 
HETATM   24  C2  UNL     1      22.104   1.351  50.353  1.00  0.00     0.121 C 
HETATM   25  C1  UNL     1      20.758   0.988  49.730  1.00  0.00     0.036 C 
HETATM   26  C3  UNL     1      22.615   2.530  49.523  1.00  0.00     0.236 C 
HETATM   27  F1  UNL     1      22.499   2.159  48.209  1.00  0.00    -0.241 F 
HETATM   28  C4  UNL     1      21.688   3.674  49.847  1.00  0.00     0.045 C 
HETATM   29 CL1  UNL     1      20.928   4.507  48.480  1.00  0.00    -0.086 Cl
HETATM   30  C5  UNL     1      21.475   4.015  51.116  1.00  0.00     0.015 C 
HETATM   31  C6  UNL     1      22.281   3.095  51.986  1.00  0.00     0.153 C 
ENDBRANCH   1  23
TORSDOF 7
ENDMDL
MODEL 8
REMARK VINA RESULT:      -7.8      5.217     10.411
REMARK  7 active torsions:
REMARK  status: ('A' for Active; 'I' for Inactive)
REMARK    1  A    between atoms: N1_9  and  C7_10 
REMARK    2  A    between atoms: C12_17  and  N4_18 
REMARK    3  A    between atoms: N4_18  and  C13_19 
REMARK    4  A    between atoms: C13_19  and  C14_20 
REMARK    5  A    between atoms: C14_20  and  C15_21 
REMARK    6  A    between atoms: C15_21  and  C16_22 
REMARK    7  A    between atoms: C16_22  and  N5_23 
ROOT
HETATM    1  C7  UNL     1      32.812   8.125  47.473  1.00  0.00     0.120 C 
HETATM    2  N2  UNL     1      33.542   9.019  46.921  1.00  0.00    -0.228 NA
HETATM    3  C8  UNL     1      33.358  10.394  46.828  1.00  0.00     0.235 C 
HETATM    4  N3  UNL     1      32.306  10.943  47.396  1.00  0.00    -0.245 NA
HETATM    5  C9  UNL     1      31.390  10.091  48.119  1.00  0.00     0.053 A 
HETATM    6  C10 UNL     1      30.432  10.268  49.046  1.00  0.00     0.030 A 
HETATM    7  C11 UNL     1      29.905   8.917  49.349  1.00  0.00     0.028 A 
HETATM    8  C12 UNL     1      30.555   8.002  48.605  1.00  0.00     0.022 A 
HETATM    9  C21 UNL     1      31.504   8.689  47.722  1.00  0.00     0.156 A 
ENDROOT
BRANCH   8  10
HETATM   10  N4  UNL     1      30.022   6.743  48.941  1.00  0.00    -0.392 N 
HETATM   11  H12 UNL     1      30.466   6.478  49.858  1.00  0.00     0.159 HD
BRANCH  10  12
HETATM   12  C13 UNL     1      29.096   5.847  48.337  1.00  0.00     0.119 C 
BRANCH  12  13
HETATM   13  C14 UNL     1      27.705   6.391  48.130  1.00  0.00     0.021 C 
BRANCH  13  14
HETATM   14  C15 UNL     1      26.625   5.634  48.815  1.00  0.00     0.021 C 
BRANCH  14  15
HETATM   15  C16 UNL     1      26.959   4.224  49.199  1.00  0.00     0.126 C 
BRANCH  15  16
HETATM   16  N5  UNL     1      25.912   3.474  49.798  1.00  0.00    -0.348 N 
HETATM   17  C17 UNL     1      24.502   3.238  49.539  1.00  0.00     0.152 C 
HETATM   18  C18 UNL     1      23.760   2.897  50.813  1.00  0.00     0.188 C 
HETATM   19  O1  UNL     1      24.171   1.672  51.279  1.00  0.00    -0.380 OA
HETATM   20  C19 UNL     1      25.448   1.819  51.822  1.00  0.00     0.270 C 
HETATM   21  C20 UNL     1      26.268   2.727  50.980  1.00  0.00     0.243 C 
HETATM   22  O2  UNL     1      27.425   2.730  51.522  1.00  0.00    -0.271 OA
ENDBRANCH  15  16
ENDBRANCH  14  15
ENDBRANCH  13  14
ENDBRANCH  12  13
ENDBRANCH  10  12
ENDBRANCH   8  10
BRANCH   1  23
HETATM   23  N1  UNL     1      32.855   6.726  47.675  1.00  0.00    -0.357 N 
HETATM   24  C2  UNL     1      32.336   5.986  46.527  1.00  0.00     0.121 C 
HETATM   25  C1  UNL     1      33.178   6.430  45.332  1.00  0.00     0.036 C 
HETATM   26  C3  UNL     1      32.605   4.487  46.660  1.00  0.00     0.236 C 
HETATM   27  F1  UNL     1      32.434   3.949  45.411  1.00  0.00    -0.241 F 
HETATM   28  C4  UNL     1      34.042   4.378  47.104  1.00  0.00     0.045 C 
HETATM   29 CL1  UNL     1      35.104   3.331  46.147  1.00  0.00    -0.086 Cl
HETATM   30  C5  UNL     1      34.457   5.055  48.173  1.00  0.00     0.015 C 
HETATM   31  C6  UNL     1      33.290   5.824  48.719  1.00  0.00     0.153 C 
ENDBRANCH   1  23
TORSDOF 7
ENDMDL
MODEL 9
REMARK VINA RESULT:      -7.8      4.450      8.696
REMARK  7 active torsions:
REMARK  status: ('A' for Active; 'I' for Inactive)
REMARK    1  A    between atoms: N1_9  and  C7_10 
REMARK    2  A    between atoms: C12_17  and  N4_18 
REMARK    3  A    between atoms: N4_18  and  C13_19 
REMARK    4  A    between atoms: C13_19  and  C14_20 
REMARK    5  A    between atoms: C14_20  and  C15_21 
REMARK    6  A    between atoms: C15_21  and  C16_22 
REMARK    7  A    between atoms: C16_22  and  N5_23 
ROOT
HETATM    1  C7  UNL     1      24.878   6.695  48.401  1.00  0.00     0.120 C 
HETATM    2  N2  UNL     1      25.341   7.752  47.849  1.00  0.00    -0.228 NA
HETATM    3  C8  UNL     1      26.654   8.115  47.570  1.00  0.00     0.235 C 
HETATM    4  N3  UNL     1      27.629   7.282  47.862  1.00  0.00    -0.245 NA
HETATM    5  C9  UNL     1      27.292   6.005  48.445  1.00  0.00     0.053 A 
HETATM    6  C10 UNL     1      27.905   4.817  48.595  1.00  0.00     0.030 A 
HETATM    7  C11 UNL     1      26.933   3.941  49.288  1.00  0.00     0.028 A 
HETATM    8  C12 UNL     1      25.797   4.625  49.523  1.00  0.00     0.022 A 
HETATM    9  C21 UNL     1      25.966   6.007  49.061  1.00  0.00     0.156 A 
ENDROOT
BRANCH   8  10
HETATM   10  N4  UNL     1      24.911   3.744  50.171  1.00  0.00    -0.392 N 
HETATM   11  H12 UNL     1      24.630   3.034  49.445  1.00  0.00     0.159 HD
BRANCH  10  12
HETATM   12  C13 UNL     1      24.374   3.640  51.484  1.00  0.00     0.119 C 
BRANCH  12  13
HETATM   13  C14 UNL     1      23.530   2.418  51.747  1.00  0.00     0.021 C 
BRANCH  13  14
HETATM   14  C15 UNL     1      24.143   1.414  52.656  1.00  0.00     0.021 C 
BRANCH  14  15
HETATM   15  C16 UNL     1      25.445   0.829  52.197  1.00  0.00     0.126 C 
BRANCH  15  16
HETATM   16  N5  UNL     1      26.586   1.152  52.980  1.00  0.00    -0.348 N 
HETATM   17  C17 UNL     1      27.443   2.310  53.168  1.00  0.00     0.152 C 
HETATM   18  C18 UNL     1      28.831   1.901  53.608  1.00  0.00     0.188 C 
HETATM   19  O1  UNL     1      28.783   1.375  54.876  1.00  0.00    -0.380 OA
HETATM   20  C19 UNL     1      28.211   0.105  54.800  1.00  0.00     0.270 C 
HETATM   21  C20 UNL     1      27.082   0.101  53.835  1.00  0.00     0.243 C 
HETATM   22  O2  UNL     1      26.592  -1.077  53.900  1.00  0.00    -0.271 OA
ENDBRANCH  15  16
ENDBRANCH  14  15
ENDBRANCH  13  14
ENDBRANCH  12  13
ENDBRANCH  10  12
ENDBRANCH   8  10
BRANCH   1  23
HETATM   23  N1  UNL     1      23.609   6.166  48.736  1.00  0.00    -0.357 N 
HETATM   24  C2  UNL     1      23.117   6.679  50.011  1.00  0.00     0.121 C 
HETATM   25  C1  UNL     1      23.097   8.200  49.868  1.00  0.00     0.036 C 
HETATM   26  C3  UNL     1      21.657   6.289  50.245  1.00  0.00     0.236 C 
HETATM   27  F1  UNL     1      21.190   7.106  51.241  1.00  0.00    -0.241 F 
HETATM   28  C4  UNL     1      20.956   6.571  48.940  1.00  0.00     0.045 C 
HETATM   29 CL1  UNL     1      19.509   7.592  49.007  1.00  0.00    -0.086 Cl
HETATM   30  C5  UNL     1      21.434   6.058  47.808  1.00  0.00     0.015 C 
HETATM   31  C6  UNL     1      22.657   5.255  48.140  1.00  0.00     0.153 C 
ENDBRANCH   1  23
TORSDOF 7
ENDMDL
