MODEL 1
REMARK VINA RESULT:      -8.0      0.000      0.000
REMARK  8 active torsions:
REMARK  status: ('A' for Active; 'I' for Inactive)
REMARK    1  A    between atoms: O1_2  and  C2_3 
REMARK    2  A    between atoms: C4_5  and  C5_6 
REMARK    3  A    between atoms: C5_6  and  C6_7 
REMARK    4  A    between atoms: C6_7  and  C7_8 
REMARK    5  A    between atoms: C11_12  and  C12_13 
REMARK    6  A    between atoms: N1_19  and  C15_20 
REMARK    7  A    between atoms: C17_23  and  C18_24 
REMARK    8  A    between atoms: C18_24  and  N3_25 
ROOT
HETATM    1  C2  UNL     1      26.143   0.153  54.053  1.00  0.00     0.077 A 
HETATM    2  C3  UNL     1      25.063   0.405  53.348  1.00  0.00     0.051 A 
HETATM    3  C4  UNL     1      25.056   1.321  52.205  1.00  0.00    -0.008 A 
HETATM    4  C14 UNL     1      26.301   2.006  51.803  1.00  0.00     0.068 A 
HETATM    5  N1  UNL     1      26.818   2.795  51.007  1.00  0.00    -0.242 NA
HETATM    6  C16 UNL     1      27.478   1.670  52.647  1.00  0.00     0.044 A 
HETATM    7  C17 UNL     1      27.385   0.811  53.683  1.00  0.00     0.005 A 
ENDROOT
BRANCH   3   8
HETATM    8  C5  UNL     1      24.102   1.684  51.407  1.00  0.00    -0.012 C 
BRANCH   8   9
HETATM    9  C6  UNL     1      23.119   1.915  50.386  1.00  0.00     0.036 C 
BRANCH   9  10
HETATM   10  C7  UNL     1      21.728   1.376  50.782  1.00  0.00     0.016 A 
HETATM   11  C8  UNL     1      20.953   2.454  51.412  1.00  0.00    -0.021 A 
HETATM   12  C9  UNL     1      20.341   2.562  52.577  1.00  0.00    -0.003 A 
HETATM   13  C10 UNL     1      20.433   1.393  53.438  1.00  0.00     0.011 A 
HETATM   14  C11 UNL     1      21.123   0.401  52.905  1.00  0.00     0.026 A 
HETATM   15  C13 UNL     1      21.844   0.160  51.634  1.00  0.00     0.052 A 
BRANCH  14  16
HETATM   16  C12 UNL     1      21.257  -0.833  53.739  1.00  0.00     0.413 C 
HETATM   17  F1  UNL     1      21.507  -0.450  55.059  1.00  0.00    -0.166 F 
HETATM   18  F2  UNL     1      20.096  -1.576  53.780  1.00  0.00    -0.166 F 
HETATM   19  F3  UNL     1      22.257  -1.655  53.256  1.00  0.00    -0.166 F 
ENDBRANCH  14  16
ENDBRANCH   9  10
ENDBRANCH   8   9
ENDBRANCH   3   8
BRANCH   1  20
HETATM   20  O1  UNL     1      25.956  -0.735  55.092  1.00  0.00    -0.355 OA
HETATM   21  C1  UNL     1      24.699  -1.130  55.581  1.00  0.00     0.210 C 
ENDBRANCH   1  20
BRANCH   5  22
HETATM   22  C15 UNL     1      26.320   3.504  49.943  1.00  0.00     0.224 C 
HETATM   23  N2  UNL     1      25.992   4.705  50.346  1.00  0.00    -0.293 NA
HETATM   24  H15 UNL     1      26.143   4.950  51.353  1.00  0.00     0.187 HD
ENDBRANCH   5  22
BRANCH   7  25
HETATM   25  C18 UNL     1      28.487   0.382  54.616  1.00  0.00     0.308 C 
BRANCH  25  26
HETATM   26  N3  UNL     1      29.000  -0.908  54.270  1.00  0.00     0.082 N 
HETATM   27  H19 UNL     1      28.892  -1.544  55.095  1.00  0.00     0.313 HD
HETATM   28  H20 UNL     1      30.026  -0.842  54.075  1.00  0.00     0.313 HD
ENDBRANCH  25  26
ENDBRANCH   7  25
TORSDOF 8
ENDMDL
MODEL 2
REMARK VINA RESULT:      -7.5      3.574      5.064
REMARK  8 active torsions:
REMARK  status: ('A' for Active; 'I' for Inactive)
REMARK    1  A    between atoms: O1_2  and  C2_3 
REMARK    2  A    between atoms: C4_5  and  C5_6 
REMARK    3  A    between atoms: C5_6  and  C6_7 
REMARK    4  A    between atoms: C6_7  and  C7_8 
REMARK    5  A    between atoms: C11_12  and  C12_13 
REMARK    6  A    between atoms: N1_19  and  C15_20 
REMARK    7  A    between atoms: C17_23  and  C18_24 
REMARK    8  A    between atoms: C18_24  and  N3_25 
ROOT
HETATM    1  C2  UNL     1      26.225   1.865  51.911  1.00  0.00     0.077 A 
HETATM    2  C3  UNL     1      24.968   1.795  51.535  1.00  0.00     0.051 A 
HETATM    3  C4  UNL     1      23.970   0.989  52.242  1.00  0.00    -0.008 A 
HETATM    4  C14 UNL     1      24.363   0.210  53.434  1.00  0.00     0.068 A 
HETATM    5  N1  UNL     1      23.980  -0.556  54.321  1.00  0.00    -0.242 NA
HETATM    6  C16 UNL     1      25.799   0.341  53.796  1.00  0.00     0.044 A 
HETATM    7  C17 UNL     1      26.644   1.111  53.080  1.00  0.00     0.005 A 
ENDROOT
BRANCH   3   8
HETATM    8  C5  UNL     1      22.707   0.804  52.019  1.00  0.00    -0.012 C 
BRANCH   8   9
HETATM    9  C6  UNL     1      21.373   0.546  51.557  1.00  0.00     0.036 C 
BRANCH   9  10
HETATM   10  C7  UNL     1      20.932   1.537  50.459  1.00  0.00     0.016 A 
HETATM   11  C8  UNL     1      21.321   1.007  49.144  1.00  0.00    -0.021 A 
HETATM   12  C9  UNL     1      22.042   1.495  48.153  1.00  0.00    -0.003 A 
HETATM   13  C10 UNL     1      22.580   2.830  48.375  1.00  0.00     0.011 A 
HETATM   14  C11 UNL     1      22.251   3.340  49.547  1.00  0.00     0.026 A 
HETATM   15  C13 UNL     1      21.464   2.903  50.722  1.00  0.00     0.052 A 
BRANCH  14  16
HETATM   16  C12 UNL     1      22.772   4.711  49.839  1.00  0.00     0.413 C 
HETATM   17  F1  UNL     1      23.345   4.704  51.113  1.00  0.00    -0.166 F 
HETATM   18  F2  UNL     1      23.779   5.093  48.979  1.00  0.00    -0.166 F 
HETATM   19  F3  UNL     1      21.769   5.657  49.746  1.00  0.00    -0.166 F 
ENDBRANCH  14  16
ENDBRANCH   9  10
ENDBRANCH   8   9
ENDBRANCH   3   8
BRANCH   1  20
HETATM   20  O1  UNL     1      27.016   2.674  51.122  1.00  0.00    -0.355 OA
HETATM   21  C1  UNL     1      26.539   3.447  50.050  1.00  0.00     0.210 C 
ENDBRANCH   1  20
BRANCH   5  22
HETATM   22  C15 UNL     1      22.758  -1.111  54.608  1.00  0.00     0.224 C 
HETATM   23  N2  UNL     1      22.863  -1.839  55.691  1.00  0.00    -0.293 NA
HETATM   24  H15 UNL     1      23.796  -1.897  56.162  1.00  0.00     0.187 HD
ENDBRANCH   5  22
BRANCH   7  25
HETATM   25  C18 UNL     1      28.113   1.333  53.332  1.00  0.00     0.308 C 
BRANCH  25  26
HETATM   26  N3  UNL     1      28.369   2.646  53.839  1.00  0.00     0.082 N 
HETATM   27  H19 UNL     1      28.784   2.561  54.797  1.00  0.00     0.313 HD
HETATM   28  H20 UNL     1      27.467   3.167  53.949  1.00  0.00     0.313 HD
ENDBRANCH  25  26
ENDBRANCH   7  25
TORSDOF 8
ENDMDL
MODEL 3
REMARK VINA RESULT:      -7.4      2.828      4.236
REMARK  8 active torsions:
REMARK  status: ('A' for Active; 'I' for Inactive)
REMARK    1  A    between atoms: O1_2  and  C2_3 
REMARK    2  A    between atoms: C4_5  and  C5_6 
REMARK    3  A    between atoms: C5_6  and  C6_7 
REMARK    4  A    between atoms: C6_7  and  C7_8 
REMARK    5  A    between atoms: C11_12  and  C12_13 
REMARK    6  A    between atoms: N1_19  and  C15_20 
REMARK    7  A    between atoms: C17_23  and  C18_24 
REMARK    8  A    between atoms: C18_24  and  N3_25 
ROOT
HETATM    1  C2  UNL     1      23.967  -0.169  53.377  1.00  0.00     0.077 A 
HETATM    2  C3  UNL     1      24.290   0.669  52.419  1.00  0.00     0.051 A 
HETATM    3  C4  UNL     1      25.554   1.410  52.404  1.00  0.00    -0.008 A 
HETATM    4  C14 UNL     1      26.527   1.228  53.500  1.00  0.00     0.068 A 
HETATM    5  N1  UNL     1      27.627   1.557  53.950  1.00  0.00    -0.242 NA
HETATM    6  C16 UNL     1      26.090   0.264  54.544  1.00  0.00     0.044 A 
HETATM    7  C17 UNL     1      24.902  -0.372  54.470  1.00  0.00     0.005 A 
ENDROOT
BRANCH   3   8
HETATM    8  C5  UNL     1      26.034   2.264  51.556  1.00  0.00    -0.012 C 
BRANCH   8   9
HETATM    9  C6  UNL     1      26.353   3.302  50.617  1.00  0.00     0.036 C 
BRANCH   9  10
HETATM   10  C7  UNL     1      25.093   4.007  50.073  1.00  0.00     0.016 A 
HETATM   11  C8  UNL     1      24.328   4.567  51.197  1.00  0.00    -0.021 A 
HETATM   12  C9  UNL     1      23.079   4.422  51.597  1.00  0.00    -0.003 A 
HETATM   13  C10 UNL     1      22.265   3.532  50.784  1.00  0.00     0.011 A 
HETATM   14  C11 UNL     1      22.917   3.009  49.763  1.00  0.00     0.026 A 
HETATM   15  C13 UNL     1      24.291   3.090  49.216  1.00  0.00     0.052 A 
BRANCH  14  16
HETATM   16  C12 UNL     1      22.138   2.083  48.885  1.00  0.00     0.413 C 
HETATM   17  F1  UNL     1      22.844   1.904  47.693  1.00  0.00    -0.166 F 
HETATM   18  F2  UNL     1      22.000   0.823  49.429  1.00  0.00    -0.166 F 
HETATM   19  F3  UNL     1      20.867   2.571  48.647  1.00  0.00    -0.166 F 
ENDBRANCH  14  16
ENDBRANCH   9  10
ENDBRANCH   8   9
ENDBRANCH   3   8
BRANCH   1  20
HETATM   20  O1  UNL     1      22.737  -0.774  53.220  1.00  0.00    -0.355 OA
HETATM   21  C1  UNL     1      21.656  -0.204  52.525  1.00  0.00     0.210 C 
ENDBRANCH   1  20
BRANCH   5  22
HETATM   22  C15 UNL     1      28.595   2.421  53.503  1.00  0.00     0.224 C 
HETATM   23  N2  UNL     1      29.576   2.449  54.368  1.00  0.00    -0.293 NA
HETATM   24  H15 UNL     1      29.501   1.852  55.225  1.00  0.00     0.187 HD
ENDBRANCH   5  22
BRANCH   7  25
HETATM   25  C18 UNL     1      24.336  -1.366  55.450  1.00  0.00     0.308 C 
BRANCH  25  26
HETATM   26  N3  UNL     1      25.028  -1.327  56.701  1.00  0.00     0.082 N 
HETATM   27  H19 UNL     1      24.754  -2.168  57.263  1.00  0.00     0.313 HD
HETATM   28  H20 UNL     1      24.724  -0.489  57.250  1.00  0.00     0.313 HD
ENDBRANCH  25  26
ENDBRANCH   7  25
TORSDOF 8
ENDMDL
MODEL 4
REMARK VINA RESULT:      -7.4      3.410      4.814
REMARK  8 active torsions:
REMARK  status: ('A' for Active; 'I' for Inactive)
REMARK    1  A    between atoms: O1_2  and  C2_3 
REMARK    2  A    between atoms: C4_5  and  C5_6 
REMARK    3  A    between atoms: C5_6  and  C6_7 
REMARK    4  A    between atoms: C6_7  and  C7_8 
REMARK    5  A    between atoms: C11_12  and  C12_13 
REMARK    6  A    between atoms: N1_19  and  C15_20 
REMARK    7  A    between atoms: C17_23  and  C18_24 
REMARK    8  A    between atoms: C18_24  and  N3_25 
ROOT
HETATM    1  C2  UNL     1      25.915   0.956  52.890  1.00  0.00     0.077 A 
HETATM    2  C3  UNL     1      24.792   1.064  52.218  1.00  0.00     0.051 A 
HETATM    3  C4  UNL     1      23.563   0.364  52.603  1.00  0.00    -0.008 A 
HETATM    4  C14 UNL     1      23.556  -0.507  53.796  1.00  0.00     0.068 A 
HETATM    5  N1  UNL     1      22.880  -1.254  54.507  1.00  0.00    -0.242 NA
HETATM    6  C16 UNL     1      24.863  -0.577  54.503  1.00  0.00     0.044 A 
HETATM    7  C17 UNL     1      25.942   0.107  54.069  1.00  0.00     0.005 A 
ENDROOT
BRANCH   3   8
HETATM    8  C5  UNL     1      22.383   0.352  52.069  1.00  0.00    -0.012 C 
BRANCH   8   9
HETATM    9  C6  UNL     1      21.140   0.537  51.376  1.00  0.00     0.036 C 
BRANCH   9  10
HETATM   10  C7  UNL     1      21.095   1.870  50.599  1.00  0.00     0.016 A 
HETATM   11  C8  UNL     1      21.919   1.752  49.388  1.00  0.00    -0.021 A 
HETATM   12  C9  UNL     1      22.933   2.452  48.916  1.00  0.00    -0.003 A 
HETATM   13  C10 UNL     1      23.348   3.577  49.740  1.00  0.00     0.011 A 
HETATM   14  C11 UNL     1      22.630   3.717  50.839  1.00  0.00     0.026 A 
HETATM   15  C13 UNL     1      21.489   3.013  51.469  1.00  0.00     0.052 A 
BRANCH  14  16
HETATM   16  C12 UNL     1      23.004   4.855  51.732  1.00  0.00     0.413 C 
HETATM   17  F1  UNL     1      23.335   4.342  52.989  1.00  0.00    -0.166 F 
HETATM   18  F2  UNL     1      24.126   5.528  51.297  1.00  0.00    -0.166 F 
HETATM   19  F3  UNL     1      21.979   5.778  51.821  1.00  0.00    -0.166 F 
ENDBRANCH  14  16
ENDBRANCH   9  10
ENDBRANCH   8   9
ENDBRANCH   3   8
BRANCH   1  20
HETATM   20  O1  UNL     1      26.964   1.688  52.375  1.00  0.00    -0.355 OA
HETATM   21  C1  UNL     1      26.840   2.635  51.345  1.00  0.00     0.210 C 
ENDBRANCH   1  20
BRANCH   5  22
HETATM   22  C15 UNL     1      21.570  -1.659  54.450  1.00  0.00     0.224 C 
HETATM   23  N2  UNL     1      20.815  -0.744  55.003  1.00  0.00    -0.293 NA
HETATM   24  H15 UNL     1      21.275   0.114  55.386  1.00  0.00     0.187 HD
ENDBRANCH   5  22
BRANCH   7  25
HETATM   25  C18 UNL     1      27.317   0.128  54.683  1.00  0.00     0.308 C 
BRANCH  25  26
HETATM   26  N3  UNL     1      28.214  -0.752  53.999  1.00  0.00     0.082 N 
HETATM   27  H19 UNL     1      28.203  -1.682  54.480  1.00  0.00     0.313 HD
HETATM   28  H20 UNL     1      29.193  -0.388  54.073  1.00  0.00     0.313 HD
ENDBRANCH  25  26
ENDBRANCH   7  25
TORSDOF 8
ENDMDL
MODEL 5
REMARK VINA RESULT:      -7.2      3.680      6.388
REMARK  8 active torsions:
REMARK  status: ('A' for Active; 'I' for Inactive)
REMARK    1  A    between atoms: O1_2  and  C2_3 
REMARK    2  A    between atoms: C4_5  and  C5_6 
REMARK    3  A    between atoms: C5_6  and  C6_7 
REMARK    4  A    between atoms: C6_7  and  C7_8 
REMARK    5  A    between atoms: C11_12  and  C12_13 
REMARK    6  A    between atoms: N1_19  and  C15_20 
REMARK    7  A    between atoms: C17_23  and  C18_24 
REMARK    8  A    between atoms: C18_24  and  N3_25 
ROOT
HETATM    1  C2  UNL     1      28.356   6.251  48.180  1.00  0.00     0.077 A 
HETATM    2  C3  UNL     1      27.795   5.140  48.598  1.00  0.00     0.051 A 
HETATM    3  C4  UNL     1      26.572   5.122  49.405  1.00  0.00    -0.008 A 
HETATM    4  C14 UNL     1      25.918   6.393  49.780  1.00  0.00     0.068 A 
HETATM    5  N1  UNL     1      24.974   6.914  50.379  1.00  0.00    -0.242 NA
HETATM    6  C16 UNL     1      26.613   7.604  49.270  1.00  0.00     0.044 A 
HETATM    7  C17 UNL     1      27.738   7.519  48.532  1.00  0.00     0.005 A 
ENDROOT
BRANCH   3   8
HETATM    8  C5  UNL     1      25.887   4.138  49.898  1.00  0.00    -0.012 C 
BRANCH   8   9
HETATM    9  C6  UNL     1      25.148   2.954  50.233  1.00  0.00     0.036 C 
BRANCH   9  10
HETATM   10  C7  UNL     1      25.421   2.484  51.678  1.00  0.00     0.016 A 
HETATM   11  C8  UNL     1      26.558   1.551  51.677  1.00  0.00    -0.021 A 
HETATM   12  C9  UNL     1      26.709   0.315  52.114  1.00  0.00    -0.003 A 
HETATM   13  C10 UNL     1      25.530  -0.276  52.726  1.00  0.00     0.011 A 
HETATM   14  C11 UNL     1      24.486   0.532  52.746  1.00  0.00     0.026 A 
HETATM   15  C13 UNL     1      24.193   1.913  52.298  1.00  0.00     0.052 A 
BRANCH  14  16
HETATM   16  C12 UNL     1      23.239  -0.014  53.363  1.00  0.00     0.413 C 
HETATM   17  F1  UNL     1      22.402   1.055  53.690  1.00  0.00    -0.166 F 
HETATM   18  F2  UNL     1      22.515  -0.801  52.492  1.00  0.00    -0.166 F 
HETATM   19  F3  UNL     1      23.526  -0.786  54.473  1.00  0.00    -0.166 F 
ENDBRANCH  14  16
ENDBRANCH   9  10
ENDBRANCH   8   9
ENDBRANCH   3   8
BRANCH   1  20
HETATM   20  O1  UNL     1      29.502   6.070  47.434  1.00  0.00    -0.355 OA
HETATM   21  C1  UNL     1      30.677   5.470  47.918  1.00  0.00     0.210 C 
ENDBRANCH   1  20
BRANCH   5  22
HETATM   22  C15 UNL     1      23.924   6.395  51.093  1.00  0.00     0.224 C 
HETATM   23  N2  UNL     1      24.234   6.387  52.365  1.00  0.00    -0.293 NA
HETATM   24  H15 UNL     1      25.173   6.752  52.649  1.00  0.00     0.187 HD
ENDBRANCH   5  22
BRANCH   7  25
HETATM   25  C18 UNL     1      28.540   8.656  47.954  1.00  0.00     0.308 C 
BRANCH  25  26
HETATM   26  N3  UNL     1      29.719   8.915  48.722  1.00  0.00     0.082 N 
HETATM   27  H19 UNL     1      29.578   8.539  49.690  1.00  0.00     0.313 HD
HETATM   28  H20 UNL     1      29.859   9.947  48.820  1.00  0.00     0.313 HD
ENDBRANCH  25  26
ENDBRANCH   7  25
TORSDOF 8
ENDMDL
MODEL 6
REMARK VINA RESULT:      -7.0      3.940      5.278
REMARK  8 active torsions:
REMARK  status: ('A' for Active; 'I' for Inactive)
REMARK    1  A    between atoms: O1_2  and  C2_3 
REMARK    2  A    between atoms: C4_5  and  C5_6 
REMARK    3  A    between atoms: C5_6  and  C6_7 
REMARK    4  A    between atoms: C6_7  and  C7_8 
REMARK    5  A    between atoms: C11_12  and  C12_13 
REMARK    6  A    between atoms: N1_19  and  C15_20 
REMARK    7  A    between atoms: C17_23  and  C18_24 
REMARK    8  A    between atoms: C18_24  and  N3_25 
ROOT
HETATM    1  C2  UNL     1      26.917   1.156  52.803  1.00  0.00     0.077 A 
HETATM    2  C3  UNL     1      25.969   2.064  52.742  1.00  0.00     0.051 A 
HETATM    3  C4  UNL     1      24.545   1.734  52.841  1.00  0.00    -0.008 A 
HETATM    4  C14 UNL     1      24.125   0.329  53.020  1.00  0.00     0.068 A 
HETATM    5  N1  UNL     1      23.169  -0.440  53.150  1.00  0.00    -0.242 NA
HETATM    6  C16 UNL     1      25.254  -0.637  53.081  1.00  0.00     0.044 A 
HETATM    7  C17 UNL     1      26.538  -0.235  52.979  1.00  0.00     0.005 A 
ENDROOT
BRANCH   3   8
HETATM    8  C5  UNL     1      23.489   2.484  52.802  1.00  0.00    -0.012 C 
BRANCH   8   9
HETATM    9  C6  UNL     1      22.447   3.456  52.628  1.00  0.00     0.036 C 
BRANCH   9  10
HETATM   10  C7  UNL     1      22.360   3.964  51.173  1.00  0.00     0.016 A 
HETATM   11  C8  UNL     1      22.143   2.823  50.273  1.00  0.00    -0.021 A 
HETATM   12  C9  UNL     1      22.791   2.373  49.215  1.00  0.00    -0.003 A 
HETATM   13  C10 UNL     1      23.967   3.141  48.834  1.00  0.00     0.011 A 
HETATM   14  C11 UNL     1      24.195   4.177  49.620  1.00  0.00     0.026 A 
HETATM   15  C13 UNL     1      23.556   4.776  50.814  1.00  0.00     0.052 A 
BRANCH  14  16
HETATM   16  C12 UNL     1      25.390   5.010  49.285  1.00  0.00     0.413 C 
HETATM   17  F1  UNL     1      25.781   5.705  50.431  1.00  0.00    -0.166 F 
HETATM   18  F2  UNL     1      26.482   4.252  48.918  1.00  0.00    -0.166 F 
HETATM   19  F3  UNL     1      25.120   5.875  48.241  1.00  0.00    -0.166 F 
ENDBRANCH  14  16
ENDBRANCH   9  10
ENDBRANCH   8   9
ENDBRANCH   3   8
BRANCH   1  20
HETATM   20  O1  UNL     1      28.197   1.656  52.690  1.00  0.00    -0.355 OA
HETATM   21  C1  UNL     1      28.793   2.527  53.618  1.00  0.00     0.210 C 
ENDBRANCH   1  20
BRANCH   5  22
HETATM   22  C15 UNL     1      21.812  -0.239  53.186  1.00  0.00     0.224 C 
HETATM   23  N2  UNL     1      21.444  -0.022  54.423  1.00  0.00    -0.293 NA
HETATM   24  H15 UNL     1      22.180  -0.027  55.168  1.00  0.00     0.187 HD
ENDBRANCH   5  22
BRANCH   7  25
HETATM   25  C18 UNL     1      27.771  -1.099  53.024  1.00  0.00     0.308 C 
BRANCH  25  26
HETATM   26  N3  UNL     1      27.443  -2.491  52.990  1.00  0.00     0.082 N 
HETATM   27  H19 UNL     1      27.479  -2.868  53.967  1.00  0.00     0.313 HD
HETATM   28  H20 UNL     1      28.165  -3.013  52.441  1.00  0.00     0.313 HD
ENDBRANCH  25  26
ENDBRANCH   7  25
TORSDOF 8
ENDMDL
MODEL 7
REMARK VINA RESULT:      -6.9      3.906      6.892
REMARK  8 active torsions:
REMARK  status: ('A' for Active; 'I' for Inactive)
REMARK    1  A    between atoms: O1_2  and  C2_3 
REMARK    2  A    between atoms: C4_5  and  C5_6 
REMARK    3  A    between atoms: C5_6  and  C6_7 
REMARK    4  A    between atoms: C6_7  and  C7_8 
REMARK    5  A    between atoms: C11_12  and  C12_13 
REMARK    6  A    between atoms: N1_19  and  C15_20 
REMARK    7  A    between atoms: C17_23  and  C18_24 
REMARK    8  A    between atoms: C18_24  and  N3_25 
ROOT
HETATM    1  C2  UNL     1      19.927   0.341  52.409  1.00  0.00     0.077 A 
HETATM    2  C3  UNL     1      21.035  -0.222  52.832  1.00  0.00     0.051 A 
HETATM    3  C4  UNL     1      22.307   0.498  52.928  1.00  0.00    -0.008 A 
HETATM    4  C14 UNL     1      22.378   1.922  52.540  1.00  0.00     0.068 A 
HETATM    5  N1  UNL     1      23.105   2.912  52.432  1.00  0.00    -0.242 NA
HETATM    6  C16 UNL     1      21.084   2.487  52.073  1.00  0.00     0.044 A 
HETATM    7  C17 UNL     1      19.962   1.741  52.019  1.00  0.00     0.005 A 
ENDROOT
BRANCH   3   8
HETATM    8  C5  UNL     1      23.481   0.111  53.317  1.00  0.00    -0.012 C 
BRANCH   8   9
HETATM    9  C6  UNL     1      24.673  -0.505  53.828  1.00  0.00     0.036 C 
BRANCH   9  10
HETATM   10  C7  UNL     1      25.842  -0.439  52.823  1.00  0.00     0.016 A 
HETATM   11  C8  UNL     1      26.326  -1.801  52.553  1.00  0.00    -0.021 A 
HETATM   12  C9  UNL     1      27.512  -2.371  52.649  1.00  0.00    -0.003 A 
HETATM   13  C10 UNL     1      28.583  -1.503  53.114  1.00  0.00     0.011 A 
HETATM   14  C11 UNL     1      28.188  -0.269  53.367  1.00  0.00     0.026 A 
HETATM   15  C13 UNL     1      26.912   0.480  53.301  1.00  0.00     0.052 A 
BRANCH  14  16
HETATM   16  C12 UNL     1      29.240   0.676  53.850  1.00  0.00     0.413 C 
HETATM   17  F1  UNL     1      29.052   1.907  53.218  1.00  0.00    -0.166 F 
HETATM   18  F2  UNL     1      29.145   0.933  55.202  1.00  0.00    -0.166 F 
HETATM   19  F3  UNL     1      30.507   0.177  53.613  1.00  0.00    -0.166 F 
ENDBRANCH  14  16
ENDBRANCH   9  10
ENDBRANCH   8   9
ENDBRANCH   3   8
BRANCH   1  20
HETATM   20  O1  UNL     1      18.830  -0.495  52.386  1.00  0.00    -0.355 OA
HETATM   21  C1  UNL     1      18.502  -1.401  53.409  1.00  0.00     0.210 C 
ENDBRANCH   1  20
BRANCH   5  22
HETATM   22  C15 UNL     1      24.436   3.122  52.688  1.00  0.00     0.224 C 
HETATM   23  N2  UNL     1      24.958   3.807  51.702  1.00  0.00    -0.293 NA
HETATM   24  H15 UNL     1      24.337   4.086  50.907  1.00  0.00     0.187 HD
ENDBRANCH   5  22
BRANCH   7  25
HETATM   25  C18 UNL     1      18.594   2.181  51.570  1.00  0.00     0.308 C 
BRANCH  25  26
HETATM   26  N3  UNL     1      18.464   3.606  51.588  1.00  0.00     0.082 N 
HETATM   27  H19 UNL     1      18.800   3.985  50.671  1.00  0.00     0.313 HD
HETATM   28  H20 UNL     1      19.088   4.009  52.326  1.00  0.00     0.313 HD
ENDBRANCH  25  26
ENDBRANCH   7  25
TORSDOF 8
ENDMDL
MODEL 8
REMARK VINA RESULT:      -6.9      7.320     10.716
REMARK  8 active torsions:
REMARK  status: ('A' for Active; 'I' for Inactive)
REMARK    1  A    between atoms: O1_2  and  C2_3 
REMARK    2  A    between atoms: C4_5  and  C5_6 
REMARK    3  A    between atoms: C5_6  and  C6_7 
REMARK    4  A    between atoms: C6_7  and  C7_8 
REMARK    5  A    between atoms: C11_12  and  C12_13 
REMARK    6  A    between atoms: N1_19  and  C15_20 
REMARK    7  A    between atoms: C17_23  and  C18_24 
REMARK    8  A    between atoms: C18_24  and  N3_25 
ROOT
HETATM    1  C2  UNL     1      25.825   6.134  49.292  1.00  0.00     0.077 A 
HETATM    2  C3  UNL     1      26.907   5.898  48.586  1.00  0.00     0.051 A 
HETATM    3  C4  UNL     1      28.010   6.856  48.478  1.00  0.00    -0.008 A 
HETATM    4  C14 UNL     1      27.931   8.152  49.183  1.00  0.00     0.068 A 
HETATM    5  N1  UNL     1      28.504   9.219  49.420  1.00  0.00    -0.242 NA
HETATM    6  C16 UNL     1      26.678   8.343  49.960  1.00  0.00     0.044 A 
HETATM    7  C17 UNL     1      25.716   7.399  49.998  1.00  0.00     0.005 A 
ENDROOT
BRANCH   3   8
HETATM    8  C5  UNL     1      29.135   6.796  47.839  1.00  0.00    -0.012 C 
BRANCH   8   9
HETATM    9  C6  UNL     1      30.475   6.685  47.337  1.00  0.00     0.036 C 
BRANCH   9  10
HETATM   10  C7  UNL     1      31.444   6.092  48.382  1.00  0.00     0.016 A 
HETATM   11  C8  UNL     1      32.556   7.029  48.599  1.00  0.00    -0.021 A 
HETATM   12  C9  UNL     1      33.867   6.907  48.514  1.00  0.00    -0.003 A 
HETATM   13  C10 UNL     1      34.345   5.588  48.127  1.00  0.00     0.011 A 
HETATM   14  C11 UNL     1      33.375   4.717  47.924  1.00  0.00     0.026 A 
HETATM   15  C13 UNL     1      31.895   4.728  47.985  1.00  0.00     0.052 A 
BRANCH  14  16
HETATM   16  C12 UNL     1      33.797   3.340  47.523  1.00  0.00     0.413 C 
HETATM   17  F1  UNL     1      32.921   2.421  48.106  1.00  0.00    -0.166 F 
HETATM   18  F2  UNL     1      33.706   3.129  46.163  1.00  0.00    -0.166 F 
HETATM   19  F3  UNL     1      35.105   3.091  47.892  1.00  0.00    -0.166 F 
ENDBRANCH  14  16
ENDBRANCH   9  10
ENDBRANCH   8   9
ENDBRANCH   3   8
BRANCH   1  20
HETATM   20  O1  UNL     1      24.895   5.115  49.274  1.00  0.00    -0.355 OA
HETATM   21  C1  UNL     1      25.171   3.784  49.629  1.00  0.00     0.210 C 
ENDBRANCH   1  20
BRANCH   5  22
HETATM   22  C15 UNL     1      29.714   9.733  49.027  1.00  0.00     0.224 C 
HETATM   23  N2  UNL     1      30.519   9.767  50.058  1.00  0.00    -0.293 NA
HETATM   24  H15 UNL     1      30.161   9.422  50.980  1.00  0.00     0.187 HD
ENDBRANCH   5  22
BRANCH   7  25
HETATM   25  C18 UNL     1      24.405   7.460  50.739  1.00  0.00     0.308 C 
BRANCH  25  26
HETATM   26  N3  UNL     1      24.454   6.716  51.960  1.00  0.00     0.082 N 
HETATM   27  H19 UNL     1      24.085   5.752  51.781  1.00  0.00     0.313 HD
HETATM   28  H20 UNL     1      23.818   7.154  52.668  1.00  0.00     0.313 HD
ENDBRANCH  25  26
ENDBRANCH   7  25
TORSDOF 8
ENDMDL
MODEL 9
REMARK VINA RESULT:      -6.9      4.798      6.714
REMARK  8 active torsions:
REMARK  status: ('A' for Active; 'I' for Inactive)
REMARK    1  A    between atoms: O1_2  and  C2_3 
REMARK    2  A    between atoms: C4_5  and  C5_6 
REMARK    3  A    between atoms: C5_6  and  C6_7 
REMARK    4  A    between atoms: C6_7  and  C7_8 
REMARK    5  A    between atoms: C11_12  and  C12_13 
REMARK    6  A    between atoms: N1_19  and  C15_20 
REMARK    7  A    between atoms: C17_23  and  C18_24 
REMARK    8  A    between atoms: C18_24  and  N3_25 
ROOT
HETATM    1  C2  UNL     1      23.892  -0.044  53.425  1.00  0.00     0.077 A 
HETATM    2  C3  UNL     1      24.201   1.021  52.722  1.00  0.00     0.051 A 
HETATM    3  C4  UNL     1      23.210   2.020  52.315  1.00  0.00    -0.008 A 
HETATM    4  C14 UNL     1      21.793   1.850  52.698  1.00  0.00     0.068 A 
HETATM    5  N1  UNL     1      20.657   2.327  52.636  1.00  0.00    -0.242 NA
HETATM    6  C16 UNL     1      21.524   0.622  53.493  1.00  0.00     0.044 A 
HETATM    7  C17 UNL     1      22.508  -0.242  53.819  1.00  0.00     0.005 A 
ENDROOT
BRANCH   3   8
HETATM    8  C5  UNL     1      23.330   3.114  51.631  1.00  0.00    -0.012 C 
BRANCH   8   9
HETATM    9  C6  UNL     1      23.606   4.394  51.043  1.00  0.00     0.036 C 
BRANCH   9  10
HETATM   10  C7  UNL     1      24.287   4.268  49.663  1.00  0.00     0.016 A 
HETATM   11  C8  UNL     1      25.322   3.226  49.728  1.00  0.00    -0.021 A 
HETATM   12  C9  UNL     1      26.614   3.221  49.457  1.00  0.00    -0.003 A 
HETATM   13  C10 UNL     1      27.158   4.491  49.001  1.00  0.00     0.011 A 
HETATM   14  C11 UNL     1      26.258   5.453  48.929  1.00  0.00     0.026 A 
HETATM   15  C13 UNL     1      24.807   5.584  49.199  1.00  0.00     0.052 A 
BRANCH  14  16
HETATM   16  C12 UNL     1      26.751   6.786  48.466  1.00  0.00     0.413 C 
HETATM   17  F1  UNL     1      28.033   6.624  47.936  1.00  0.00    -0.166 F 
HETATM   18  F2  UNL     1      25.988   7.311  47.445  1.00  0.00    -0.166 F 
HETATM   19  F3  UNL     1      26.747   7.706  49.498  1.00  0.00    -0.166 F 
ENDBRANCH  14  16
ENDBRANCH   9  10
ENDBRANCH   8   9
ENDBRANCH   3   8
BRANCH   1  20
HETATM   20  O1  UNL     1      24.958  -0.871  53.713  1.00  0.00    -0.355 OA
HETATM   21  C1  UNL     1      26.169  -0.881  52.999  1.00  0.00     0.210 C 
ENDBRANCH   1  20
BRANCH   5  22
HETATM   22  C15 UNL     1      20.155   3.461  52.050  1.00  0.00     0.224 C 
HETATM   23  N2  UNL     1      19.774   3.180  50.830  1.00  0.00    -0.293 NA
HETATM   24  H15 UNL     1      19.893   2.199  50.486  1.00  0.00     0.187 HD
ENDBRANCH   5  22
BRANCH   7  25
HETATM   25  C18 UNL     1      22.378  -1.515  54.613  1.00  0.00     0.308 C 
BRANCH  25  26
HETATM   26  N3  UNL     1      23.193  -1.489  55.789  1.00  0.00     0.082 N 
HETATM   27  H19 UNL     1      24.075  -0.967  55.575  1.00  0.00     0.313 HD
HETATM   28  H20 UNL     1      23.477  -2.463  56.046  1.00  0.00     0.313 HD
ENDBRANCH  25  26
ENDBRANCH   7  25
TORSDOF 8
ENDMDL
