MODEL 1
REMARK VINA RESULT:      -9.0      0.000      0.000
REMARK  5 active torsions:
REMARK  status: ('A' for Active; 'I' for Inactive)
REMARK    1  A    between atoms: N1_6  and  C6_7 
REMARK    2  A    between atoms: N4_17  and  C14_18 
REMARK    3  A    between atoms: C14_18  and  C15_19 
REMARK    4  A    between atoms: C15_19  and  C16_20 
REMARK    5  A    between atoms: C16_20  and  N5_21 
ROOT
HETATM    1  C6  UNL     1      21.041   3.238  50.302  1.00  0.00     0.148 A 
HETATM    2  N2  UNL     1      20.027   3.706  49.557  1.00  0.00    -0.223 NA
HETATM    3  C7  UNL     1      18.787   3.190  49.645  1.00  0.00     0.236 A 
HETATM    4  N3  UNL     1      18.524   2.180  50.491  1.00  0.00    -0.241 NA
HETATM    5  C8  UNL     1      19.518   1.679  51.259  1.00  0.00     0.075 A 
HETATM    6  C9  UNL     1      19.158   0.641  52.100  1.00  0.00     0.071 A 
HETATM    7  C10 UNL     1      20.156   0.115  52.896  1.00  0.00     0.098 A 
HETATM    8  C11 UNL     1      21.472   0.590  52.869  1.00  0.00     0.071 A 
HETATM    9  C12 UNL     1      21.792   1.632  52.011  1.00  0.00     0.050 A 
HETATM   10  C13 UNL     1      20.811   2.186  51.195  1.00  0.00     0.042 A 
HETATM   11  N4  UNL     1      22.510   0.055  53.692  1.00  0.00    -0.314 N 
HETATM   12  C21 UNL     1      22.138  -1.022  54.572  1.00  0.00     0.248 C 
HETATM   13  O2  UNL     1      22.871  -1.289  55.566  1.00  0.00    -0.271 OA
HETATM   14  C22 UNL     1      20.890  -1.783  54.268  1.00  0.00     0.279 C 
HETATM   15  O3  UNL     1      19.871  -0.939  53.776  1.00  0.00    -0.340 OA
ENDROOT
BRANCH  11  16
HETATM   16  C14 UNL     1      23.829   0.528  53.675  1.00  0.00     0.134 C 
BRANCH  16  17
HETATM   17  C15 UNL     1      24.762  -0.329  52.817  1.00  0.00     0.050 C 
BRANCH  17  18
HETATM   18  C16 UNL     1      26.069  -0.606  53.468  1.00  0.00     0.274 C 
BRANCH  18  19
HETATM   19  N5  UNL     1      27.233  -0.080  52.792  1.00  0.00     0.092 N 
HETATM   20  C17 UNL     1      28.385  -0.601  53.456  1.00  0.00     0.298 C 
HETATM   21  C18 UNL     1      28.958   0.176  54.573  1.00  0.00     0.198 C 
HETATM   22  O1  UNL     1      28.380   1.413  54.696  1.00  0.00    -0.388 OA
HETATM   23  C19 UNL     1      28.426   1.974  53.394  1.00  0.00     0.198 C 
HETATM   24  C20 UNL     1      27.224   1.360  52.695  1.00  0.00     0.298 C 
ENDBRANCH  18  19
ENDBRANCH  17  18
ENDBRANCH  16  17
ENDBRANCH  11  16
BRANCH   1  25
HETATM   25  N1  UNL     1      22.381   3.760  50.236  1.00  0.00    -0.309 N 
HETATM   26  C4  UNL     1      23.267   3.125  49.292  1.00  0.00     0.025 C 
HETATM   27  C3  UNL     1      24.545   3.206  49.510  1.00  0.00     0.005 C 
HETATM   28  C5  UNL     1      22.719   2.396  48.094  1.00  0.00     0.070 C 
HETATM   29  C2  UNL     1      24.974   4.423  49.794  1.00  0.00    -0.048 C 
HETATM   30  C1  UNL     1      26.139   5.235  49.298  1.00  0.00     0.049 C 
HETATM   31  C24 UNL     1      24.182   5.149  50.784  1.00  0.00     0.025 C 
HETATM   32  C23 UNL     1      22.894   4.844  51.025  1.00  0.00     0.099 C 
ENDBRANCH   1  25
TORSDOF 5
ENDMDL
MODEL 2
REMARK VINA RESULT:      -8.7      2.342      5.452
REMARK  5 active torsions:
REMARK  status: ('A' for Active; 'I' for Inactive)
REMARK    1  A    between atoms: N1_6  and  C6_7 
REMARK    2  A    between atoms: N4_17  and  C14_18 
REMARK    3  A    between atoms: C14_18  and  C15_19 
REMARK    4  A    between atoms: C15_19  and  C16_20 
REMARK    5  A    between atoms: C16_20  and  N5_21 
ROOT
HETATM    1  C6  UNL     1      21.602   1.063  52.718  1.00  0.00     0.148 A 
HETATM    2  N2  UNL     1      20.572   0.321  53.155  1.00  0.00    -0.223 NA
HETATM    3  C7  UNL     1      20.761  -0.778  53.907  1.00  0.00     0.236 A 
HETATM    4  N3  UNL     1      22.000  -1.171  54.248  1.00  0.00    -0.241 NA
HETATM    5  C8  UNL     1      23.065  -0.452  53.827  1.00  0.00     0.075 A 
HETATM    6  C9  UNL     1      24.302  -0.929  54.224  1.00  0.00     0.071 A 
HETATM    7  C10 UNL     1      25.405  -0.209  53.808  1.00  0.00     0.098 A 
HETATM    8  C11 UNL     1      25.301   0.945  53.024  1.00  0.00     0.071 A 
HETATM    9  C12 UNL     1      24.042   1.389  52.647  1.00  0.00     0.050 A 
HETATM   10  C13 UNL     1      22.909   0.689  53.049  1.00  0.00     0.042 A 
HETATM   11  N4  UNL     1      26.436   1.698  52.593  1.00  0.00    -0.314 N 
HETATM   12  C21 UNL     1      27.725   1.208  53.008  1.00  0.00     0.248 C 
HETATM   13  O2  UNL     1      28.717   1.990  52.994  1.00  0.00    -0.271 OA
HETATM   14  C22 UNL     1      27.831  -0.217  53.442  1.00  0.00     0.279 C 
HETATM   15  O3  UNL     1      26.693  -0.628  54.170  1.00  0.00    -0.340 OA
ENDROOT
BRANCH  11  16
HETATM   16  C14 UNL     1      26.341   2.858  51.812  1.00  0.00     0.134 C 
BRANCH  16  17
HETATM   17  C15 UNL     1      26.345   2.570  50.310  1.00  0.00     0.050 C 
BRANCH  17  18
HETATM   18  C16 UNL     1      25.693   3.637  49.506  1.00  0.00     0.274 C 
BRANCH  18  19
HETATM   19  N5  UNL     1      26.073   4.993  49.834  1.00  0.00     0.092 N 
HETATM   20  C17 UNL     1      24.890   5.680  50.245  1.00  0.00     0.298 C 
HETATM   21  C18 UNL     1      24.100   6.386  49.217  1.00  0.00     0.198 C 
HETATM   22  O1  UNL     1      24.740   6.423  48.005  1.00  0.00    -0.388 OA
HETATM   23  C19 UNL     1      26.047   6.895  48.291  1.00  0.00     0.198 C 
HETATM   24  C20 UNL     1      26.783   5.652  48.765  1.00  0.00     0.298 C 
ENDBRANCH  18  19
ENDBRANCH  17  18
ENDBRANCH  16  17
ENDBRANCH  11  16
BRANCH   1  25
HETATM   25  N1  UNL     1      21.444   2.244  51.910  1.00  0.00    -0.309 N 
HETATM   26  C4  UNL     1      21.590   2.067  50.487  1.00  0.00     0.025 C 
HETATM   27  C3  UNL     1      21.930   3.102  49.778  1.00  0.00     0.005 C 
HETATM   28  C5  UNL     1      21.354   0.722  49.850  1.00  0.00     0.070 C 
HETATM   29  C2  UNL     1      21.229   4.192  50.033  1.00  0.00    -0.048 C 
HETATM   30  C1  UNL     1      20.555   5.202  49.147  1.00  0.00     0.049 C 
HETATM   31  C24 UNL     1      21.057   4.505  51.450  1.00  0.00     0.025 C 
HETATM   32  C23 UNL     1      21.157   3.561  52.404  1.00  0.00     0.099 C 
ENDBRANCH   1  25
TORSDOF 5
ENDMDL
MODEL 3
REMARK VINA RESULT:      -8.6      2.413      5.836
REMARK  5 active torsions:
REMARK  status: ('A' for Active; 'I' for Inactive)
REMARK    1  A    between atoms: N1_6  and  C6_7 
REMARK    2  A    between atoms: N4_17  and  C14_18 
REMARK    3  A    between atoms: C14_18  and  C15_19 
REMARK    4  A    between atoms: C15_19  and  C16_20 
REMARK    5  A    between atoms: C16_20  and  N5_21 
ROOT
HETATM    1  C6  UNL     1      24.337   0.151  53.827  1.00  0.00     0.148 A 
HETATM    2  N2  UNL     1      25.055  -0.377  54.830  1.00  0.00    -0.223 NA
HETATM    3  C7  UNL     1      24.516  -1.244  55.706  1.00  0.00     0.236 A 
HETATM    4  N3  UNL     1      23.228  -1.611  55.603  1.00  0.00    -0.241 NA
HETATM    5  C8  UNL     1      22.470  -1.101  54.606  1.00  0.00     0.075 A 
HETATM    6  C9  UNL     1      21.155  -1.534  54.575  1.00  0.00     0.071 A 
HETATM    7  C10 UNL     1      20.361  -1.029  53.564  1.00  0.00     0.098 A 
HETATM    8  C11 UNL     1      20.839  -0.124  52.610  1.00  0.00     0.071 A 
HETATM    9  C12 UNL     1      22.163   0.286  52.677  1.00  0.00     0.050 A 
HETATM   10  C13 UNL     1      22.991  -0.204  53.683  1.00  0.00     0.042 A 
HETATM   11  N4  UNL     1      20.027   0.400  51.559  1.00  0.00    -0.314 N 
HETATM   12  C21 UNL     1      18.660  -0.051  51.520  1.00  0.00     0.248 C 
HETATM   13  O2  UNL     1      18.002   0.061  50.447  1.00  0.00    -0.271 OA
HETATM   14  C22 UNL     1      18.075  -0.638  52.762  1.00  0.00     0.279 C 
HETATM   15  O3  UNL     1      19.019  -1.420  53.465  1.00  0.00    -0.340 OA
ENDROOT
BRANCH  11  16
HETATM   16  C14 UNL     1      20.498   1.304  50.596  1.00  0.00     0.134 C 
BRANCH  16  17
HETATM   17  C15 UNL     1      20.019   2.737  50.834  1.00  0.00     0.050 C 
BRANCH  17  18
HETATM   18  C16 UNL     1      21.093   3.641  51.323  1.00  0.00     0.274 C 
BRANCH  18  19
HETATM   19  N5  UNL     1      21.084   4.980  50.779  1.00  0.00     0.092 N 
HETATM   20  C17 UNL     1      20.930   4.865  49.364  1.00  0.00     0.298 C 
HETATM   21  C18 UNL     1      22.147   4.775  48.534  1.00  0.00     0.198 C 
HETATM   22  O1  UNL     1      23.288   5.000  49.260  1.00  0.00    -0.388 OA
HETATM   23  C19 UNL     1      23.046   6.204  49.968  1.00  0.00     0.198 C 
HETATM   24  C20 UNL     1      22.236   5.755  51.175  1.00  0.00     0.298 C 
ENDBRANCH  18  19
ENDBRANCH  17  18
ENDBRANCH  16  17
ENDBRANCH  11  16
BRANCH   1  25
HETATM   25  N1  UNL     1      24.874   1.083  52.869  1.00  0.00    -0.309 N 
HETATM   26  C4  UNL     1      26.080   0.676  52.192  1.00  0.00     0.025 C 
HETATM   27  C3  UNL     1      26.848   1.607  51.709  1.00  0.00     0.005 C 
HETATM   28  C5  UNL     1      26.430  -0.782  52.052  1.00  0.00     0.070 C 
HETATM   29  C2  UNL     1      26.214   2.525  51.003  1.00  0.00    -0.048 C 
HETATM   30  C1  UNL     1      26.493   3.156  49.666  1.00  0.00     0.049 C 
HETATM   31  C24 UNL     1      24.997   3.054  51.615  1.00  0.00     0.025 C 
HETATM   32  C23 UNL     1      24.311   2.363  52.543  1.00  0.00     0.099 C 
ENDBRANCH   1  25
TORSDOF 5
ENDMDL
MODEL 4
REMARK VINA RESULT:      -8.4      1.917      6.355
REMARK  5 active torsions:
REMARK  status: ('A' for Active; 'I' for Inactive)
REMARK    1  A    between atoms: N1_6  and  C6_7 
REMARK    2  A    between atoms: N4_17  and  C14_18 
REMARK    3  A    between atoms: C14_18  and  C15_19 
REMARK    4  A    between atoms: C15_19  and  C16_20 
REMARK    5  A    between atoms: C16_20  and  N5_21 
ROOT
HETATM    1  C6  UNL     1      24.231   2.950  50.610  1.00  0.00     0.148 A 
HETATM    2  N2  UNL     1      25.270   3.448  49.922  1.00  0.00    -0.223 NA
HETATM    3  C7  UNL     1      26.529   3.023  50.135  1.00  0.00     0.236 A 
HETATM    4  N3  UNL     1      26.786   2.077  51.053  1.00  0.00    -0.241 NA
HETATM    5  C8  UNL     1      25.767   1.549  51.768  1.00  0.00     0.075 A 
HETATM    6  C9  UNL     1      26.123   0.581  52.691  1.00  0.00     0.071 A 
HETATM    7  C10 UNL     1      25.099   0.026  53.432  1.00  0.00     0.098 A 
HETATM    8  C11 UNL     1      23.762   0.408  53.276  1.00  0.00     0.071 A 
HETATM    9  C12 UNL     1      23.447   1.382  52.340  1.00  0.00     0.050 A 
HETATM   10  C13 UNL     1      24.455   1.963  51.576  1.00  0.00     0.042 A 
HETATM   11  N4  UNL     1      22.695  -0.164  54.035  1.00  0.00    -0.314 N 
HETATM   12  C21 UNL     1      23.061  -1.175  54.993  1.00  0.00     0.248 C 
HETATM   13  O2  UNL     1      22.177  -1.971  55.419  1.00  0.00    -0.271 OA
HETATM   14  C22 UNL     1      24.483  -1.238  55.443  1.00  0.00     0.279 C 
HETATM   15  O3  UNL     1      25.379  -0.962  54.387  1.00  0.00    -0.340 OA
ENDROOT
BRANCH  11  16
HETATM   16  C14 UNL     1      21.353   0.209  53.881  1.00  0.00     0.134 C 
BRANCH  16  17
HETATM   17  C15 UNL     1      20.683  -0.446  52.672  1.00  0.00     0.050 C 
BRANCH  17  18
HETATM   18  C16 UNL     1      19.836   0.491  51.890  1.00  0.00     0.274 C 
BRANCH  18  19
HETATM   19  N5  UNL     1      18.701  -0.099  51.216  1.00  0.00     0.092 N 
HETATM   20  C17 UNL     1      18.313   0.796  50.172  1.00  0.00     0.298 C 
HETATM   21  C18 UNL     1      17.308   1.833  50.479  1.00  0.00     0.198 C 
HETATM   22  O1  UNL     1      16.750   1.664  51.720  1.00  0.00    -0.388 OA
HETATM   23  C19 UNL     1      16.347   0.305  51.763  1.00  0.00     0.198 C 
HETATM   24  C20 UNL     1      17.626  -0.438  52.117  1.00  0.00     0.298 C 
ENDBRANCH  18  19
ENDBRANCH  17  18
ENDBRANCH  16  17
ENDBRANCH  11  16
BRANCH   1  25
HETATM   25  N1  UNL     1      22.870   3.378  50.414  1.00  0.00    -0.309 N 
HETATM   26  C4  UNL     1      22.396   4.416  51.294  1.00  0.00     0.025 C 
HETATM   27  C3  UNL     1      21.115   4.505  51.495  1.00  0.00     0.005 C 
HETATM   28  C5  UNL     1      23.361   5.366  51.954  1.00  0.00     0.070 C 
HETATM   29  C2  UNL     1      20.387   4.471  50.392  1.00  0.00    -0.048 C 
HETATM   30  C1  UNL     1      19.239   5.310  49.903  1.00  0.00     0.049 C 
HETATM   31  C24 UNL     1      20.743   3.419  49.442  1.00  0.00     0.025 C 
HETATM   32  C23 UNL     1      21.965   2.858  49.427  1.00  0.00     0.099 C 
ENDBRANCH   1  25
TORSDOF 5
ENDMDL
MODEL 5
REMARK VINA RESULT:      -7.8      2.947      6.639
REMARK  5 active torsions:
REMARK  status: ('A' for Active; 'I' for Inactive)
REMARK    1  A    between atoms: N1_6  and  C6_7 
REMARK    2  A    between atoms: N4_17  and  C14_18 
REMARK    3  A    between atoms: C14_18  and  C15_19 
REMARK    4  A    between atoms: C15_19  and  C16_20 
REMARK    5  A    between atoms: C16_20  and  N5_21 
ROOT
HETATM    1  C6  UNL     1      23.963  -0.410  53.833  1.00  0.00     0.148 A 
HETATM    2  N2  UNL     1      23.350  -1.124  54.790  1.00  0.00    -0.223 NA
HETATM    3  C7  UNL     1      22.036  -0.986  55.044  1.00  0.00     0.236 A 
HETATM    4  N3  UNL     1      21.290  -0.119  54.339  1.00  0.00    -0.241 NA
HETATM    5  C8  UNL     1      21.869   0.620  53.366  1.00  0.00     0.075 A 
HETATM    6  C9  UNL     1      21.026   1.486  52.691  1.00  0.00     0.071 A 
HETATM    7  C10 UNL     1      21.596   2.249  51.692  1.00  0.00     0.098 A 
HETATM    8  C11 UNL     1      22.953   2.170  51.361  1.00  0.00     0.071 A 
HETATM    9  C12 UNL     1      23.764   1.289  52.062  1.00  0.00     0.050 A 
HETATM   10  C13 UNL     1      23.223   0.505  53.076  1.00  0.00     0.042 A 
HETATM   11  N4  UNL     1      23.549   2.952  50.325  1.00  0.00    -0.314 N 
HETATM   12  C21 UNL     1      22.675   3.851  49.617  1.00  0.00     0.248 C 
HETATM   13  O2  UNL     1      23.021   4.285  48.482  1.00  0.00    -0.271 OA
HETATM   14  C22 UNL     1      21.383   4.234  50.263  1.00  0.00     0.279 C 
HETATM   15  O3  UNL     1      20.807   3.150  50.961  1.00  0.00    -0.340 OA
ENDROOT
BRANCH  11  16
HETATM   16  C14 UNL     1      24.906   2.875  49.984  1.00  0.00     0.134 C 
BRANCH  16  17
HETATM   17  C15 UNL     1      25.689   4.138  50.352  1.00  0.00     0.050 C 
BRANCH  17  18
HETATM   18  C16 UNL     1      26.400   4.745  49.196  1.00  0.00     0.274 C 
BRANCH  18  19
HETATM   19  N5  UNL     1      26.716   6.150  49.320  1.00  0.00     0.092 N 
HETATM   20  C17 UNL     1      25.556   6.804  49.838  1.00  0.00     0.298 C 
HETATM   21  C18 UNL     1      24.569   7.338  48.879  1.00  0.00     0.198 C 
HETATM   22  O1  UNL     1      25.017   7.277  47.585  1.00  0.00    -0.388 OA
HETATM   23  C19 UNL     1      26.309   7.859  47.612  1.00  0.00     0.198 C 
HETATM   24  C20 UNL     1      27.204   6.726  48.090  1.00  0.00     0.298 C 
ENDBRANCH  18  19
ENDBRANCH  17  18
ENDBRANCH  16  17
ENDBRANCH  11  16
BRANCH   1  25
HETATM   25  N1  UNL     1      25.366  -0.526  53.531  1.00  0.00    -0.309 N 
HETATM   26  C4  UNL     1      26.276   0.002  54.517  1.00  0.00     0.025 C 
HETATM   27  C3  UNL     1      27.462   0.357  54.121  1.00  0.00     0.005 C 
HETATM   28  C5  UNL     1      25.859   0.132  55.958  1.00  0.00     0.070 C 
HETATM   29  C2  UNL     1      28.074  -0.536  53.364  1.00  0.00    -0.048 C 
HETATM   30  C1  UNL     1      29.468  -1.100  53.379  1.00  0.00     0.049 C 
HETATM   31  C24 UNL     1      27.263  -1.107  52.291  1.00  0.00     0.025 C 
HETATM   32  C23 UNL     1      25.919  -1.117  52.345  1.00  0.00     0.099 C 
ENDBRANCH   1  25
TORSDOF 5
ENDMDL
MODEL 6
REMARK VINA RESULT:      -7.6      3.192      7.474
REMARK  5 active torsions:
REMARK  status: ('A' for Active; 'I' for Inactive)
REMARK    1  A    between atoms: N1_6  and  C6_7 
REMARK    2  A    between atoms: N4_17  and  C14_18 
REMARK    3  A    between atoms: C14_18  and  C15_19 
REMARK    4  A    between atoms: C15_19  and  C16_20 
REMARK    5  A    between atoms: C16_20  and  N5_21 
ROOT
HETATM    1  C6  UNL     1      22.275   0.595  52.523  1.00  0.00     0.148 A 
HETATM    2  N2  UNL     1      23.180  -0.295  52.956  1.00  0.00    -0.223 NA
HETATM    3  C7  UNL     1      24.471   0.038  53.138  1.00  0.00     0.236 A 
HETATM    4  N3  UNL     1      24.897   1.288  52.889  1.00  0.00    -0.241 NA
HETATM    5  C8  UNL     1      24.016   2.216  52.450  1.00  0.00     0.075 A 
HETATM    6  C9  UNL     1      24.541   3.476  52.219  1.00  0.00     0.071 A 
HETATM    7  C10 UNL     1      23.660   4.440  51.773  1.00  0.00     0.098 A 
HETATM    8  C11 UNL     1      22.302   4.181  51.557  1.00  0.00     0.071 A 
HETATM    9  C12 UNL     1      21.816   2.904  51.800  1.00  0.00     0.050 A 
HETATM   10  C13 UNL     1      22.676   1.908  52.250  1.00  0.00     0.042 A 
HETATM   11  N4  UNL     1      21.383   5.174  51.100  1.00  0.00    -0.314 N 
HETATM   12  C21 UNL     1      21.924   6.487  50.863  1.00  0.00     0.248 C 
HETATM   13  O2  UNL     1      21.144   7.480  50.824  1.00  0.00    -0.271 OA
HETATM   14  C22 UNL     1      23.400   6.618  50.672  1.00  0.00     0.279 C 
HETATM   15  O3  UNL     1      24.115   5.741  51.516  1.00  0.00    -0.340 OA
ENDROOT
BRANCH  11  16
HETATM   16  C14 UNL     1      20.021   4.924  50.885  1.00  0.00     0.134 C 
BRANCH  16  17
HETATM   17  C15 UNL     1      19.666   4.769  49.405  1.00  0.00     0.050 C 
BRANCH  17  18
HETATM   18  C16 UNL     1      19.603   3.352  48.962  1.00  0.00     0.274 C 
BRANCH  18  19
HETATM   19  N5  UNL     1      20.233   3.060  47.694  1.00  0.00     0.092 N 
HETATM   20  C17 UNL     1      21.324   2.176  47.952  1.00  0.00     0.298 C 
HETATM   21  C18 UNL     1      22.650   2.765  48.223  1.00  0.00     0.198 C 
HETATM   22  O1  UNL     1      22.672   4.118  48.005  1.00  0.00    -0.388 OA
HETATM   23  C19 UNL     1      22.110   4.295  46.715  1.00  0.00     0.198 C 
HETATM   24  C20 UNL     1      20.611   4.249  46.967  1.00  0.00     0.298 C 
ENDBRANCH  18  19
ENDBRANCH  17  18
ENDBRANCH  16  17
ENDBRANCH  11  16
BRANCH   1  25
HETATM   25  N1  UNL     1      20.886   0.279  52.313  1.00  0.00    -0.309 N 
HETATM   26  C4  UNL     1      20.148  -0.150  53.474  1.00  0.00     0.025 C 
HETATM   27  C3  UNL     1      19.088  -0.879  53.285  1.00  0.00     0.005 C 
HETATM   28  C5  UNL     1      20.596   0.239  54.859  1.00  0.00     0.070 C 
HETATM   29  C2  UNL     1      18.263  -0.412  52.365  1.00  0.00    -0.048 C 
HETATM   30  C1  UNL     1      16.772  -0.221  52.336  1.00  0.00     0.049 C 
HETATM   31  C24 UNL     1      18.894   0.008  51.116  1.00  0.00     0.025 C 
HETATM   32  C23 UNL     1      20.192   0.357  51.058  1.00  0.00     0.099 C 
ENDBRANCH   1  25
TORSDOF 5
ENDMDL
MODEL 7
REMARK VINA RESULT:      -7.5      2.118      6.328
REMARK  5 active torsions:
REMARK  status: ('A' for Active; 'I' for Inactive)
REMARK    1  A    between atoms: N1_6  and  C6_7 
REMARK    2  A    between atoms: N4_17  and  C14_18 
REMARK    3  A    between atoms: C14_18  and  C15_19 
REMARK    4  A    between atoms: C15_19  and  C16_20 
REMARK    5  A    between atoms: C16_20  and  N5_21 
ROOT
HETATM    1  C6  UNL     1      24.749   2.606  51.196  1.00  0.00     0.148 A 
HETATM    2  N2  UNL     1      26.090   2.663  51.186  1.00  0.00    -0.223 NA
HETATM    3  C7  UNL     1      26.842   1.769  51.852  1.00  0.00     0.236 A 
HETATM    4  N3  UNL     1      26.266   0.780  52.557  1.00  0.00    -0.241 NA
HETATM    5  C8  UNL     1      24.918   0.687  52.594  1.00  0.00     0.075 A 
HETATM    6  C9  UNL     1      24.411  -0.361  53.343  1.00  0.00     0.071 A 
HETATM    7  C10 UNL     1      23.036  -0.477  53.393  1.00  0.00     0.098 A 
HETATM    8  C11 UNL     1      22.179   0.408  52.730  1.00  0.00     0.071 A 
HETATM    9  C12 UNL     1      22.727   1.446  51.991  1.00  0.00     0.050 A 
HETATM   10  C13 UNL     1      24.109   1.593  51.918  1.00  0.00     0.042 A 
HETATM   11  N4  UNL     1      20.756   0.292  52.773  1.00  0.00    -0.314 N 
HETATM   12  C21 UNL     1      20.225  -0.800  53.547  1.00  0.00     0.248 C 
HETATM   13  O2  UNL     1      19.041  -1.187  53.339  1.00  0.00    -0.271 OA
HETATM   14  C22 UNL     1      21.108  -1.432  54.573  1.00  0.00     0.279 C 
HETATM   15  O3  UNL     1      22.446  -1.513  54.131  1.00  0.00    -0.340 OA
ENDROOT
BRANCH  11  16
HETATM   16  C14 UNL     1      19.890   1.172  52.109  1.00  0.00     0.134 C 
BRANCH  16  17
HETATM   17  C15 UNL     1      19.585   0.741  50.673  1.00  0.00     0.050 C 
BRANCH  17  18
HETATM   18  C16 UNL     1      18.792   1.743  49.915  1.00  0.00     0.274 C 
BRANCH  18  19
HETATM   19  N5  UNL     1      19.531   2.880  49.413  1.00  0.00     0.092 N 
HETATM   20  C17 UNL     1      18.745   4.045  49.668  1.00  0.00     0.298 C 
HETATM   21  C18 UNL     1      17.794   4.487  48.629  1.00  0.00     0.198 C 
HETATM   22  O1  UNL     1      17.939   3.785  47.460  1.00  0.00    -0.388 OA
HETATM   23  C19 UNL     1      19.326   3.837  47.167  1.00  0.00     0.198 C 
HETATM   24  C20 UNL     1      19.917   2.734  48.030  1.00  0.00     0.298 C 
ENDBRANCH  18  19
ENDBRANCH  17  18
ENDBRANCH  16  17
ENDBRANCH  11  16
BRANCH   1  25
HETATM   25  N1  UNL     1      23.908   3.544  50.498  1.00  0.00    -0.309 N 
HETATM   26  C4  UNL     1      23.220   4.513  51.314  1.00  0.00     0.025 C 
HETATM   27  C3  UNL     1      22.132   5.042  50.841  1.00  0.00     0.005 C 
HETATM   28  C5  UNL     1      23.754   4.895  52.670  1.00  0.00     0.070 C 
HETATM   29  C2  UNL     1      22.234   5.480  49.599  1.00  0.00    -0.048 C 
HETATM   30  C1  UNL     1      21.818   6.762  48.932  1.00  0.00     0.049 C 
HETATM   31  C24 UNL     1      22.871   4.556  48.662  1.00  0.00     0.025 C 
HETATM   32  C23 UNL     1      23.706   3.587  49.077  1.00  0.00     0.099 C 
ENDBRANCH   1  25
TORSDOF 5
ENDMDL
MODEL 8
REMARK VINA RESULT:      -7.4      2.297      6.862
REMARK  5 active torsions:
REMARK  status: ('A' for Active; 'I' for Inactive)
REMARK    1  A    between atoms: N1_6  and  C6_7 
REMARK    2  A    between atoms: N4_17  and  C14_18 
REMARK    3  A    between atoms: C14_18  and  C15_19 
REMARK    4  A    between atoms: C15_19  and  C16_20 
REMARK    5  A    between atoms: C16_20  and  N5_21 
ROOT
HETATM    1  C6  UNL     1      24.776   2.696  51.565  1.00  0.00     0.148 A 
HETATM    2  N2  UNL     1      26.118   2.644  51.565  1.00  0.00    -0.223 NA
HETATM    3  C7  UNL     1      26.786   1.606  52.099  1.00  0.00     0.236 A 
HETATM    4  N3  UNL     1      26.123   0.579  52.656  1.00  0.00    -0.241 NA
HETATM    5  C8  UNL     1      24.772   0.592  52.677  1.00  0.00     0.075 A 
HETATM    6  C9  UNL     1      24.173  -0.507  53.269  1.00  0.00     0.071 A 
HETATM    7  C10 UNL     1      22.792  -0.516  53.301  1.00  0.00     0.098 A 
HETATM    8  C11 UNL     1      22.018   0.521  52.768  1.00  0.00     0.071 A 
HETATM    9  C12 UNL     1      22.657   1.604  52.184  1.00  0.00     0.050 A 
HETATM   10  C13 UNL     1      24.047   1.646  52.135  1.00  0.00     0.042 A 
HETATM   11  N4  UNL     1      20.589   0.516  52.792  1.00  0.00    -0.314 N 
HETATM   12  C21 UNL     1      19.962  -0.627  53.403  1.00  0.00     0.248 C 
HETATM   13  O2  UNL     1      18.753  -0.883  53.139  1.00  0.00    -0.271 OA
HETATM   14  C22 UNL     1      20.778  -1.468  54.330  1.00  0.00     0.279 C 
HETATM   15  O3  UNL     1      22.111  -1.594  53.883  1.00  0.00    -0.340 OA
ENDROOT
BRANCH  11  16
HETATM   16  C14 UNL     1      19.806   1.548  52.257  1.00  0.00     0.134 C 
BRANCH  16  17
HETATM   17  C15 UNL     1      19.447   1.327  50.786  1.00  0.00     0.050 C 
BRANCH  17  18
HETATM   18  C16 UNL     1      18.026   1.633  50.477  1.00  0.00     0.274 C 
BRANCH  18  19
HETATM   19  N5  UNL     1      17.290   2.320  51.514  1.00  0.00     0.092 N 
HETATM   20  C17 UNL     1      16.054   1.626  51.691  1.00  0.00     0.298 C 
HETATM   21  C18 UNL     1      14.891   2.056  50.890  1.00  0.00     0.198 C 
HETATM   22  O1  UNL     1      15.137   3.213  50.198  1.00  0.00    -0.388 OA
HETATM   23  C19 UNL     1      15.661   4.115  51.158  1.00  0.00     0.198 C 
HETATM   24  C20 UNL     1      17.129   3.730  51.250  1.00  0.00     0.298 C 
ENDBRANCH  18  19
ENDBRANCH  17  18
ENDBRANCH  16  17
ENDBRANCH  11  16
BRANCH   1  25
HETATM   25  N1  UNL     1      24.023   3.788  51.006  1.00  0.00    -0.309 N 
HETATM   26  C4  UNL     1      23.423   4.698  51.949  1.00  0.00     0.025 C 
HETATM   27  C3  UNL     1      22.387   5.379  51.561  1.00  0.00     0.005 C 
HETATM   28  C5  UNL     1      23.988   4.849  53.337  1.00  0.00     0.070 C 
HETATM   29  C2  UNL     1      22.529   5.966  50.386  1.00  0.00    -0.048 C 
HETATM   30  C1  UNL     1      22.230   7.357  49.899  1.00  0.00     0.049 C 
HETATM   31  C24 UNL     1      23.082   5.122  49.330  1.00  0.00     0.025 C 
HETATM   32  C23 UNL     1      23.827   4.036  49.605  1.00  0.00     0.099 C 
ENDBRANCH   1  25
TORSDOF 5
ENDMDL
MODEL 9
REMARK VINA RESULT:      -7.3      2.416      6.453
REMARK  5 active torsions:
REMARK  status: ('A' for Active; 'I' for Inactive)
REMARK    1  A    between atoms: N1_6  and  C6_7 
REMARK    2  A    between atoms: N4_17  and  C14_18 
REMARK    3  A    between atoms: C14_18  and  C15_19 
REMARK    4  A    between atoms: C15_19  and  C16_20 
REMARK    5  A    between atoms: C16_20  and  N5_21 
ROOT
HETATM    1  C6  UNL     1      24.630   2.101  52.142  1.00  0.00     0.148 A 
HETATM    2  N2  UNL     1      25.836   1.888  52.691  1.00  0.00    -0.223 NA
HETATM    3  C7  UNL     1      26.049   0.890  53.567  1.00  0.00     0.236 A 
HETATM    4  N3  UNL     1      25.049   0.067  53.924  1.00  0.00    -0.241 NA
HETATM    5  C8  UNL     1      23.818   0.247  53.395  1.00  0.00     0.075 A 
HETATM    6  C9  UNL     1      22.849  -0.646  53.817  1.00  0.00     0.071 A 
HETATM    7  C10 UNL     1      21.584  -0.482  53.289  1.00  0.00     0.098 A 
HETATM    8  C11 UNL     1      21.274   0.528  52.371  1.00  0.00     0.071 A 
HETATM    9  C12 UNL     1      22.274   1.403  51.973  1.00  0.00     0.050 A 
HETATM   10  C13 UNL     1      23.561   1.267  52.487  1.00  0.00     0.042 A 
HETATM   11  N4  UNL     1      19.970   0.702  51.815  1.00  0.00    -0.314 N 
HETATM   12  C21 UNL     1      18.960  -0.228  52.249  1.00  0.00     0.248 C 
HETATM   13  O2  UNL     1      17.917  -0.379  51.551  1.00  0.00    -0.271 OA
HETATM   14  C22 UNL     1      19.192  -0.981  53.518  1.00  0.00     0.279 C 
HETATM   15  O3  UNL     1      20.548  -1.347  53.667  1.00  0.00    -0.340 OA
ENDROOT
BRANCH  11  16
HETATM   16  C14 UNL     1      19.652   1.708  50.893  1.00  0.00     0.134 C 
BRANCH  16  17
HETATM   17  C15 UNL     1      19.131   2.985  51.554  1.00  0.00     0.050 C 
BRANCH  17  18
HETATM   18  C16 UNL     1      19.373   4.207  50.743  1.00  0.00     0.274 C 
BRANCH  18  19
HETATM   19  N5  UNL     1      19.061   4.099  49.336  1.00  0.00     0.092 N 
HETATM   20  C17 UNL     1      20.173   4.625  48.611  1.00  0.00     0.298 C 
HETATM   21  C18 UNL     1      20.171   6.062  48.274  1.00  0.00     0.198 C 
HETATM   22  O1  UNL     1      18.974   6.663  48.568  1.00  0.00    -0.388 OA
HETATM   23  C19 UNL     1      17.989   5.833  47.976  1.00  0.00     0.198 C 
HETATM   24  C20 UNL     1      17.802   4.716  48.990  1.00  0.00     0.298 C 
ENDBRANCH  18  19
ENDBRANCH  17  18
ENDBRANCH  16  17
ENDBRANCH  11  16
BRANCH   1  25
HETATM   25  N1  UNL     1      24.360   3.158  51.202  1.00  0.00    -0.309 N 
HETATM   26  C4  UNL     1      23.699   4.325  51.729  1.00  0.00     0.025 C 
HETATM   27  C3  UNL     1      23.022   5.065  50.902  1.00  0.00     0.005 C 
HETATM   28  C5  UNL     1      23.796   4.671  53.192  1.00  0.00     0.070 C 
HETATM   29  C2  UNL     1      23.666   5.367  49.789  1.00  0.00    -0.048 C 
HETATM   30  C1  UNL     1      23.855   6.656  49.038  1.00  0.00     0.049 C 
HETATM   31  C24 UNL     1      24.336   4.247  49.132  1.00  0.00     0.025 C 
HETATM   32  C23 UNL     1      24.693   3.138  49.806  1.00  0.00     0.099 C 
ENDBRANCH   1  25
TORSDOF 5
ENDMDL
