MODEL 1
REMARK VINA RESULT:      -7.3      0.000      0.000
REMARK  4 active torsions:
REMARK  status: ('A' for Active; 'I' for Inactive)
REMARK       I    between atoms: N1_1  and  C1_2 
REMARK       I    between atoms: C1_2  and  N2_4 
REMARK    1  A    between atoms: N2_4  and  C2_5 
REMARK    2  A    between atoms: C7_12  and  N5_13 
REMARK    3  A    between atoms: N5_13  and  C8_14 
REMARK    4  A    between atoms: C8_14  and  C9_16 
ROOT
HETATM    1  C9  UNL     1      27.462   0.372  54.609  1.00  0.00     0.026 C 
HETATM    2  C10 UNL     1      28.567  -0.246  54.279  1.00  0.00     0.217 C 
HETATM    3 CL2  UNL     1      30.073  -0.911  53.666  1.00  0.00    -0.230 Cl
ENDROOT
BRANCH   1   4
HETATM    4  C8  UNL     1      27.310   1.503  53.694  1.00  0.00     0.204 C 
HETATM    5 CL1  UNL     1      28.739   2.584  53.673  1.00  0.00    -0.098 Cl
BRANCH   4   6
HETATM    6  N5  UNL     1      27.069   1.136  52.310  1.00  0.00    -0.353 N 
HETATM    7  H7  UNL     1      27.522   0.261  52.066  1.00  0.00     0.163 HD
BRANCH   6   8
HETATM    8  C7  UNL     1      26.266   2.010  51.509  1.00  0.00     0.139 A 
HETATM    9  N4  UNL     1      26.838   2.977  50.815  1.00  0.00    -0.224 NA
HETATM   10  C6  UNL     1      26.147   3.832  50.045  1.00  0.00     0.235 A 
HETATM   11  N3  UNL     1      24.800   3.748  49.934  1.00  0.00    -0.241 NA
HETATM   12  C5  UNL     1      24.190   2.757  50.643  1.00  0.00     0.072 A 
HETATM   13  C4  UNL     1      22.817   2.653  50.544  1.00  0.00     0.035 A 
HETATM   14  C11 UNL     1      24.895   1.876  51.436  1.00  0.00     0.041 A 
HETATM   15  C3  UNL     1      22.231   1.640  51.273  1.00  0.00     0.032 A 
HETATM   16  C2  UNL     1      22.876   0.733  52.079  1.00  0.00     0.037 A 
HETATM   17  C12 UNL     1      24.238   0.900  52.125  1.00  0.00     0.047 A 
BRANCH  16  18
HETATM   18  N2  UNL     1      22.300  -0.296  52.822  1.00  0.00    -0.309 N 
HETATM   19  C1  UNL     1      21.294  -0.267  53.817  1.00  0.00     0.318 C 
HETATM   20  N1  UNL     1      20.773  -1.387  54.519  1.00  0.00    -0.352 N 
HETATM   21  O1  UNL     1      20.808   0.850  54.114  1.00  0.00    -0.247 OA
HETATM   22  H1  UNL     1      20.962  -1.932  55.404  1.00  0.00     0.160 HD
HETATM   23  H2  UNL     1      19.949  -1.906  54.134  1.00  0.00     0.160 HD
HETATM   24  H3  UNL     1      22.609  -1.291  52.679  1.00  0.00     0.170 HD
ENDBRANCH  16  18
ENDBRANCH   6   8
ENDBRANCH   4   6
ENDBRANCH   1   4
TORSDOF 4
ENDMDL
MODEL 2
REMARK VINA RESULT:      -7.3      2.999      5.563
REMARK  4 active torsions:
REMARK  status: ('A' for Active; 'I' for Inactive)
REMARK       I    between atoms: N1_1  and  C1_2 
REMARK       I    between atoms: C1_2  and  N2_4 
REMARK    1  A    between atoms: N2_4  and  C2_5 
REMARK    2  A    between atoms: C7_12  and  N5_13 
REMARK    3  A    between atoms: N5_13  and  C8_14 
REMARK    4  A    between atoms: C8_14  and  C9_16 
ROOT
HETATM    1  C9  UNL     1      25.252   5.553  49.681  1.00  0.00     0.026 C 
HETATM    2  C10 UNL     1      26.378   5.815  49.069  1.00  0.00     0.217 C 
HETATM    3 CL2  UNL     1      27.939   5.936  48.273  1.00  0.00    -0.230 Cl
ENDROOT
BRANCH   1   4
HETATM    4  C8  UNL     1      25.253   4.125  49.996  1.00  0.00     0.204 C 
HETATM    5 CL1  UNL     1      26.659   3.257  49.303  1.00  0.00    -0.098 Cl
BRANCH   4   6
HETATM    6  N5  UNL     1      25.255   3.815  51.414  1.00  0.00    -0.353 N 
HETATM    7  H7  UNL     1      25.988   4.314  51.910  1.00  0.00     0.163 HD
BRANCH   6   8
HETATM    8  C7  UNL     1      24.275   2.894  51.906  1.00  0.00     0.139 A 
HETATM    9  N4  UNL     1      22.999   3.236  51.920  1.00  0.00    -0.224 NA
HETATM   10  C6  UNL     1      22.029   2.424  52.367  1.00  0.00     0.235 A 
HETATM   11  N3  UNL     1      22.310   1.186  52.837  1.00  0.00    -0.241 NA
HETATM   12  C5  UNL     1      23.621   0.813  52.831  1.00  0.00     0.072 A 
HETATM   13  C4  UNL     1      23.929  -0.446  53.307  1.00  0.00     0.035 A 
HETATM   14  C11 UNL     1      24.622   1.644  52.374  1.00  0.00     0.041 A 
HETATM   15  C3  UNL     1      25.263  -0.792  53.287  1.00  0.00     0.032 A 
HETATM   16  C2  UNL     1      26.305  -0.012  52.845  1.00  0.00     0.037 A 
HETATM   17  C12 UNL     1      25.919   1.224  52.388  1.00  0.00     0.047 A 
BRANCH  16  18
HETATM   18  N2  UNL     1      27.658  -0.345  52.819  1.00  0.00    -0.309 N 
HETATM   19  C1  UNL     1      28.590  -0.509  53.870  1.00  0.00     0.318 C 
HETATM   20  N1  UNL     1      29.961  -0.854  53.732  1.00  0.00    -0.352 N 
HETATM   21  O1  UNL     1      28.176  -0.335  55.041  1.00  0.00    -0.247 OA
HETATM   22  H1  UNL     1      30.897  -0.376  53.618  1.00  0.00     0.160 HD
HETATM   23  H2  UNL     1      30.247  -1.862  53.731  1.00  0.00     0.160 HD
HETATM   24  H3  UNL     1      28.143  -0.521  51.902  1.00  0.00     0.170 HD
ENDBRANCH  16  18
ENDBRANCH   6   8
ENDBRANCH   4   6
ENDBRANCH   1   4
TORSDOF 4
ENDMDL
MODEL 3
REMARK VINA RESULT:      -7.1      3.694      5.882
REMARK  4 active torsions:
REMARK  status: ('A' for Active; 'I' for Inactive)
REMARK       I    between atoms: N1_1  and  C1_2 
REMARK       I    between atoms: C1_2  and  N2_4 
REMARK    1  A    between atoms: N2_4  and  C2_5 
REMARK    2  A    between atoms: C7_12  and  N5_13 
REMARK    3  A    between atoms: N5_13  and  C8_14 
REMARK    4  A    between atoms: C8_14  and  C9_16 
ROOT
HETATM    1  C9  UNL     1      20.234  -0.933  53.896  1.00  0.00     0.026 C 
HETATM    2  C10 UNL     1      19.628  -0.330  52.904  1.00  0.00     0.217 C 
HETATM    3 CL2  UNL     1      19.013   0.609  51.555  1.00  0.00    -0.230 Cl
ENDROOT
BRANCH   1   4
HETATM    4  C8  UNL     1      21.552  -0.313  54.037  1.00  0.00     0.204 C 
HETATM    5 CL1  UNL     1      22.623  -1.198  55.169  1.00  0.00    -0.098 Cl
BRANCH   4   6
HETATM    6  N5  UNL     1      22.299  -0.187  52.799  1.00  0.00    -0.353 N 
HETATM    7  H7  UNL     1      22.253  -1.033  52.240  1.00  0.00     0.163 HD
BRANCH   6   8
HETATM    8  C7  UNL     1      22.971   1.051  52.539  1.00  0.00     0.139 A 
HETATM    9  N4  UNL     1      22.282   2.177  52.497  1.00  0.00    -0.224 NA
HETATM   10  C6  UNL     1      22.846   3.371  52.258  1.00  0.00     0.235 A 
HETATM   11  N3  UNL     1      24.178   3.490  52.043  1.00  0.00    -0.241 NA
HETATM   12  C5  UNL     1      24.907   2.339  52.083  1.00  0.00     0.072 A 
HETATM   13  C4  UNL     1      26.267   2.437  51.867  1.00  0.00     0.035 A 
HETATM   14  C11 UNL     1      24.333   1.110  52.328  1.00  0.00     0.041 A 
HETATM   15  C3  UNL     1      26.975   1.256  51.913  1.00  0.00     0.032 A 
HETATM   16  C2  UNL     1      26.463   0.002  52.152  1.00  0.00     0.037 A 
HETATM   17  C12 UNL     1      25.106  -0.013  52.357  1.00  0.00     0.047 A 
BRANCH  16  18
HETATM   18  N2  UNL     1      27.164  -1.201  52.202  1.00  0.00    -0.309 N 
HETATM   19  C1  UNL     1      27.998  -1.744  53.208  1.00  0.00     0.318 C 
HETATM   20  N1  UNL     1      28.671  -2.994  53.159  1.00  0.00    -0.352 N 
HETATM   21  O1  UNL     1      28.165  -1.064  54.249  1.00  0.00    -0.247 OA
HETATM   22  H1  UNL     1      29.601  -3.387  52.846  1.00  0.00     0.160 HD
HETATM   23  H2  UNL     1      28.196  -3.856  53.515  1.00  0.00     0.160 HD
HETATM   24  H3  UNL     1      27.118  -1.876  51.397  1.00  0.00     0.170 HD
ENDBRANCH  16  18
ENDBRANCH   6   8
ENDBRANCH   4   6
ENDBRANCH   1   4
TORSDOF 4
ENDMDL
MODEL 4
REMARK VINA RESULT:      -7.1      2.498      4.369
REMARK  4 active torsions:
REMARK  status: ('A' for Active; 'I' for Inactive)
REMARK       I    between atoms: N1_1  and  C1_2 
REMARK       I    between atoms: C1_2  and  N2_4 
REMARK    1  A    between atoms: N2_4  and  C2_5 
REMARK    2  A    between atoms: C7_12  and  N5_13 
REMARK    3  A    between atoms: N5_13  and  C8_14 
REMARK    4  A    between atoms: C8_14  and  C9_16 
ROOT
HETATM    1  C9  UNL     1      24.099   3.667  49.510  1.00  0.00     0.026 C 
HETATM    2  C10 UNL     1      23.197   2.725  49.621  1.00  0.00     0.217 C 
HETATM    3 CL2  UNL     1      22.159   1.331  49.874  1.00  0.00    -0.230 Cl
ENDROOT
BRANCH   1   4
HETATM    4  C8  UNL     1      25.339   3.149  50.088  1.00  0.00     0.204 C 
HETATM    5 CL1  UNL     1      26.805   3.909  49.393  1.00  0.00    -0.098 Cl
BRANCH   4   6
HETATM    6  N5  UNL     1      25.451   3.311  51.526  1.00  0.00    -0.353 N 
HETATM    7  H7  UNL     1      24.989   4.154  51.851  1.00  0.00     0.163 HD
BRANCH   6   8
HETATM    8  C7  UNL     1      26.164   2.312  52.264  1.00  0.00     0.139 A 
HETATM    9  N4  UNL     1      27.482   2.366  52.342  1.00  0.00    -0.224 NA
HETATM   10  C6  UNL     1      28.213   1.464  53.015  1.00  0.00     0.235 A 
HETATM   11  N3  UNL     1      27.629   0.430  53.665  1.00  0.00    -0.241 NA
HETATM   12  C5  UNL     1      26.270   0.355  53.598  1.00  0.00     0.072 A 
HETATM   13  C4  UNL     1      25.654  -0.692  54.253  1.00  0.00     0.035 A 
HETATM   14  C11 UNL     1      25.514   1.279  52.907  1.00  0.00     0.041 A 
HETATM   15  C3  UNL     1      24.279  -0.739  54.166  1.00  0.00     0.032 A 
HETATM   16  C2  UNL     1      23.471   0.149  53.495  1.00  0.00     0.037 A 
HETATM   17  C12 UNL     1      24.156   1.161  52.870  1.00  0.00     0.047 A 
BRANCH  16  18
HETATM   18  N2  UNL     1      22.081   0.117  53.396  1.00  0.00    -0.309 N 
HETATM   19  C1  UNL     1      21.117  -0.598  54.146  1.00  0.00     0.318 C 
HETATM   20  N1  UNL     1      19.709  -0.558  53.961  1.00  0.00    -0.352 N 
HETATM   21  O1  UNL     1      21.536  -1.341  55.065  1.00  0.00    -0.247 OA
HETATM   22  H1  UNL     1      18.962  -1.067  53.413  1.00  0.00     0.160 HD
HETATM   23  H2  UNL     1      19.136   0.152  54.475  1.00  0.00     0.160 HD
HETATM   24  H3  UNL     1      21.588   0.693  52.667  1.00  0.00     0.170 HD
ENDBRANCH  16  18
ENDBRANCH   6   8
ENDBRANCH   4   6
ENDBRANCH   1   4
TORSDOF 4
ENDMDL
MODEL 5
REMARK VINA RESULT:      -7.1      2.770      4.792
REMARK  4 active torsions:
REMARK  status: ('A' for Active; 'I' for Inactive)
REMARK       I    between atoms: N1_1  and  C1_2 
REMARK       I    between atoms: C1_2  and  N2_4 
REMARK    1  A    between atoms: N2_4  and  C2_5 
REMARK    2  A    between atoms: C7_12  and  N5_13 
REMARK    3  A    between atoms: N5_13  and  C8_14 
REMARK    4  A    between atoms: C8_14  and  C9_16 
ROOT
HETATM    1  C9  UNL     1      26.823  -0.943  52.586  1.00  0.00     0.026 C 
HETATM    2  C10 UNL     1      27.912  -0.373  53.032  1.00  0.00     0.217 C 
HETATM    3 CL2  UNL     1      29.233   0.503  53.788  1.00  0.00    -0.230 Cl
ENDROOT
BRANCH   1   4
HETATM    4  C8  UNL     1      25.711  -0.446  53.396  1.00  0.00     0.204 C 
HETATM    5 CL1  UNL     1      26.175  -0.118  55.095  1.00  0.00    -0.098 Cl
BRANCH   4   6
HETATM    6  N5  UNL     1      25.103   0.778  52.906  1.00  0.00    -0.353 N 
HETATM    7  H7  UNL     1      25.799   1.482  52.679  1.00  0.00     0.163 HD
BRANCH   6   8
HETATM    8  C7  UNL     1      23.676   0.834  52.812  1.00  0.00     0.139 A 
HETATM    9  N4  UNL     1      22.967  -0.277  52.910  1.00  0.00    -0.224 NA
HETATM   10  C6  UNL     1      21.627  -0.299  52.830  1.00  0.00     0.235 A 
HETATM   11  N3  UNL     1      20.915   0.837  52.641  1.00  0.00    -0.241 NA
HETATM   12  C5  UNL     1      21.628   1.994  52.537  1.00  0.00     0.072 A 
HETATM   13  C4  UNL     1      20.922   3.164  52.344  1.00  0.00     0.035 A 
HETATM   14  C11 UNL     1      23.004   2.023  52.618  1.00  0.00     0.041 A 
HETATM   15  C3  UNL     1      21.672   4.317  52.243  1.00  0.00     0.032 A 
HETATM   16  C2  UNL     1      23.041   4.411  52.316  1.00  0.00     0.037 A 
HETATM   17  C12 UNL     1      23.671   3.207  52.508  1.00  0.00     0.047 A 
BRANCH  16  18
HETATM   18  N2  UNL     1      23.815   5.566  52.215  1.00  0.00    -0.309 N 
HETATM   19  C1  UNL     1      24.463   6.150  51.102  1.00  0.00     0.318 C 
HETATM   20  N1  UNL     1      25.235   7.343  51.109  1.00  0.00    -0.352 N 
HETATM   21  O1  UNL     1      24.352   5.567  49.997  1.00  0.00    -0.247 OA
HETATM   22  H1  UNL     1      26.239   7.643  51.246  1.00  0.00     0.160 HD
HETATM   23  H2  UNL     1      24.770   8.265  50.936  1.00  0.00     0.160 HD
HETATM   24  H3  UNL     1      23.995   6.159  53.065  1.00  0.00     0.170 HD
ENDBRANCH  16  18
ENDBRANCH   6   8
ENDBRANCH   4   6
ENDBRANCH   1   4
TORSDOF 4
ENDMDL
MODEL 6
REMARK VINA RESULT:      -7.1      3.102      5.880
REMARK  4 active torsions:
REMARK  status: ('A' for Active; 'I' for Inactive)
REMARK       I    between atoms: N1_1  and  C1_2 
REMARK       I    between atoms: C1_2  and  N2_4 
REMARK    1  A    between atoms: N2_4  and  C2_5 
REMARK    2  A    between atoms: C7_12  and  N5_13 
REMARK    3  A    between atoms: N5_13  and  C8_14 
REMARK    4  A    between atoms: C8_14  and  C9_16 
ROOT
HETATM    1  C9  UNL     1      24.133   4.710  49.128  1.00  0.00     0.026 C 
HETATM    2  C10 UNL     1      24.251   5.859  49.743  1.00  0.00     0.217 C 
HETATM    3 CL2  UNL     1      24.554   7.287  50.719  1.00  0.00    -0.230 Cl
ENDROOT
BRANCH   1   4
HETATM    4  C8  UNL     1      24.957   3.744  49.855  1.00  0.00     0.204 C 
HETATM    5 CL1  UNL     1      26.711   3.966  49.570  1.00  0.00    -0.098 Cl
BRANCH   4   6
HETATM    6  N5  UNL     1      24.782   3.761  51.296  1.00  0.00    -0.353 N 
HETATM    7  H7  UNL     1      25.284   4.530  51.730  1.00  0.00     0.163 HD
BRANCH   6   8
HETATM    8  C7  UNL     1      23.969   2.743  51.890  1.00  0.00     0.139 A 
HETATM    9  N4  UNL     1      22.657   2.897  51.944  1.00  0.00    -0.224 NA
HETATM   10  C6  UNL     1      21.836   1.985  52.486  1.00  0.00     0.235 A 
HETATM   11  N3  UNL     1      22.314   0.835  53.017  1.00  0.00    -0.241 NA
HETATM   12  C5  UNL     1      23.664   0.657  52.972  1.00  0.00     0.072 A 
HETATM   13  C4  UNL     1      24.173  -0.509  53.508  1.00  0.00     0.035 A 
HETATM   14  C11 UNL     1      24.513   1.590  52.416  1.00  0.00     0.041 A 
HETATM   15  C3  UNL     1      25.542  -0.659  53.446  1.00  0.00     0.032 A 
HETATM   16  C2  UNL     1      26.439   0.232  52.908  1.00  0.00     0.037 A 
HETATM   17  C12 UNL     1      25.858   1.365  52.395  1.00  0.00     0.047 A 
BRANCH  16  18
HETATM   18  N2  UNL     1      27.825   0.097  52.837  1.00  0.00    -0.309 N 
HETATM   19  C1  UNL     1      28.841   0.514  53.728  1.00  0.00     0.318 C 
HETATM   20  N1  UNL     1      30.238   0.324  53.560  1.00  0.00    -0.352 N 
HETATM   21  O1  UNL     1      28.484   1.111  54.772  1.00  0.00    -0.247 OA
HETATM   22  H1  UNL     1      31.067   0.826  53.137  1.00  0.00     0.160 HD
HETATM   23  H2  UNL     1      30.694  -0.544  53.929  1.00  0.00     0.160 HD
HETATM   24  H3  UNL     1      28.270  -0.385  52.014  1.00  0.00     0.170 HD
ENDBRANCH  16  18
ENDBRANCH   6   8
ENDBRANCH   4   6
ENDBRANCH   1   4
TORSDOF 4
ENDMDL
MODEL 7
REMARK VINA RESULT:      -7.0      3.673      6.159
REMARK  4 active torsions:
REMARK  status: ('A' for Active; 'I' for Inactive)
REMARK       I    between atoms: N1_1  and  C1_2 
REMARK       I    between atoms: C1_2  and  N2_4 
REMARK    1  A    between atoms: N2_4  and  C2_5 
REMARK    2  A    between atoms: C7_12  and  N5_13 
REMARK    3  A    between atoms: N5_13  and  C8_14 
REMARK    4  A    between atoms: C8_14  and  C9_16 
ROOT
HETATM    1  C9  UNL     1      23.635   3.741  50.368  1.00  0.00     0.026 C 
HETATM    2  C10 UNL     1      22.895   4.767  50.700  1.00  0.00     0.217 C 
HETATM    3 CL2  UNL     1      21.716   5.996  51.128  1.00  0.00    -0.230 Cl
ENDROOT
BRANCH   1   4
HETATM    4  C8  UNL     1      22.735   2.604  50.172  1.00  0.00     0.204 C 
HETATM    5 CL1  UNL     1      22.580   2.122  48.453  1.00  0.00    -0.098 Cl
BRANCH   4   6
HETATM    6  N5  UNL     1      23.114   1.400  50.889  1.00  0.00    -0.353 N 
HETATM    7  H7  UNL     1      24.028   1.061  50.606  1.00  0.00     0.163 HD
BRANCH   6   8
HETATM    8  C7  UNL     1      22.197   0.872  51.854  1.00  0.00     0.139 A 
HETATM    9  N4  UNL     1      20.897   1.040  51.687  1.00  0.00    -0.224 NA
HETATM   10  C6  UNL     1      19.982   0.573  52.550  1.00  0.00     0.235 A 
HETATM   11  N3  UNL     1      20.347  -0.111  53.661  1.00  0.00    -0.241 NA
HETATM   12  C5  UNL     1      21.684  -0.296  53.851  1.00  0.00     0.072 A 
HETATM   13  C4  UNL     1      22.078  -0.990  54.978  1.00  0.00     0.035 A 
HETATM   14  C11 UNL     1      22.628   0.183  52.968  1.00  0.00     0.041 A 
HETATM   15  C3  UNL     1      23.436  -1.160  55.142  1.00  0.00     0.032 A 
HETATM   16  C2  UNL     1      24.425  -0.708  54.300  1.00  0.00     0.037 A 
HETATM   17  C12 UNL     1      23.954  -0.029  53.204  1.00  0.00     0.047 A 
BRANCH  16  18
HETATM   18  N2  UNL     1      25.801  -0.871  54.450  1.00  0.00    -0.309 N 
HETATM   19  C1  UNL     1      26.812   0.063  54.779  1.00  0.00     0.318 C 
HETATM   20  N1  UNL     1      28.200  -0.210  54.908  1.00  0.00    -0.352 N 
HETATM   21  O1  UNL     1      26.458   1.250  54.978  1.00  0.00    -0.247 OA
HETATM   22  H1  UNL     1      29.070  -0.219  54.309  1.00  0.00     0.160 HD
HETATM   23  H2  UNL     1      28.590  -0.498  55.836  1.00  0.00     0.160 HD
HETATM   24  H3  UNL     1      26.242  -1.816  54.313  1.00  0.00     0.170 HD
ENDBRANCH  16  18
ENDBRANCH   6   8
ENDBRANCH   4   6
ENDBRANCH   1   4
TORSDOF 4
ENDMDL
MODEL 8
REMARK VINA RESULT:      -7.0      2.658      4.323
REMARK  4 active torsions:
REMARK  status: ('A' for Active; 'I' for Inactive)
REMARK       I    between atoms: N1_1  and  C1_2 
REMARK       I    between atoms: C1_2  and  N2_4 
REMARK    1  A    between atoms: N2_4  and  C2_5 
REMARK    2  A    between atoms: C7_12  and  N5_13 
REMARK    3  A    between atoms: N5_13  and  C8_14 
REMARK    4  A    between atoms: C8_14  and  C9_16 
ROOT
HETATM    1  C9  UNL     1      24.701   4.931  49.968  1.00  0.00     0.026 C 
HETATM    2  C10 UNL     1      25.859   4.861  49.363  1.00  0.00     0.217 C 
HETATM    3 CL2  UNL     1      27.482   4.631  48.732  1.00  0.00    -0.230 Cl
ENDROOT
BRANCH   1   4
HETATM    4  C8  UNL     1      24.806   4.141  51.194  1.00  0.00     0.204 C 
HETATM    5 CL1  UNL     1      23.331   4.222  52.208  1.00  0.00    -0.098 Cl
BRANCH   4   6
HETATM    6  N5  UNL     1      25.068   2.728  50.986  1.00  0.00    -0.353 N 
HETATM    7  H7  UNL     1      24.613   2.378  50.148  1.00  0.00     0.163 HD
BRANCH   6   8
HETATM    8  C7  UNL     1      25.890   2.045  51.939  1.00  0.00     0.139 A 
HETATM    9  N4  UNL     1      27.180   2.322  52.014  1.00  0.00    -0.224 NA
HETATM   10  C6  UNL     1      28.008   1.720  52.882  1.00  0.00     0.235 A 
HETATM   11  N3  UNL     1      27.558   0.780  53.747  1.00  0.00    -0.241 NA
HETATM   12  C5  UNL     1      26.230   0.481  53.686  1.00  0.00     0.072 A 
HETATM   13  C4  UNL     1      25.751  -0.476  54.559  1.00  0.00     0.035 A 
HETATM   14  C11 UNL     1      25.375   1.095  52.796  1.00  0.00     0.041 A 
HETATM   15  C3  UNL     1      24.404  -0.756  54.473  1.00  0.00     0.032 A 
HETATM   16  C2  UNL     1      23.502  -0.180  53.610  1.00  0.00     0.037 A 
HETATM   17  C12 UNL     1      24.053   0.760  52.775  1.00  0.00     0.047 A 
BRANCH  16  18
HETATM   18  N2  UNL     1      22.138  -0.451  53.509  1.00  0.00    -0.309 N 
HETATM   19  C1  UNL     1      21.307  -1.305  54.271  1.00  0.00     0.318 C 
HETATM   20  N1  UNL     1      19.913  -1.510  54.083  1.00  0.00    -0.352 N 
HETATM   21  O1  UNL     1      21.841  -1.948  55.206  1.00  0.00    -0.247 OA
HETATM   22  H1  UNL     1      19.266  -2.149  53.544  1.00  0.00     0.160 HD
HETATM   23  H2  UNL     1      19.225  -0.898  54.582  1.00  0.00     0.160 HD
HETATM   24  H3  UNL     1      21.557   0.018  52.768  1.00  0.00     0.170 HD
ENDBRANCH  16  18
ENDBRANCH   6   8
ENDBRANCH   4   6
ENDBRANCH   1   4
TORSDOF 4
ENDMDL
MODEL 9
REMARK VINA RESULT:      -6.9      2.671      4.536
REMARK  4 active torsions:
REMARK  status: ('A' for Active; 'I' for Inactive)
REMARK       I    between atoms: N1_1  and  C1_2 
REMARK       I    between atoms: C1_2  and  N2_4 
REMARK    1  A    between atoms: N2_4  and  C2_5 
REMARK    2  A    between atoms: C7_12  and  N5_13 
REMARK    3  A    between atoms: N5_13  and  C8_14 
REMARK    4  A    between atoms: C8_14  and  C9_16 
ROOT
HETATM    1  C9  UNL     1      26.679  -0.746  52.547  1.00  0.00     0.026 C 
HETATM    2  C10 UNL     1      27.891  -0.777  53.038  1.00  0.00     0.217 C 
HETATM    3 CL2  UNL     1      29.462  -0.615  53.806  1.00  0.00    -0.230 Cl
ENDROOT
BRANCH   1   4
HETATM    4  C8  UNL     1      26.036   0.463  53.060  1.00  0.00     0.204 C 
HETATM    5 CL1  UNL     1      26.862   1.967  52.545  1.00  0.00    -0.098 Cl
BRANCH   4   6
HETATM    6  N5  UNL     1      24.645   0.622  52.673  1.00  0.00    -0.353 N 
HETATM    7  H7  UNL     1      24.543   1.227  51.864  1.00  0.00     0.163 HD
BRANCH   6   8
HETATM    8  C7  UNL     1      23.648  -0.058  53.443  1.00  0.00     0.139 A 
HETATM    9  N4  UNL     1      24.002  -0.758  54.507  1.00  0.00    -0.224 NA
HETATM   10  C6  UNL     1      23.122  -1.420  55.273  1.00  0.00     0.235 A 
HETATM   11  N3  UNL     1      21.797  -1.407  54.994  1.00  0.00    -0.241 NA
HETATM   12  C5  UNL     1      21.411  -0.691  53.900  1.00  0.00     0.072 A 
HETATM   13  C4  UNL     1      20.064  -0.665  53.597  1.00  0.00     0.035 A 
HETATM   14  C11 UNL     1      22.311  -0.009  53.109  1.00  0.00     0.041 A 
HETATM   15  C3  UNL     1      19.706   0.067  52.485  1.00  0.00     0.032 A 
HETATM   16  C2  UNL     1      20.553   0.767  51.658  1.00  0.00     0.037 A 
HETATM   17  C12 UNL     1      21.874   0.693  52.025  1.00  0.00     0.047 A 
BRANCH  16  18
HETATM   18  N2  UNL     1      20.210   1.512  50.531  1.00  0.00    -0.309 N 
HETATM   19  C1  UNL     1      20.631   1.400  49.186  1.00  0.00     0.318 C 
HETATM   20  N1  UNL     1      20.214   2.219  48.103  1.00  0.00    -0.352 N 
HETATM   21  O1  UNL     1      21.453   0.493  48.911  1.00  0.00    -0.247 OA
HETATM   22  H1  UNL     1      20.506   3.113  47.619  1.00  0.00     0.160 HD
HETATM   23  H2  UNL     1      19.372   1.951  47.541  1.00  0.00     0.160 HD
HETATM   24  H3  UNL     1      19.528   2.309  50.610  1.00  0.00     0.170 HD
ENDBRANCH  16  18
ENDBRANCH   6   8
ENDBRANCH   4   6
ENDBRANCH   1   4
TORSDOF 4
ENDMDL
