MODEL 1
REMARK VINA RESULT:      -6.9      0.000      0.000
REMARK  11 active torsions:
REMARK  status: ('A' for Active; 'I' for Inactive)
REMARK    1  A    between atoms: C2_2  and  C3_3 
REMARK    2  A    between atoms: C2_2  and  C8_9 
REMARK    3  A    between atoms: C3_3  and  C4_4 
REMARK    4  A    between atoms: C4_4  and  C5_5 
REMARK    5  A    between atoms: C5_5  and  C6_6 
REMARK    6  A    between atoms: C6_6  and  C7_7 
REMARK    7  A    between atoms: C7_7  and  O1_8 
REMARK    8  A    between atoms: C10_11  and  N1_12 
REMARK       I    between atoms: N1_12  and  C11_13 
REMARK    9  A    between atoms: C11_13  and  C12_15 
REMARK   10  A    between atoms: C12_15  and  N2_16 
REMARK   11  A    between atoms: C17_21  and  C18_22 
ROOT
HETATM    1  C8  UNL     1      25.766   0.609  52.240  1.00  0.00     0.044 A 
HETATM    2  C9  UNL     1      25.146  -0.014  53.403  1.00  0.00     0.008 A 
HETATM    3  C10 UNL     1      23.986   0.460  53.152  1.00  0.00     0.010 A 
HETATM    4  C20 UNL     1      24.420   1.176  51.967  1.00  0.00     0.069 A 
ENDROOT
BRANCH   3   5
HETATM    5  N1  UNL     1      22.625   0.537  53.563  1.00  0.00    -0.330 N 
HETATM    6  C11 UNL     1      21.634  -0.463  53.709  1.00  0.00     0.240 C 
HETATM    7  O2  UNL     1      21.907  -1.663  53.453  1.00  0.00    -0.271 OA
HETATM    8  H12 UNL     1      22.476   1.555  53.757  1.00  0.00     0.168 HD
BRANCH   6   9
HETATM    9  C12 UNL     1      20.273  -0.096  54.163  1.00  0.00     0.231 C 
BRANCH   9  10
HETATM   10  N2  UNL     1      19.271  -0.153  53.136  1.00  0.00    -0.351 N 
HETATM   11  C13 UNL     1      18.345  -1.240  53.334  1.00  0.00     0.091 C 
HETATM   12  C14 UNL     1      17.357  -1.402  52.438  1.00  0.00     0.018 C 
HETATM   13  C15 UNL     1      17.346  -0.427  51.340  1.00  0.00     0.015 C 
HETATM   14  C16 UNL     1      18.478   0.175  51.026  1.00  0.00    -0.001 C 
HETATM   15  C17 UNL     1      19.142   0.721  52.023  1.00  0.00     0.022 C 
BRANCH  15  16
HETATM   16  C18 UNL     1      19.770   2.054  52.203  1.00  0.00     0.054 C 
HETATM   17  C19 UNL     1      20.735   2.286  51.079  1.00  0.00     0.011 C 
ENDBRANCH  15  16
ENDBRANCH   9  10
ENDBRANCH   6   9
ENDBRANCH   3   5
BRANCH   1  18
HETATM   18  C2  UNL     1      26.841   1.592  52.544  1.00  0.00    -0.080 C 
HETATM   19  C1  UNL     1      27.105   2.490  51.570  1.00  0.00     0.015 C 
BRANCH  18  20
HETATM   20  C3  UNL     1      27.685   1.711  53.754  1.00  0.00     0.051 C 
BRANCH  20  21
HETATM   21  C4  UNL     1      29.003   1.146  53.509  1.00  0.00     0.071 C 
BRANCH  21  22
HETATM   22  C5  UNL     1      29.182  -0.170  53.562  1.00  0.00    -0.169 C 
BRANCH  22  23
HETATM   23  C6  UNL     1      29.576  -1.426  53.410  1.00  0.00     0.092 C 
BRANCH  23  24
HETATM   24  C7  UNL     1      28.517  -2.290  52.902  1.00  0.00     0.181 C 
BRANCH  24  25
HETATM   25  O1  UNL     1      28.632  -3.546  53.496  1.00  0.00    -0.400 OA
HETATM   26  H9  UNL     1      28.567  -3.481  54.495  1.00  0.00     0.209 HD
ENDBRANCH  24  25
ENDBRANCH  23  24
ENDBRANCH  22  23
ENDBRANCH  21  22
ENDBRANCH  20  21
ENDBRANCH  18  20
ENDBRANCH   1  18
TORSDOF 11
ENDMDL
MODEL 2
REMARK VINA RESULT:      -6.8      4.457      6.465
REMARK  11 active torsions:
REMARK  status: ('A' for Active; 'I' for Inactive)
REMARK    1  A    between atoms: C2_2  and  C3_3 
REMARK    2  A    between atoms: C2_2  and  C8_9 
REMARK    3  A    between atoms: C3_3  and  C4_4 
REMARK    4  A    between atoms: C4_4  and  C5_5 
REMARK    5  A    between atoms: C5_5  and  C6_6 
REMARK    6  A    between atoms: C6_6  and  C7_7 
REMARK    7  A    between atoms: C7_7  and  O1_8 
REMARK    8  A    between atoms: C10_11  and  N1_12 
REMARK       I    between atoms: N1_12  and  C11_13 
REMARK    9  A    between atoms: C11_13  and  C12_15 
REMARK   10  A    between atoms: C12_15  and  N2_16 
REMARK   11  A    between atoms: C17_21  and  C18_22 
ROOT
HETATM    1  C8  UNL     1      25.661   6.145  48.820  1.00  0.00     0.044 A 
HETATM    2  C9  UNL     1      25.319   4.738  48.992  1.00  0.00     0.008 A 
HETATM    3  C10 UNL     1      25.070   4.858  50.239  1.00  0.00     0.010 A 
HETATM    4  C20 UNL     1      25.393   6.272  50.276  1.00  0.00     0.069 A 
ENDROOT
BRANCH   3   5
HETATM    5  N1  UNL     1      24.663   4.197  51.434  1.00  0.00    -0.330 N 
HETATM    6  C11 UNL     1      24.932   2.896  51.920  1.00  0.00     0.240 C 
HETATM    7  O2  UNL     1      25.646   2.107  51.250  1.00  0.00    -0.271 OA
HETATM    8  H12 UNL     1      24.081   4.910  51.932  1.00  0.00     0.168 HD
BRANCH   6   9
HETATM    9  C12 UNL     1      24.371   2.460  53.219  1.00  0.00     0.231 C 
BRANCH   9  10
HETATM   10  N2  UNL     1      23.699   1.191  53.179  1.00  0.00    -0.351 N 
HETATM   11  C13 UNL     1      22.448   1.258  52.468  1.00  0.00     0.091 C 
HETATM   12  C14 UNL     1      21.719   0.133  52.360  1.00  0.00     0.018 C 
HETATM   13  C15 UNL     1      22.305  -1.051  52.999  1.00  0.00     0.015 C 
HETATM   14  C16 UNL     1      23.164  -0.870  53.986  1.00  0.00    -0.001 C 
HETATM   15  C17 UNL     1      24.149  -0.029  53.751  1.00  0.00     0.022 C 
BRANCH  15  16
HETATM   16  C18 UNL     1      25.615  -0.110  53.968  1.00  0.00     0.054 C 
HETATM   17  C19 UNL     1      26.209  -0.994  52.912  1.00  0.00     0.011 C 
ENDBRANCH  15  16
ENDBRANCH   9  10
ENDBRANCH   6   9
ENDBRANCH   3   5
BRANCH   1  18
HETATM   18  C2  UNL     1      27.059   6.409  48.385  1.00  0.00    -0.080 C 
HETATM   19  C1  UNL     1      27.296   7.648  47.901  1.00  0.00     0.015 C 
BRANCH  18  20
HETATM   20  C3  UNL     1      28.226   5.500  48.382  1.00  0.00     0.051 C 
BRANCH  20  21
HETATM   21  C4  UNL     1      29.359   6.133  47.722  1.00  0.00     0.071 C 
BRANCH  21  22
HETATM   22  C5  UNL     1      30.586   5.659  47.910  1.00  0.00    -0.169 C 
BRANCH  22  23
HETATM   23  C6  UNL     1      31.772   5.295  48.378  1.00  0.00     0.092 C 
BRANCH  23  24
HETATM   24  C7  UNL     1      32.128   5.987  49.610  1.00  0.00     0.181 C 
BRANCH  24  25
HETATM   25  O1  UNL     1      31.416   5.424  50.668  1.00  0.00    -0.400 OA
HETATM   26  H9  UNL     1      31.490   4.423  50.661  1.00  0.00     0.209 HD
ENDBRANCH  24  25
ENDBRANCH  23  24
ENDBRANCH  22  23
ENDBRANCH  21  22
ENDBRANCH  20  21
ENDBRANCH  18  20
ENDBRANCH   1  18
TORSDOF 11
ENDMDL
MODEL 3
REMARK VINA RESULT:      -6.7      4.449      7.405
REMARK  11 active torsions:
REMARK  status: ('A' for Active; 'I' for Inactive)
REMARK    1  A    between atoms: C2_2  and  C3_3 
REMARK    2  A    between atoms: C2_2  and  C8_9 
REMARK    3  A    between atoms: C3_3  and  C4_4 
REMARK    4  A    between atoms: C4_4  and  C5_5 
REMARK    5  A    between atoms: C5_5  and  C6_6 
REMARK    6  A    between atoms: C6_6  and  C7_7 
REMARK    7  A    between atoms: C7_7  and  O1_8 
REMARK    8  A    between atoms: C10_11  and  N1_12 
REMARK       I    between atoms: N1_12  and  C11_13 
REMARK    9  A    between atoms: C11_13  and  C12_15 
REMARK   10  A    between atoms: C12_15  and  N2_16 
REMARK   11  A    between atoms: C17_21  and  C18_22 
ROOT
HETATM    1  C8  UNL     1      24.528   1.101  53.189  1.00  0.00     0.044 A 
HETATM    2  C9  UNL     1      25.324   2.291  52.912  1.00  0.00     0.008 A 
HETATM    3  C10 UNL     1      24.804   2.480  51.760  1.00  0.00     0.010 A 
HETATM    4  C20 UNL     1      23.946   1.314  51.839  1.00  0.00     0.069 A 
ENDROOT
BRANCH   3   5
HETATM    5  N1  UNL     1      24.778   3.297  50.593  1.00  0.00    -0.330 N 
HETATM    6  C11 UNL     1      24.506   4.675  50.423  1.00  0.00     0.240 C 
HETATM    7  O2  UNL     1      24.226   5.390  51.418  1.00  0.00    -0.271 OA
HETATM    8  H12 UNL     1      25.020   2.638  49.818  1.00  0.00     0.168 HD
BRANCH   6   9
HETATM    9  C12 UNL     1      24.550   5.277  49.070  1.00  0.00     0.231 C 
BRANCH   9  10
HETATM   10  N2  UNL     1      25.839   5.784  48.689  1.00  0.00    -0.351 N 
HETATM   11  C13 UNL     1      26.883   4.806  48.860  1.00  0.00     0.091 C 
HETATM   12  C14 UNL     1      28.140   5.158  48.538  1.00  0.00     0.018 C 
HETATM   13  C15 UNL     1      28.294   6.531  48.042  1.00  0.00     0.015 C 
HETATM   14  C16 UNL     1      27.386   7.427  48.387  1.00  0.00    -0.001 C 
HETATM   15  C17 UNL     1      26.130   7.084  48.195  1.00  0.00     0.022 C 
BRANCH  15  16
HETATM   16  C18 UNL     1      24.979   7.785  47.573  1.00  0.00     0.054 C 
HETATM   17  C19 UNL     1      25.381   8.249  46.206  1.00  0.00     0.011 C 
ENDBRANCH  15  16
ENDBRANCH   9  10
ENDBRANCH   6   9
ENDBRANCH   3   5
BRANCH   1  18
HETATM   18  C2  UNL     1      25.307  -0.153  53.377  1.00  0.00    -0.080 C 
HETATM   19  C1  UNL     1      25.068  -0.823  54.526  1.00  0.00     0.015 C 
BRANCH  18  20
HETATM   20  C3  UNL     1      26.329  -0.761  52.496  1.00  0.00     0.051 C 
BRANCH  20  21
HETATM   21  C4  UNL     1      27.499  -1.146  53.271  1.00  0.00     0.071 C 
BRANCH  21  22
HETATM   22  C5  UNL     1      28.427  -0.241  53.566  1.00  0.00    -0.169 C 
BRANCH  22  23
HETATM   23  C6  UNL     1      29.315   0.744  53.571  1.00  0.00     0.092 C 
BRANCH  23  24
HETATM   24  C7  UNL     1      28.710   2.045  53.827  1.00  0.00     0.181 C 
BRANCH  24  25
HETATM   25  O1  UNL     1      29.306   2.994  52.997  1.00  0.00    -0.400 OA
HETATM   26  H9  UNL     1      28.714   3.214  52.217  1.00  0.00     0.209 HD
ENDBRANCH  24  25
ENDBRANCH  23  24
ENDBRANCH  22  23
ENDBRANCH  21  22
ENDBRANCH  20  21
ENDBRANCH  18  20
ENDBRANCH   1  18
TORSDOF 11
ENDMDL
MODEL 4
REMARK VINA RESULT:      -6.6      4.327      7.812
REMARK  11 active torsions:
REMARK  status: ('A' for Active; 'I' for Inactive)
REMARK    1  A    between atoms: C2_2  and  C3_3 
REMARK    2  A    between atoms: C2_2  and  C8_9 
REMARK    3  A    between atoms: C3_3  and  C4_4 
REMARK    4  A    between atoms: C4_4  and  C5_5 
REMARK    5  A    between atoms: C5_5  and  C6_6 
REMARK    6  A    between atoms: C6_6  and  C7_7 
REMARK    7  A    between atoms: C7_7  and  O1_8 
REMARK    8  A    between atoms: C10_11  and  N1_12 
REMARK       I    between atoms: N1_12  and  C11_13 
REMARK    9  A    between atoms: C11_13  and  C12_15 
REMARK   10  A    between atoms: C12_15  and  N2_16 
REMARK   11  A    between atoms: C17_21  and  C18_22 
ROOT
HETATM    1  C8  UNL     1      23.211   1.629  53.022  1.00  0.00     0.044 A 
HETATM    2  C9  UNL     1      24.225   2.676  52.970  1.00  0.00     0.008 A 
HETATM    3  C10 UNL     1      23.997   2.961  51.746  1.00  0.00     0.010 A 
HETATM    4  C20 UNL     1      22.968   1.951  51.592  1.00  0.00     0.069 A 
ENDROOT
BRANCH   3   5
HETATM    5  N1  UNL     1      24.348   3.784  50.637  1.00  0.00    -0.330 N 
HETATM    6  C11 UNL     1      25.601   4.075  50.049  1.00  0.00     0.240 C 
HETATM    7  O2  UNL     1      26.651   3.566  50.517  1.00  0.00    -0.271 OA
HETATM    8  H12 UNL     1      23.432   4.166  50.305  1.00  0.00     0.168 HD
BRANCH   6   9
HETATM    9  C12 UNL     1      25.678   4.982  48.880  1.00  0.00     0.231 C 
BRANCH   9  10
HETATM   10  N2  UNL     1      26.382   6.209  49.128  1.00  0.00    -0.351 N 
HETATM   11  C13 UNL     1      25.640   7.103  49.981  1.00  0.00     0.091 C 
HETATM   12  C14 UNL     1      26.191   8.289  50.288  1.00  0.00     0.018 C 
HETATM   13  C15 UNL     1      27.514   8.532  49.700  1.00  0.00     0.015 C 
HETATM   14  C16 UNL     1      27.839   7.877  48.600  1.00  0.00    -0.001 C 
HETATM   15  C17 UNL     1      27.660   6.574  48.626  1.00  0.00     0.022 C 
BRANCH  15  16
HETATM   16  C18 UNL     1      28.524   5.431  48.236  1.00  0.00     0.054 C 
HETATM   17  C19 UNL     1      29.937   5.917  48.111  1.00  0.00     0.011 C 
ENDBRANCH  15  16
ENDBRANCH   9  10
ENDBRANCH   6   9
ENDBRANCH   3   5
BRANCH   1  18
HETATM   18  C2  UNL     1      23.724   0.263  53.309  1.00  0.00    -0.080 C 
HETATM   19  C1  UNL     1      22.846  -0.745  53.108  1.00  0.00     0.015 C 
BRANCH  18  20
HETATM   20  C3  UNL     1      25.053  -0.153  53.809  1.00  0.00     0.051 C 
BRANCH  20  21
HETATM   21  C4  UNL     1      26.016  -0.187  52.718  1.00  0.00     0.071 C 
BRANCH  21  22
HETATM   22  C5  UNL     1      27.242   0.293  52.900  1.00  0.00    -0.169 C 
BRANCH  22  23
HETATM   23  C6  UNL     1      28.380   0.785  53.371  1.00  0.00     0.092 C 
BRANCH  23  24
HETATM   24  C7  UNL     1      28.464   2.234  53.237  1.00  0.00     0.181 C 
BRANCH  24  25
HETATM   25  O1  UNL     1      27.638   2.827  54.192  1.00  0.00    -0.400 OA
HETATM   26  H9  UNL     1      27.400   2.175  54.917  1.00  0.00     0.209 HD
ENDBRANCH  24  25
ENDBRANCH  23  24
ENDBRANCH  22  23
ENDBRANCH  21  22
ENDBRANCH  20  21
ENDBRANCH  18  20
ENDBRANCH   1  18
TORSDOF 11
ENDMDL
MODEL 5
REMARK VINA RESULT:      -6.6      4.613      7.157
REMARK  11 active torsions:
REMARK  status: ('A' for Active; 'I' for Inactive)
REMARK    1  A    between atoms: C2_2  and  C3_3 
REMARK    2  A    between atoms: C2_2  and  C8_9 
REMARK    3  A    between atoms: C3_3  and  C4_4 
REMARK    4  A    between atoms: C4_4  and  C5_5 
REMARK    5  A    between atoms: C5_5  and  C6_6 
REMARK    6  A    between atoms: C6_6  and  C7_7 
REMARK    7  A    between atoms: C7_7  and  O1_8 
REMARK    8  A    between atoms: C10_11  and  N1_12 
REMARK       I    between atoms: N1_12  and  C11_13 
REMARK    9  A    between atoms: C11_13  and  C12_15 
REMARK   10  A    between atoms: C12_15  and  N2_16 
REMARK   11  A    between atoms: C17_21  and  C18_22 
ROOT
HETATM    1  C8  UNL     1      25.359   6.743  48.890  1.00  0.00     0.044 A 
HETATM    2  C9  UNL     1      24.763   5.414  48.959  1.00  0.00     0.008 A 
HETATM    3  C10 UNL     1      24.808   5.362  50.235  1.00  0.00     0.010 A 
HETATM    4  C20 UNL     1      25.429   6.665  50.372  1.00  0.00     0.069 A 
ENDROOT
BRANCH   3   5
HETATM    5  N1  UNL     1      24.521   4.591  51.398  1.00  0.00    -0.330 N 
HETATM    6  C11 UNL     1      24.162   3.231  51.554  1.00  0.00     0.240 C 
HETATM    7  O2  UNL     1      24.049   2.490  50.545  1.00  0.00    -0.271 OA
HETATM    8  H12 UNL     1      24.637   5.270  52.186  1.00  0.00     0.168 HD
BRANCH   6   9
HETATM    9  C12 UNL     1      23.917   2.680  52.906  1.00  0.00     0.231 C 
BRANCH   9  10
HETATM   10  N2  UNL     1      24.784   1.594  53.269  1.00  0.00    -0.351 N 
HETATM   11  C13 UNL     1      26.036   2.053  53.815  1.00  0.00     0.091 C 
HETATM   12  C14 UNL     1      26.938   1.132  54.194  1.00  0.00     0.018 C 
HETATM   13  C15 UNL     1      26.524  -0.263  53.997  1.00  0.00     0.015 C 
HETATM   14  C16 UNL     1      25.608  -0.520  53.081  1.00  0.00    -0.001 C 
HETATM   15  C17 UNL     1      24.512   0.206  53.135  1.00  0.00     0.022 C 
BRANCH  15  16
HETATM   16  C18 UNL     1      23.070  -0.142  53.082  1.00  0.00     0.054 C 
HETATM   17  C19 UNL     1      22.707  -0.875  54.339  1.00  0.00     0.011 C 
ENDBRANCH  15  16
ENDBRANCH   9  10
ENDBRANCH   6   9
ENDBRANCH   3   5
BRANCH   1  18
HETATM   18  C2  UNL     1      26.662   6.819  48.176  1.00  0.00    -0.080 C 
HETATM   19  C1  UNL     1      26.805   7.863  47.330  1.00  0.00     0.015 C 
BRANCH  18  20
HETATM   20  C3  UNL     1      27.818   5.898  48.237  1.00  0.00     0.051 C 
BRANCH  20  21
HETATM   21  C4  UNL     1      29.059   6.629  48.032  1.00  0.00     0.071 C 
BRANCH  21  22
HETATM   22  C5  UNL     1      30.211   5.972  47.944  1.00  0.00    -0.169 C 
BRANCH  22  23
HETATM   23  C6  UNL     1      31.378   5.378  48.153  1.00  0.00     0.092 C 
BRANCH  23  24
HETATM   24  C7  UNL     1      32.057   5.873  49.344  1.00  0.00     0.181 C 
BRANCH  24  25
HETATM   25  O1  UNL     1      31.337   5.483  50.472  1.00  0.00    -0.400 OA
HETATM   26  H9  UNL     1      30.482   6.004  50.553  1.00  0.00     0.209 HD
ENDBRANCH  24  25
ENDBRANCH  23  24
ENDBRANCH  22  23
ENDBRANCH  21  22
ENDBRANCH  20  21
ENDBRANCH  18  20
ENDBRANCH   1  18
TORSDOF 11
ENDMDL
MODEL 6
REMARK VINA RESULT:      -6.4      4.479      6.764
REMARK  11 active torsions:
REMARK  status: ('A' for Active; 'I' for Inactive)
REMARK    1  A    between atoms: C2_2  and  C3_3 
REMARK    2  A    between atoms: C2_2  and  C8_9 
REMARK    3  A    between atoms: C3_3  and  C4_4 
REMARK    4  A    between atoms: C4_4  and  C5_5 
REMARK    5  A    between atoms: C5_5  and  C6_6 
REMARK    6  A    between atoms: C6_6  and  C7_7 
REMARK    7  A    between atoms: C7_7  and  O1_8 
REMARK    8  A    between atoms: C10_11  and  N1_12 
REMARK       I    between atoms: N1_12  and  C11_13 
REMARK    9  A    between atoms: C11_13  and  C12_15 
REMARK   10  A    between atoms: C12_15  and  N2_16 
REMARK   11  A    between atoms: C17_21  and  C18_22 
ROOT
HETATM    1  C8  UNL     1      23.263   1.057  52.283  1.00  0.00     0.044 A 
HETATM    2  C9  UNL     1      22.884   2.340  52.862  1.00  0.00     0.008 A 
HETATM    3  C10 UNL     1      23.704   3.008  52.144  1.00  0.00     0.010 A 
HETATM    4  C20 UNL     1      24.230   1.837  51.469  1.00  0.00     0.069 A 
ENDROOT
BRANCH   3   5
HETATM    5  N1  UNL     1      24.219   4.297  51.826  1.00  0.00    -0.330 N 
HETATM    6  C11 UNL     1      23.567   5.512  51.508  1.00  0.00     0.240 C 
HETATM    7  O2  UNL     1      22.312   5.564  51.475  1.00  0.00    -0.271 OA
HETATM    8  H12 UNL     1      25.257   4.174  51.875  1.00  0.00     0.168 HD
BRANCH   6   9
HETATM    9  C12 UNL     1      24.364   6.725  51.214  1.00  0.00     0.231 C 
BRANCH   9  10
HETATM   10  N2  UNL     1      24.245   7.199  49.863  1.00  0.00    -0.351 N 
HETATM   11  C13 UNL     1      23.497   8.427  49.778  1.00  0.00     0.091 C 
HETATM   12  C14 UNL     1      23.313   8.974  48.564  1.00  0.00     0.018 C 
HETATM   13  C15 UNL     1      23.912   8.232  47.449  1.00  0.00     0.015 C 
HETATM   14  C16 UNL     1      24.129   6.938  47.604  1.00  0.00    -0.001 C 
HETATM   15  C17 UNL     1      24.773   6.584  48.696  1.00  0.00     0.022 C 
BRANCH  15  16
HETATM   16  C18 UNL     1      25.925   5.679  48.937  1.00  0.00     0.054 C 
HETATM   17  C19 UNL     1      27.177   6.361  48.474  1.00  0.00     0.011 C 
ENDBRANCH  15  16
ENDBRANCH   9  10
ENDBRANCH   6   9
ENDBRANCH   3   5
BRANCH   1  18
HETATM   18  C2  UNL     1      23.850   0.078  53.238  1.00  0.00    -0.080 C 
HETATM   19  C1  UNL     1      22.983  -0.809  53.773  1.00  0.00     0.015 C 
BRANCH  18  20
HETATM   20  C3  UNL     1      25.248  -0.048  53.708  1.00  0.00     0.051 C 
BRANCH  20  21
HETATM   21  C4  UNL     1      26.018  -0.872  52.788  1.00  0.00     0.071 C 
BRANCH  21  22
HETATM   22  C5  UNL     1      27.313  -1.077  53.006  1.00  0.00    -0.169 C 
BRANCH  22  23
HETATM   23  C6  UNL     1      28.563  -1.086  53.450  1.00  0.00     0.092 C 
BRANCH  23  24
HETATM   24  C7  UNL     1      29.289  -2.289  53.061  1.00  0.00     0.181 C 
BRANCH  24  25
HETATM   25  O1  UNL     1      28.560  -3.408  53.461  1.00  0.00    -0.400 OA
HETATM   26  H9  UNL     1      28.923  -4.244  53.042  1.00  0.00     0.209 HD
ENDBRANCH  24  25
ENDBRANCH  23  24
ENDBRANCH  22  23
ENDBRANCH  21  22
ENDBRANCH  20  21
ENDBRANCH  18  20
ENDBRANCH   1  18
TORSDOF 11
ENDMDL
MODEL 7
REMARK VINA RESULT:      -6.4      4.614      7.770
REMARK  11 active torsions:
REMARK  status: ('A' for Active; 'I' for Inactive)
REMARK    1  A    between atoms: C2_2  and  C3_3 
REMARK    2  A    between atoms: C2_2  and  C8_9 
REMARK    3  A    between atoms: C3_3  and  C4_4 
REMARK    4  A    between atoms: C4_4  and  C5_5 
REMARK    5  A    between atoms: C5_5  and  C6_6 
REMARK    6  A    between atoms: C6_6  and  C7_7 
REMARK    7  A    between atoms: C7_7  and  O1_8 
REMARK    8  A    between atoms: C10_11  and  N1_12 
REMARK       I    between atoms: N1_12  and  C11_13 
REMARK    9  A    between atoms: C11_13  and  C12_15 
REMARK   10  A    between atoms: C12_15  and  N2_16 
REMARK   11  A    between atoms: C17_21  and  C18_22 
ROOT
HETATM    1  C8  UNL     1      23.434   1.930  52.600  1.00  0.00     0.044 A 
HETATM    2  C9  UNL     1      24.084   3.235  52.562  1.00  0.00     0.008 A 
HETATM    3  C10 UNL     1      24.043   3.318  51.288  1.00  0.00     0.010 A 
HETATM    4  C20 UNL     1      23.411   2.024  51.118  1.00  0.00     0.069 A 
ENDROOT
BRANCH   3   5
HETATM    5  N1  UNL     1      24.359   4.104  50.142  1.00  0.00    -0.330 N 
HETATM    6  C11 UNL     1      24.678   5.476  50.009  1.00  0.00     0.240 C 
HETATM    7  O2  UNL     1      24.713   6.217  51.023  1.00  0.00    -0.271 OA
HETATM    8  H12 UNL     1      24.312   3.424  49.348  1.00  0.00     0.168 HD
BRANCH   6   9
HETATM    9  C12 UNL     1      24.971   6.042  48.672  1.00  0.00     0.231 C 
BRANCH   9  10
HETATM   10  N2  UNL     1      26.346   6.406  48.470  1.00  0.00    -0.351 N 
HETATM   11  C13 UNL     1      27.231   5.274  48.572  1.00  0.00     0.091 C 
HETATM   12  C14 UNL     1      28.548   5.482  48.404  1.00  0.00     0.018 C 
HETATM   13  C15 UNL     1      28.928   6.873  48.132  1.00  0.00     0.015 C 
HETATM   14  C16 UNL     1      28.118   7.834  48.536  1.00  0.00    -0.001 C 
HETATM   15  C17 UNL     1      26.851   7.706  48.200  1.00  0.00     0.022 C 
BRANCH  15  16
HETATM   16  C18 UNL     1      25.868   8.644  47.603  1.00  0.00     0.054 C 
HETATM   17  C19 UNL     1      25.579   9.731  48.595  1.00  0.00     0.011 C 
ENDBRANCH  15  16
ENDBRANCH   9  10
ENDBRANCH   6   9
ENDBRANCH   3   5
BRANCH   1  18
HETATM   18  C2  UNL     1      24.255   0.830  53.175  1.00  0.00    -0.080 C 
HETATM   19  C1  UNL     1      23.580  -0.297  53.493  1.00  0.00     0.015 C 
BRANCH  18  20
HETATM   20  C3  UNL     1      25.703   0.800  53.474  1.00  0.00     0.051 C 
BRANCH  20  21
HETATM   21  C4  UNL     1      26.369  -0.199  52.651  1.00  0.00     0.071 C 
BRANCH  21  22
HETATM   22  C5  UNL     1      27.572  -0.648  52.995  1.00  0.00    -0.169 C 
BRANCH  22  23
HETATM   23  C6  UNL     1      28.654  -1.095  53.617  1.00  0.00     0.092 C 
BRANCH  23  24
HETATM   24  C7  UNL     1      29.228  -2.270  52.974  1.00  0.00     0.181 C 
BRANCH  24  25
HETATM   25  O1  UNL     1      28.596  -3.411  53.467  1.00  0.00    -0.400 OA
HETATM   26  H9  UNL     1      27.929  -3.175  54.178  1.00  0.00     0.209 HD
ENDBRANCH  24  25
ENDBRANCH  23  24
ENDBRANCH  22  23
ENDBRANCH  21  22
ENDBRANCH  20  21
ENDBRANCH  18  20
ENDBRANCH   1  18
TORSDOF 11
ENDMDL
MODEL 8
REMARK VINA RESULT:      -6.3      4.181      6.257
REMARK  11 active torsions:
REMARK  status: ('A' for Active; 'I' for Inactive)
REMARK    1  A    between atoms: C2_2  and  C3_3 
REMARK    2  A    between atoms: C2_2  and  C8_9 
REMARK    3  A    between atoms: C3_3  and  C4_4 
REMARK    4  A    between atoms: C4_4  and  C5_5 
REMARK    5  A    between atoms: C5_5  and  C6_6 
REMARK    6  A    between atoms: C6_6  and  C7_7 
REMARK    7  A    between atoms: C7_7  and  O1_8 
REMARK    8  A    between atoms: C10_11  and  N1_12 
REMARK       I    between atoms: N1_12  and  C11_13 
REMARK    9  A    between atoms: C11_13  and  C12_15 
REMARK   10  A    between atoms: C12_15  and  N2_16 
REMARK   11  A    between atoms: C17_21  and  C18_22 
ROOT
HETATM    1  C8  UNL     1      25.536   1.729  53.435  1.00  0.00     0.044 A 
HETATM    2  C9  UNL     1      26.390   2.088  52.308  1.00  0.00     0.008 A 
HETATM    3  C10 UNL     1      25.609   3.011  51.895  1.00  0.00     0.010 A 
HETATM    4  C20 UNL     1      24.623   2.789  52.935  1.00  0.00     0.069 A 
ENDROOT
BRANCH   3   5
HETATM    5  N1  UNL     1      25.387   4.023  50.918  1.00  0.00    -0.330 N 
HETATM    6  C11 UNL     1      26.119   4.383  49.761  1.00  0.00     0.240 C 
HETATM    7  O2  UNL     1      27.167   3.759  49.459  1.00  0.00    -0.271 OA
HETATM    8  H12 UNL     1      24.506   4.492  51.234  1.00  0.00     0.168 HD
BRANCH   6   9
HETATM    9  C12 UNL     1      25.651   5.497  48.905  1.00  0.00     0.231 C 
BRANCH   9  10
HETATM   10  N2  UNL     1      24.485   6.174  49.399  1.00  0.00    -0.351 N 
HETATM   11  C13 UNL     1      24.819   7.326  50.198  1.00  0.00     0.091 C 
HETATM   12  C14 UNL     1      23.813   8.048  50.722  1.00  0.00     0.018 C 
HETATM   13  C15 UNL     1      22.466   7.558  50.406  1.00  0.00     0.015 C 
HETATM   14  C16 UNL     1      22.320   6.282  50.098  1.00  0.00    -0.001 C 
HETATM   15  C17 UNL     1      23.130   5.812  49.172  1.00  0.00     0.022 C 
BRANCH  15  16
HETATM   16  C18 UNL     1      22.901   4.989  47.958  1.00  0.00     0.054 C 
HETATM   17  C19 UNL     1      22.580   3.587  48.382  1.00  0.00     0.011 C 
ENDBRANCH  15  16
ENDBRANCH   9  10
ENDBRANCH   6   9
ENDBRANCH   3   5
BRANCH   1  18
HETATM   18  C2  UNL     1      25.004   0.340  53.411  1.00  0.00    -0.080 C 
HETATM   19  C1  UNL     1      23.744   0.205  52.942  1.00  0.00     0.015 C 
BRANCH  18  20
HETATM   20  C3  UNL     1      25.647  -0.917  53.852  1.00  0.00     0.051 C 
BRANCH  20  21
HETATM   21  C4  UNL     1      26.603  -1.374  52.854  1.00  0.00     0.071 C 
BRANCH  21  22
HETATM   22  C5  UNL     1      27.904  -1.172  53.038  1.00  0.00    -0.169 C 
BRANCH  22  23
HETATM   23  C6  UNL     1      29.111  -0.864  53.491  1.00  0.00     0.092 C 
BRANCH  23  24
HETATM   24  C7  UNL     1      29.150   0.435  54.152  1.00  0.00     0.181 C 
BRANCH  24  25
HETATM   25  O1  UNL     1      29.686   1.375  53.274  1.00  0.00    -0.400 OA
HETATM   26  H9  UNL     1      28.973   1.766  52.685  1.00  0.00     0.209 HD
ENDBRANCH  24  25
ENDBRANCH  23  24
ENDBRANCH  22  23
ENDBRANCH  21  22
ENDBRANCH  20  21
ENDBRANCH  18  20
ENDBRANCH   1  18
TORSDOF 11
ENDMDL
MODEL 9
REMARK VINA RESULT:      -6.3      5.874      8.313
REMARK  11 active torsions:
REMARK  status: ('A' for Active; 'I' for Inactive)
REMARK    1  A    between atoms: C2_2  and  C3_3 
REMARK    2  A    between atoms: C2_2  and  C8_9 
REMARK    3  A    between atoms: C3_3  and  C4_4 
REMARK    4  A    between atoms: C4_4  and  C5_5 
REMARK    5  A    between atoms: C5_5  and  C6_6 
REMARK    6  A    between atoms: C6_6  and  C7_7 
REMARK    7  A    between atoms: C7_7  and  O1_8 
REMARK    8  A    between atoms: C10_11  and  N1_12 
REMARK       I    between atoms: N1_12  and  C11_13 
REMARK    9  A    between atoms: C11_13  and  C12_15 
REMARK   10  A    between atoms: C12_15  and  N2_16 
REMARK   11  A    between atoms: C17_21  and  C18_22 
ROOT
HETATM    1  C8  UNL     1      26.367   6.338  48.548  1.00  0.00     0.044 A 
HETATM    2  C9  UNL     1      26.456   4.946  48.973  1.00  0.00     0.008 A 
HETATM    3  C10 UNL     1      25.698   5.114  49.988  1.00  0.00     0.010 A 
HETATM    4  C20 UNL     1      25.506   6.530  49.743  1.00  0.00     0.069 A 
ENDROOT
BRANCH   3   5
HETATM    5  N1  UNL     1      25.077   4.503  51.115  1.00  0.00    -0.330 N 
HETATM    6  C11 UNL     1      24.296   3.327  51.228  1.00  0.00     0.240 C 
HETATM    7  O2  UNL     1      24.052   2.632  50.211  1.00  0.00    -0.271 OA
HETATM    8  H12 UNL     1      25.324   5.132  51.913  1.00  0.00     0.168 HD
BRANCH   6   9
HETATM    9  C12 UNL     1      23.765   2.916  52.548  1.00  0.00     0.231 C 
BRANCH   9  10
HETATM   10  N2  UNL     1      24.428   1.780  53.126  1.00  0.00    -0.351 N 
HETATM   11  C13 UNL     1      25.724   2.116  53.659  1.00  0.00     0.091 C 
HETATM   12  C14 UNL     1      26.448   1.138  54.228  1.00  0.00     0.018 C 
HETATM   13  C15 UNL     1      25.812  -0.185  54.233  1.00  0.00     0.015 C 
HETATM   14  C16 UNL     1      24.892  -0.441  53.321  1.00  0.00    -0.001 C 
HETATM   15  C17 UNL     1      23.931   0.451  53.199  1.00  0.00     0.022 C 
BRANCH  15  16
HETATM   16  C18 UNL     1      22.453   0.335  53.125  1.00  0.00     0.054 C 
HETATM   17  C19 UNL     1      22.029  -0.887  53.883  1.00  0.00     0.011 C 
ENDBRANCH  15  16
ENDBRANCH   9  10
ENDBRANCH   6   9
ENDBRANCH   3   5
BRANCH   1  18
HETATM   18  C2  UNL     1      27.655   7.083  48.542  1.00  0.00    -0.080 C 
HETATM   19  C1  UNL     1      28.734   6.382  48.131  1.00  0.00     0.015 C 
BRANCH  18  20
HETATM   20  C3  UNL     1      27.930   8.480  48.947  1.00  0.00     0.051 C 
BRANCH  20  21
HETATM   21  C4  UNL     1      29.365   8.725  48.974  1.00  0.00     0.071 C 
BRANCH  21  22
HETATM   22  C5  UNL     1      29.827   9.970  48.924  1.00  0.00    -0.169 C 
BRANCH  22  23
HETATM   23  C6  UNL     1      30.555  11.078  48.920  1.00  0.00     0.092 C 
BRANCH  23  24
HETATM   24  C7  UNL     1      29.739  12.287  48.924  1.00  0.00     0.181 C 
BRANCH  24  25
HETATM   25  O1  UNL     1      28.514  12.005  49.525  1.00  0.00    -0.400 OA
HETATM   26  H9  UNL     1      27.767  12.501  49.074  1.00  0.00     0.209 HD
ENDBRANCH  24  25
ENDBRANCH  23  24
ENDBRANCH  22  23
ENDBRANCH  21  22
ENDBRANCH  20  21
ENDBRANCH  18  20
ENDBRANCH   1  18
TORSDOF 11
ENDMDL
