MODEL 1
REMARK VINA RESULT:      -8.6      0.000      0.000
REMARK  5 active torsions:
REMARK  status: ('A' for Active; 'I' for Inactive)
REMARK    1  A    between atoms: C7_10  and  N4_11 
REMARK    2  A    between atoms: N4_11  and  C8_12 
REMARK    3  A    between atoms: C9_13  and  C10_14 
REMARK    4  A    between atoms: C11_15  and  C12_16 
REMARK    5  A    between atoms: C12_16  and  C13_17 
ROOT
HETATM    1  C1  UNL     1      24.215   7.975  50.455  1.00  0.00     0.045 C 
HETATM    2  C2  UNL     1      24.440   7.478  48.991  1.00  0.00     0.157 C 
HETATM    3  C3  UNL     1      23.825   6.140  48.836  1.00  0.00     0.117 C 
HETATM    4  N1  UNL     1      23.827   5.047  49.508  1.00  0.00    -0.275 NA
HETATM    5  C4  UNL     1      24.472   4.748  50.719  1.00  0.00     0.233 C 
HETATM    6  C5  UNL     1      23.381   4.326  51.719  1.00  0.00     0.190 C 
HETATM    7  N2  UNL     1      22.203   5.066  51.489  1.00  0.00    -0.269 NA
HETATM    8  C6  UNL     1      21.012   4.667  51.295  1.00  0.00     0.230 C 
HETATM    9  N3  UNL     1      20.794   3.236  51.298  1.00  0.00    -0.224 NA
HETATM   10  C7  UNL     1      21.801   2.436  51.480  1.00  0.00     0.136 C 
HETATM   11  C14 UNL     1      23.200   2.862  51.609  1.00  0.00     0.014 C 
HETATM   12  C15 UNL     1      24.163   1.966  51.586  1.00  0.00     0.006 C 
HETATM   13  C16 UNL     1      25.435   2.752  51.687  1.00  0.00     0.147 C 
HETATM   14  N5  UNL     1      25.461   3.766  50.652  1.00  0.00    -0.382 N 
HETATM   15  C17 UNL     1      26.080   3.383  49.459  1.00  0.00     0.147 C 
HETATM   16  C18 UNL     1      27.089   4.337  48.963  1.00  0.00    -0.008 C 
HETATM   17  C19 UNL     1      28.050   5.140  48.518  1.00  0.00    -0.003 C 
HETATM   18  C20 UNL     1      28.505   6.450  48.079  1.00  0.00    -0.002 C 
HETATM   19  C21 UNL     1      27.963   7.625  47.957  1.00  0.00    -0.001 C 
HETATM   20  C22 UNL     1      26.608   8.235  48.227  1.00  0.00     0.196 C 
HETATM   21  O1  UNL     1      25.754   7.404  48.753  1.00  0.00    -0.377 OA
ENDROOT
BRANCH  10  22
HETATM   22  N4  UNL     1      21.508   1.045  51.480  1.00  0.00    -0.353 N 
HETATM   23  H9  UNL     1      21.653   0.456  50.654  1.00  0.00     0.166 HD
BRANCH  22  24
HETATM   24  C8  UNL     1      20.991   0.369  52.649  1.00  0.00     0.072 C 
HETATM   25  C9  UNL     1      20.948  -0.454  53.659  1.00  0.00     0.059 C 
BRANCH  25  26
HETATM   26  C10 UNL     1      21.375  -1.479  54.580  1.00  0.00    -0.020 C 
HETATM   27  C11 UNL     1      22.710  -1.284  54.582  1.00  0.00    -0.029 C 
BRANCH  27  28
HETATM   28  C12 UNL     1      23.677  -0.389  53.948  1.00  0.00     0.037 C 
BRANCH  28  29
HETATM   29  C13 UNL     1      25.077  -0.714  54.482  1.00  0.00     0.089 C 
HETATM   30 BR1  UNL     1      26.289  -0.973  52.999  1.00  0.00    -0.096 Br
ENDBRANCH  28  29
ENDBRANCH  27  28
ENDBRANCH  25  26
ENDBRANCH  22  24
ENDBRANCH  10  22
TORSDOF 5
ENDMDL
MODEL 2
REMARK VINA RESULT:      -8.3      2.936      8.096
REMARK  5 active torsions:
REMARK  status: ('A' for Active; 'I' for Inactive)
REMARK    1  A    between atoms: C7_10  and  N4_11 
REMARK    2  A    between atoms: N4_11  and  C8_12 
REMARK    3  A    between atoms: C9_13  and  C10_14 
REMARK    4  A    between atoms: C11_15  and  C12_16 
REMARK    5  A    between atoms: C12_16  and  C13_17 
ROOT
HETATM    1  C1  UNL     1      20.816   1.192  50.482  1.00  0.00     0.045 C 
HETATM    2  C2  UNL     1      20.882   1.653  51.972  1.00  0.00     0.157 C 
HETATM    3  C3  UNL     1      21.855   2.764  52.092  1.00  0.00     0.117 C 
HETATM    4  N1  UNL     1      23.048   2.984  51.675  1.00  0.00    -0.275 NA
HETATM    5  C4  UNL     1      23.886   2.166  50.900  1.00  0.00     0.233 C 
HETATM    6  C5  UNL     1      24.244   2.962  49.632  1.00  0.00     0.190 C 
HETATM    7  N2  UNL     1      23.150   3.757  49.236  1.00  0.00    -0.269 NA
HETATM    8  C6  UNL     1      23.089   5.004  48.995  1.00  0.00     0.230 C 
HETATM    9  N3  UNL     1      24.315   5.758  49.149  1.00  0.00    -0.224 NA
HETATM   10  C7  UNL     1      25.397   5.149  49.530  1.00  0.00     0.136 C 
HETATM   11  C14 UNL     1      25.476   3.733  49.908  1.00  0.00     0.014 C 
HETATM   12  C15 UNL     1      26.568   3.264  50.471  1.00  0.00     0.006 C 
HETATM   13  C16 UNL     1      26.276   1.823  50.760  1.00  0.00     0.147 C 
HETATM   14  N5  UNL     1      25.050   1.724  51.528  1.00  0.00    -0.382 N 
HETATM   15  C17 UNL     1      25.216   1.715  52.915  1.00  0.00     0.147 C 
HETATM   16  C18 UNL     1      24.508   0.621  53.606  1.00  0.00    -0.008 C 
HETATM   17  C19 UNL     1      23.938  -0.386  54.258  1.00  0.00    -0.003 C 
HETATM   18  C20 UNL     1      22.759  -1.161  54.613  1.00  0.00    -0.002 C 
HETATM   19  C21 UNL     1      21.497  -1.121  54.302  1.00  0.00    -0.001 C 
HETATM   20  C22 UNL     1      20.620  -0.278  53.407  1.00  0.00     0.196 C 
HETATM   21  O1  UNL     1      21.273   0.624  52.731  1.00  0.00    -0.377 OA
ENDROOT
BRANCH  10  22
HETATM   22  N4  UNL     1      26.563   5.954  49.649  1.00  0.00    -0.353 N 
HETATM   23  H9  UNL     1      26.804   6.442  50.518  1.00  0.00     0.166 HD
BRANCH  22  24
HETATM   24  C8  UNL     1      27.490   6.131  48.552  1.00  0.00     0.072 C 
HETATM   25  C9  UNL     1      28.477   6.628  47.862  1.00  0.00     0.059 C 
BRANCH  25  26
HETATM   26  C10 UNL     1      29.593   7.480  47.530  1.00  0.00    -0.020 C 
HETATM   27  C11 UNL     1      30.603   6.586  47.512  1.00  0.00    -0.029 C 
BRANCH  27  28
HETATM   28  C12 UNL     1      30.786   5.150  47.723  1.00  0.00     0.037 C 
BRANCH  28  29
HETATM   29  C13 UNL     1      32.210   4.765  47.305  1.00  0.00     0.089 C 
HETATM   30 BR1  UNL     1      32.212   2.963  46.606  1.00  0.00    -0.096 Br
ENDBRANCH  28  29
ENDBRANCH  27  28
ENDBRANCH  25  26
ENDBRANCH  22  24
ENDBRANCH  10  22
TORSDOF 5
ENDMDL
MODEL 3
REMARK VINA RESULT:      -8.3      3.240      8.288
REMARK  5 active torsions:
REMARK  status: ('A' for Active; 'I' for Inactive)
REMARK    1  A    between atoms: C7_10  and  N4_11 
REMARK    2  A    between atoms: N4_11  and  C8_12 
REMARK    3  A    between atoms: C9_13  and  C10_14 
REMARK    4  A    between atoms: C11_15  and  C12_16 
REMARK    5  A    between atoms: C12_16  and  C13_17 
ROOT
HETATM    1  C1  UNL     1      19.945   1.063  50.610  1.00  0.00     0.045 C 
HETATM    2  C2  UNL     1      20.003   1.400  52.134  1.00  0.00     0.157 C 
HETATM    3  C3  UNL     1      20.966   2.506  52.348  1.00  0.00     0.117 C 
HETATM    4  N1  UNL     1      22.158   2.771  51.955  1.00  0.00    -0.275 NA
HETATM    5  C4  UNL     1      23.005   2.027  51.118  1.00  0.00     0.233 C 
HETATM    6  C5  UNL     1      23.360   2.928  49.921  1.00  0.00     0.190 C 
HETATM    7  N2  UNL     1      22.259   3.743  49.588  1.00  0.00    -0.269 NA
HETATM    8  C6  UNL     1      22.188   5.005  49.451  1.00  0.00     0.230 C 
HETATM    9  N3  UNL     1      23.406   5.755  49.671  1.00  0.00    -0.224 NA
HETATM   10  C7  UNL     1      24.493   5.126  50.004  1.00  0.00     0.136 C 
HETATM   11  C14 UNL     1      24.584   3.685  50.263  1.00  0.00     0.014 C 
HETATM   12  C15 UNL     1      25.679   3.180  50.790  1.00  0.00     0.006 C 
HETATM   13  C16 UNL     1      25.398   1.718  50.959  1.00  0.00     0.147 C 
HETATM   14  N5  UNL     1      24.172   1.545  51.711  1.00  0.00    -0.382 N 
HETATM   15  C17 UNL     1      24.335   1.423  53.093  1.00  0.00     0.147 C 
HETATM   16  C18 UNL     1      23.635   0.270  53.690  1.00  0.00    -0.008 C 
HETATM   17  C19 UNL     1      23.072  -0.793  54.254  1.00  0.00    -0.003 C 
HETATM   18  C20 UNL     1      21.899  -1.604  54.540  1.00  0.00    -0.002 C 
HETATM   19  C21 UNL     1      20.638  -1.550  54.229  1.00  0.00    -0.001 C 
HETATM   20  C22 UNL     1      19.755  -0.645  53.404  1.00  0.00     0.196 C 
HETATM   21  O1  UNL     1      20.402   0.316  52.806  1.00  0.00    -0.377 OA
ENDROOT
BRANCH  10  22
HETATM   22  N4  UNL     1      25.651   5.929  50.192  1.00  0.00    -0.353 N 
HETATM   23  H9  UNL     1      25.850   6.400  51.080  1.00  0.00     0.166 HD
BRANCH  22  24
HETATM   24  C8  UNL     1      26.627   6.128  49.143  1.00  0.00     0.072 C 
HETATM   25  C9  UNL     1      27.742   6.005  48.481  1.00  0.00     0.059 C 
BRANCH  25  26
HETATM   26  C10 UNL     1      29.074   5.553  48.157  1.00  0.00    -0.020 C 
HETATM   27  C11 UNL     1      29.539   6.605  47.453  1.00  0.00    -0.029 C 
BRANCH  27  28
HETATM   28  C12 UNL     1      29.059   7.914  47.012  1.00  0.00     0.037 C 
BRANCH  28  29
HETATM   29  C13 UNL     1      30.122   8.969  47.340  1.00  0.00     0.089 C 
HETATM   30 BR1  UNL     1      30.025   9.421  49.216  1.00  0.00    -0.096 Br
ENDBRANCH  28  29
ENDBRANCH  27  28
ENDBRANCH  25  26
ENDBRANCH  22  24
ENDBRANCH  10  22
TORSDOF 5
ENDMDL
MODEL 4
REMARK VINA RESULT:      -8.2      4.361      6.377
REMARK  5 active torsions:
REMARK  status: ('A' for Active; 'I' for Inactive)
REMARK    1  A    between atoms: C7_10  and  N4_11 
REMARK    2  A    between atoms: N4_11  and  C8_12 
REMARK    3  A    between atoms: C9_13  and  C10_14 
REMARK    4  A    between atoms: C11_15  and  C12_16 
REMARK    5  A    between atoms: C12_16  and  C13_17 
ROOT
HETATM    1  C1  UNL     1      21.981   3.724  50.833  1.00  0.00     0.045 C 
HETATM    2  C2  UNL     1      22.780   2.655  50.022  1.00  0.00     0.157 C 
HETATM    3  C3  UNL     1      22.221   1.313  50.310  1.00  0.00     0.117 C 
HETATM    4  N1  UNL     1      21.883   0.669  51.367  1.00  0.00    -0.275 NA
HETATM    5  C4  UNL     1      21.939   1.073  52.710  1.00  0.00     0.233 C 
HETATM    6  C5  UNL     1      20.507   0.983  53.268  1.00  0.00     0.190 C 
HETATM    7  N2  UNL     1      19.576   1.326  52.265  1.00  0.00    -0.269 NA
HETATM    8  C6  UNL     1      18.561   0.690  51.840  1.00  0.00     0.230 C 
HETATM    9  N3  UNL     1      18.291  -0.593  52.453  1.00  0.00    -0.224 NA
HETATM   10  C7  UNL     1      19.084  -1.039  53.380  1.00  0.00     0.136 C 
HETATM   11  C14 UNL     1      20.316  -0.375  53.823  1.00  0.00     0.014 C 
HETATM   12  C15 UNL     1      21.151  -1.006  54.619  1.00  0.00     0.006 C 
HETATM   13  C16 UNL     1      22.298  -0.062  54.816  1.00  0.00     0.147 C 
HETATM   14  N5  UNL     1      22.811   0.351  53.524  1.00  0.00    -0.382 N 
HETATM   15  C17 UNL     1      23.857  -0.429  53.024  1.00  0.00     0.147 C 
HETATM   16  C18 UNL     1      25.029   0.344  52.569  1.00  0.00    -0.008 C 
HETATM   17  C19 UNL     1      26.126   0.999  52.208  1.00  0.00    -0.003 C 
HETATM   18  C20 UNL     1      26.790   2.016  51.407  1.00  0.00    -0.002 C 
HETATM   19  C21 UNL     1      26.411   2.894  50.527  1.00  0.00    -0.001 C 
HETATM   20  C22 UNL     1      25.103   3.325  49.909  1.00  0.00     0.196 C 
HETATM   21  O1  UNL     1      24.065   2.699  50.388  1.00  0.00    -0.377 OA
ENDROOT
BRANCH  10  22
HETATM   22  N4  UNL     1      18.748  -2.301  53.941  1.00  0.00    -0.353 N 
HETATM   23  H9  UNL     1      19.330  -2.754  54.653  1.00  0.00     0.166 HD
BRANCH  22  24
HETATM   24  C8  UNL     1      17.558  -3.025  53.549  1.00  0.00     0.072 C 
HETATM   25  C9  UNL     1      16.668  -3.975  53.518  1.00  0.00     0.059 C 
BRANCH  25  26
HETATM   26  C10 UNL     1      16.014  -5.219  53.845  1.00  0.00    -0.020 C 
HETATM   27  C11 UNL     1      15.137  -5.325  52.827  1.00  0.00    -0.029 C 
BRANCH  27  28
HETATM   28  C12 UNL     1      14.761  -4.566  51.635  1.00  0.00     0.037 C 
BRANCH  28  29
HETATM   29  C13 UNL     1      13.438  -3.840  51.907  1.00  0.00     0.089 C 
HETATM   30 BR1  UNL     1      13.754  -1.936  52.007  1.00  0.00    -0.096 Br
ENDBRANCH  28  29
ENDBRANCH  27  28
ENDBRANCH  25  26
ENDBRANCH  22  24
ENDBRANCH  10  22
TORSDOF 5
ENDMDL
MODEL 5
REMARK VINA RESULT:      -8.1      2.923      7.947
REMARK  5 active torsions:
REMARK  status: ('A' for Active; 'I' for Inactive)
REMARK    1  A    between atoms: C7_10  and  N4_11 
REMARK    2  A    between atoms: N4_11  and  C8_12 
REMARK    3  A    between atoms: C9_13  and  C10_14 
REMARK    4  A    between atoms: C11_15  and  C12_16 
REMARK    5  A    between atoms: C12_16  and  C13_17 
ROOT
HETATM    1  C1  UNL     1      20.711   3.892  50.205  1.00  0.00     0.045 C 
HETATM    2  C2  UNL     1      21.076   3.997  51.720  1.00  0.00     0.157 C 
HETATM    3  C3  UNL     1      22.356   4.729  51.859  1.00  0.00     0.117 C 
HETATM    4  N1  UNL     1      23.507   4.675  51.295  1.00  0.00    -0.275 NA
HETATM    5  C4  UNL     1      23.958   3.828  50.270  1.00  0.00     0.233 C 
HETATM    6  C5  UNL     1      24.413   4.729  49.109  1.00  0.00     0.190 C 
HETATM    7  N2  UNL     1      23.590   5.871  49.032  1.00  0.00    -0.269 NA
HETATM    8  C6  UNL     1      23.901   7.104  49.012  1.00  0.00     0.230 C 
HETATM    9  N3  UNL     1      25.311   7.422  49.086  1.00  0.00    -0.224 NA
HETATM   10  C7  UNL     1      26.179   6.461  49.179  1.00  0.00     0.136 C 
HETATM   11  C14 UNL     1      25.847   5.037  49.302  1.00  0.00     0.014 C 
HETATM   12  C15 UNL     1      26.789   4.166  49.594  1.00  0.00     0.006 C 
HETATM   13  C16 UNL     1      26.089   2.844  49.688  1.00  0.00     0.147 C 
HETATM   14  N5  UNL     1      24.982   2.948  50.618  1.00  0.00    -0.382 N 
HETATM   15  C17 UNL     1      25.282   2.606  51.939  1.00  0.00     0.147 C 
HETATM   16  C18 UNL     1      24.342   1.646  52.548  1.00  0.00    -0.008 C 
HETATM   17  C19 UNL     1      23.555   0.735  53.110  1.00  0.00    -0.003 C 
HETATM   18  C20 UNL     1      22.236   0.280  53.521  1.00  0.00    -0.002 C 
HETATM   19  C21 UNL     1      21.027   0.746  53.431  1.00  0.00    -0.001 C 
HETATM   20  C22 UNL     1      20.371   1.972  52.842  1.00  0.00     0.196 C 
HETATM   21  O1  UNL     1      21.200   2.765  52.225  1.00  0.00    -0.377 OA
ENDROOT
BRANCH  10  22
HETATM   22  N4  UNL     1      27.545   6.851  49.236  1.00  0.00    -0.353 N 
HETATM   23  H9  UNL     1      27.956   7.282  50.071  1.00  0.00     0.166 HD
BRANCH  22  24
HETATM   24  C8  UNL     1      28.447   6.659  48.121  1.00  0.00     0.072 C 
HETATM   25  C9  UNL     1      29.513   6.786  47.384  1.00  0.00     0.059 C 
BRANCH  25  26
HETATM   26  C10 UNL     1      30.819   7.240  46.971  1.00  0.00    -0.020 C 
HETATM   27  C11 UNL     1      31.545   6.114  47.127  1.00  0.00    -0.029 C 
BRANCH  27  28
HETATM   28  C12 UNL     1      31.328   4.734  47.558  1.00  0.00     0.037 C 
BRANCH  28  29
HETATM   29  C13 UNL     1      32.053   3.792  46.590  1.00  0.00     0.089 C 
HETATM   30 BR1  UNL     1      33.198   2.597  47.588  1.00  0.00    -0.096 Br
ENDBRANCH  28  29
ENDBRANCH  27  28
ENDBRANCH  25  26
ENDBRANCH  22  24
ENDBRANCH  10  22
TORSDOF 5
ENDMDL
MODEL 6
REMARK VINA RESULT:      -8.0      4.338      6.648
REMARK  5 active torsions:
REMARK  status: ('A' for Active; 'I' for Inactive)
REMARK    1  A    between atoms: C7_10  and  N4_11 
REMARK    2  A    between atoms: N4_11  and  C8_12 
REMARK    3  A    between atoms: C9_13  and  C10_14 
REMARK    4  A    between atoms: C11_15  and  C12_16 
REMARK    5  A    between atoms: C12_16  and  C13_17 
ROOT
HETATM    1  C1  UNL     1      23.904   3.917  52.147  1.00  0.00     0.045 C 
HETATM    2  C2  UNL     1      24.541   2.794  51.269  1.00  0.00     0.157 C 
HETATM    3  C3  UNL     1      23.495   1.806  50.916  1.00  0.00     0.117 C 
HETATM    4  N1  UNL     1      22.576   1.178  51.554  1.00  0.00    -0.275 NA
HETATM    5  C4  UNL     1      22.238   1.237  52.915  1.00  0.00     0.233 C 
HETATM    6  C5  UNL     1      20.765   1.674  52.995  1.00  0.00     0.190 C 
HETATM    7  N2  UNL     1      20.474   2.584  51.958  1.00  0.00    -0.269 NA
HETATM    8  C6  UNL     1      19.554   2.558  51.081  1.00  0.00     0.230 C 
HETATM    9  N3  UNL     1      18.648   1.430  51.119  1.00  0.00    -0.224 NA
HETATM   10  C7  UNL     1      18.816   0.505  52.015  1.00  0.00     0.136 C 
HETATM   11  C14 UNL     1      19.923   0.457  52.977  1.00  0.00     0.014 C 
HETATM   12  C15 UNL     1      20.115  -0.622  53.704  1.00  0.00     0.006 C 
HETATM   13  C16 UNL     1      21.342  -0.337  54.517  1.00  0.00     0.147 C 
HETATM   14  N5  UNL     1      22.423   0.058  53.637  1.00  0.00    -0.382 N 
HETATM   15  C17 UNL     1      23.249  -0.983  53.205  1.00  0.00     0.147 C 
HETATM   16  C18 UNL     1      24.692  -0.728  53.380  1.00  0.00    -0.008 C 
HETATM   17  C19 UNL     1      25.994  -0.564  53.579  1.00  0.00    -0.003 C 
HETATM   18  C20 UNL     1      27.220   0.197  53.388  1.00  0.00    -0.002 C 
HETATM   19  C21 UNL     1      27.535   1.309  52.795  1.00  0.00    -0.001 C 
HETATM   20  C22 UNL     1      26.802   2.385  52.030  1.00  0.00     0.196 C 
HETATM   21  O1  UNL     1      25.514   2.196  51.964  1.00  0.00    -0.377 OA
ENDROOT
BRANCH  10  22
HETATM   22  N4  UNL     1      17.881  -0.566  51.996  1.00  0.00    -0.353 N 
HETATM   23  H9  UNL     1      18.175  -1.548  52.025  1.00  0.00     0.166 HD
BRANCH  22  24
HETATM   24  C8  UNL     1      16.453  -0.339  51.941  1.00  0.00     0.072 C 
HETATM   25  C9  UNL     1      15.252  -0.044  52.351  1.00  0.00     0.059 C 
BRANCH  25  26
HETATM   26  C10 UNL     1      14.193   0.341  53.251  1.00  0.00    -0.020 C 
HETATM   27  C11 UNL     1      14.200   1.681  53.101  1.00  0.00    -0.029 C 
BRANCH  27  28
HETATM   28  C12 UNL     1      14.939   2.683  52.333  1.00  0.00     0.037 C 
BRANCH  28  29
HETATM   29  C13 UNL     1      14.888   4.019  53.083  1.00  0.00     0.089 C 
HETATM   30 BR1  UNL     1      13.091   4.335  53.718  1.00  0.00    -0.096 Br
ENDBRANCH  28  29
ENDBRANCH  27  28
ENDBRANCH  25  26
ENDBRANCH  22  24
ENDBRANCH  10  22
TORSDOF 5
ENDMDL
MODEL 7
REMARK VINA RESULT:      -7.8      2.978      3.641
REMARK  5 active torsions:
REMARK  status: ('A' for Active; 'I' for Inactive)
REMARK    1  A    between atoms: C7_10  and  N4_11 
REMARK    2  A    between atoms: N4_11  and  C8_12 
REMARK    3  A    between atoms: C9_13  and  C10_14 
REMARK    4  A    between atoms: C11_15  and  C12_16 
REMARK    5  A    between atoms: C12_16  and  C13_17 
ROOT
HETATM    1  C1  UNL     1      23.178   7.516  49.872  1.00  0.00     0.045 C 
HETATM    2  C2  UNL     1      23.577   6.706  48.598  1.00  0.00     0.157 C 
HETATM    3  C3  UNL     1      23.101   5.311  48.744  1.00  0.00     0.117 C 
HETATM    4  N1  UNL     1      23.143   4.421  49.668  1.00  0.00    -0.275 NA
HETATM    5  C4  UNL     1      23.702   4.499  50.953  1.00  0.00     0.233 C 
HETATM    6  C5  UNL     1      22.569   4.215  51.955  1.00  0.00     0.190 C 
HETATM    7  N2  UNL     1      21.353   4.743  51.472  1.00  0.00    -0.269 NA
HETATM    8  C6  UNL     1      20.225   4.180  51.309  1.00  0.00     0.230 C 
HETATM    9  N3  UNL     1      20.139   2.778  51.657  1.00  0.00    -0.224 NA
HETATM   10  C7  UNL     1      21.194   2.162  52.098  1.00  0.00     0.136 C 
HETATM   11  C14 UNL     1      22.531   2.757  52.205  1.00  0.00     0.014 C 
HETATM   12  C15 UNL     1      23.570   1.995  52.469  1.00  0.00     0.006 C 
HETATM   13  C16 UNL     1      24.751   2.917  52.451  1.00  0.00     0.147 C 
HETATM   14  N5  UNL     1      24.777   3.645  51.198  1.00  0.00    -0.382 N 
HETATM   15  C17 UNL     1      25.533   3.053  50.183  1.00  0.00     0.147 C 
HETATM   16  C18 UNL     1      26.491   3.963  49.528  1.00  0.00    -0.008 C 
HETATM   17  C19 UNL     1      27.411   4.734  48.959  1.00  0.00    -0.003 C 
HETATM   18  C20 UNL     1      27.783   5.940  48.235  1.00  0.00    -0.002 C 
HETATM   19  C21 UNL     1      27.150   6.983  47.788  1.00  0.00    -0.001 C 
HETATM   20  C22 UNL     1      25.727   7.488  47.808  1.00  0.00     0.196 C 
HETATM   21  O1  UNL     1      24.908   6.721  48.470  1.00  0.00    -0.377 OA
ENDROOT
BRANCH  10  22
HETATM   22  N4  UNL     1      21.029   0.789  52.428  1.00  0.00    -0.353 N 
HETATM   23  H9  UNL     1      21.819   0.193  52.694  1.00  0.00     0.166 HD
BRANCH  22  24
HETATM   24  C8  UNL     1      19.733   0.147  52.418  1.00  0.00     0.072 C 
HETATM   25  C9  UNL     1      18.782  -0.678  52.753  1.00  0.00     0.059 C 
BRANCH  25  26
HETATM   26  C10 UNL     1      18.107  -1.741  53.458  1.00  0.00    -0.020 C 
HETATM   27  C11 UNL     1      16.857  -1.625  52.966  1.00  0.00    -0.029 C 
BRANCH  27  28
HETATM   28  C12 UNL     1      16.141  -0.779  52.011  1.00  0.00     0.037 C 
BRANCH  28  29
HETATM   29  C13 UNL     1      14.920  -0.167  52.708  1.00  0.00     0.089 C 
HETATM   30 BR1  UNL     1      14.838   1.724  52.323  1.00  0.00    -0.096 Br
ENDBRANCH  28  29
ENDBRANCH  27  28
ENDBRANCH  25  26
ENDBRANCH  22  24
ENDBRANCH  10  22
TORSDOF 5
ENDMDL
MODEL 8
REMARK VINA RESULT:      -7.5      3.221      8.405
REMARK  5 active torsions:
REMARK  status: ('A' for Active; 'I' for Inactive)
REMARK    1  A    between atoms: C7_10  and  N4_11 
REMARK    2  A    between atoms: N4_11  and  C8_12 
REMARK    3  A    between atoms: C9_13  and  C10_14 
REMARK    4  A    between atoms: C11_15  and  C12_16 
REMARK    5  A    between atoms: C12_16  and  C13_17 
ROOT
HETATM    1  C1  UNL     1      20.812   3.068  50.648  1.00  0.00     0.045 C 
HETATM    2  C2  UNL     1      21.253   3.194  52.140  1.00  0.00     0.157 C 
HETATM    3  C3  UNL     1      22.457   4.054  52.217  1.00  0.00     0.117 C 
HETATM    4  N1  UNL     1      23.572   4.128  51.586  1.00  0.00    -0.275 NA
HETATM    5  C4  UNL     1      24.046   3.343  50.523  1.00  0.00     0.233 C 
HETATM    6  C5  UNL     1      24.335   4.299  49.352  1.00  0.00     0.190 C 
HETATM    7  N2  UNL     1      23.395   5.350  49.343  1.00  0.00    -0.269 NA
HETATM    8  C6  UNL     1      23.575   6.608  49.326  1.00  0.00     0.230 C 
HETATM    9  N3  UNL     1      24.946   7.071  49.322  1.00  0.00    -0.224 NA
HETATM   10  C7  UNL     1      25.913   6.205  49.349  1.00  0.00     0.136 C 
HETATM   11  C14 UNL     1      25.739   4.753  49.466  1.00  0.00     0.014 C 
HETATM   12  C15 UNL     1      26.781   3.982  49.689  1.00  0.00     0.006 C 
HETATM   13  C16 UNL     1      26.229   2.594  49.801  1.00  0.00     0.147 C 
HETATM   14  N5  UNL     1      25.175   2.571  50.796  1.00  0.00    -0.382 N 
HETATM   15  C17 UNL     1      25.587   2.248  52.091  1.00  0.00     0.147 C 
HETATM   16  C18 UNL     1      24.790   1.189  52.737  1.00  0.00    -0.008 C 
HETATM   17  C19 UNL     1      24.136   0.195  53.329  1.00  0.00    -0.003 C 
HETATM   18  C20 UNL     1      22.899  -0.401  53.808  1.00  0.00    -0.002 C 
HETATM   19  C21 UNL     1      21.644  -0.062  53.796  1.00  0.00    -0.001 C 
HETATM   20  C22 UNL     1      20.830   1.095  53.267  1.00  0.00     0.196 C 
HETATM   21  O1  UNL     1      21.535   1.977  52.617  1.00  0.00    -0.377 OA
ENDROOT
BRANCH  10  22
HETATM   22  N4  UNL     1      27.232   6.736  49.333  1.00  0.00    -0.353 N 
HETATM   23  H9  UNL     1      27.998   6.313  49.868  1.00  0.00     0.166 HD
BRANCH  22  24
HETATM   24  C8  UNL     1      27.582   7.903  48.553  1.00  0.00     0.072 C 
HETATM   25  C9  UNL     1      27.797   9.156  48.270  1.00  0.00     0.059 C 
BRANCH  25  26
HETATM   26  C10 UNL     1      27.894  10.583  48.462  1.00  0.00    -0.020 C 
HETATM   27  C11 UNL     1      29.143  10.693  48.956  1.00  0.00    -0.029 C 
BRANCH  27  28
HETATM   28  C12 UNL     1      30.261   9.810  49.290  1.00  0.00     0.037 C 
BRANCH  28  29
HETATM   29  C13 UNL     1      31.312   9.899  48.178  1.00  0.00     0.089 C 
HETATM   30 BR1  UNL     1      31.693   8.127  47.507  1.00  0.00    -0.096 Br
ENDBRANCH  28  29
ENDBRANCH  27  28
ENDBRANCH  25  26
ENDBRANCH  22  24
ENDBRANCH  10  22
TORSDOF 5
ENDMDL
MODEL 9
REMARK VINA RESULT:      -7.5      3.061      8.183
REMARK  5 active torsions:
REMARK  status: ('A' for Active; 'I' for Inactive)
REMARK    1  A    between atoms: C7_10  and  N4_11 
REMARK    2  A    between atoms: N4_11  and  C8_12 
REMARK    3  A    between atoms: C9_13  and  C10_14 
REMARK    4  A    between atoms: C11_15  and  C12_16 
REMARK    5  A    between atoms: C12_16  and  C13_17 
ROOT
HETATM    1  C1  UNL     1      21.523   2.884  51.069  1.00  0.00     0.045 C 
HETATM    2  C2  UNL     1      22.198   2.863  52.477  1.00  0.00     0.157 C 
HETATM    3  C3  UNL     1      23.319   3.832  52.490  1.00  0.00     0.117 C 
HETATM    4  N1  UNL     1      24.301   4.106  51.711  1.00  0.00    -0.275 NA
HETATM    5  C4  UNL     1      24.653   3.522  50.484  1.00  0.00     0.233 C 
HETATM    6  C5  UNL     1      24.658   4.647  49.435  1.00  0.00     0.190 C 
HETATM    7  N2  UNL     1      23.643   5.582  49.724  1.00  0.00    -0.269 NA
HETATM    8  C6  UNL     1      23.708   6.844  49.863  1.00  0.00     0.230 C 
HETATM    9  N3  UNL     1      25.014   7.450  49.714  1.00  0.00    -0.224 NA
HETATM   10  C7  UNL     1      26.043   6.698  49.464  1.00  0.00     0.136 C 
HETATM   11  C14 UNL     1      26.016   5.232  49.394  1.00  0.00     0.014 C 
HETATM   12  C15 UNL     1      27.144   4.556  49.338  1.00  0.00     0.006 C 
HETATM   13  C16 UNL     1      26.739   3.113  49.331  1.00  0.00     0.147 C 
HETATM   14  N5  UNL     1      25.875   2.848  50.463  1.00  0.00    -0.382 N 
HETATM   15  C17 UNL     1      26.526   2.407  51.618  1.00  0.00     0.147 C 
HETATM   16  C18 UNL     1      25.943   1.193  52.220  1.00  0.00    -0.008 C 
HETATM   17  C19 UNL     1      25.487   0.066  52.754  1.00  0.00    -0.003 C 
HETATM   18  C20 UNL     1      24.403  -0.717  53.328  1.00  0.00    -0.002 C 
HETATM   19  C21 UNL     1      23.140  -0.518  53.561  1.00  0.00    -0.001 C 
HETATM   20  C22 UNL     1      22.153   0.602  53.339  1.00  0.00     0.196 C 
HETATM   21  O1  UNL     1      22.659   1.632  52.722  1.00  0.00    -0.377 OA
ENDROOT
BRANCH  10  22
HETATM   22  N4  UNL     1      27.290   7.365  49.320  1.00  0.00    -0.353 N 
HETATM   23  H9  UNL     1      28.002   7.357  50.057  1.00  0.00     0.166 HD
BRANCH  22  24
HETATM   24  C8  UNL     1      27.638   8.094  48.120  1.00  0.00     0.072 C 
HETATM   25  C9  UNL     1      27.590   8.487  46.879  1.00  0.00     0.059 C 
BRANCH  25  26
HETATM   26  C10 UNL     1      27.145   8.571  45.509  1.00  0.00    -0.020 C 
HETATM   27  C11 UNL     1      25.939   9.153  45.665  1.00  0.00    -0.029 C 
BRANCH  27  28
HETATM   28  C12 UNL     1      25.106   9.648  46.761  1.00  0.00     0.037 C 
BRANCH  28  29
HETATM   29  C13 UNL     1      23.642   9.301  46.468  1.00  0.00     0.089 C 
HETATM   30 BR1  UNL     1      23.478   7.400  46.162  1.00  0.00    -0.096 Br
ENDBRANCH  28  29
ENDBRANCH  27  28
ENDBRANCH  25  26
ENDBRANCH  22  24
ENDBRANCH  10  22
TORSDOF 5
ENDMDL
