MODEL 1
REMARK VINA RESULT:      -8.5      0.000      0.000
REMARK  7 active torsions:
REMARK  status: ('A' for Active; 'I' for Inactive)
REMARK    1  A    between atoms: O1_2  and  C2_3 
REMARK    2  A    between atoms: N3_9  and  C6_10 
REMARK    3  A    between atoms: C14_20  and  O2_21 
REMARK    4  A    between atoms: O2_21  and  C15_22 
REMARK    5  A    between atoms: C15_22  and  C16_23 
REMARK    6  A    between atoms: C16_23  and  C17_24 
REMARK    7  A    between atoms: C17_24  and  N4_25 
ROOT
HETATM    1  C2  UNL     1      20.936   1.169  53.001  1.00  0.00     0.103 C 
HETATM    2  C3  UNL     1      20.277   2.313  52.729  1.00  0.00     0.069 C 
HETATM    3  C4  UNL     1      21.082   3.261  51.977  1.00  0.00     0.067 C 
HETATM    4  N1  UNL     1      20.362   4.234  51.475  1.00  0.00    -0.242 NA
HETATM    5  C5  UNL     1      21.007   5.215  50.689  1.00  0.00     0.255 C 
HETATM    6  N2  UNL     1      22.251   5.129  50.458  1.00  0.00    -0.164 NA
HETATM    7  N3  UNL     1      23.123   4.129  50.894  1.00  0.00    -0.255 N 
HETATM    8  C12 UNL     1      22.516   3.288  51.816  1.00  0.00     0.188 C 
HETATM    9  C13 UNL     1      23.105   1.959  52.069  1.00  0.00     0.046 C 
HETATM   10  C14 UNL     1      22.347   0.998  52.639  1.00  0.00     0.100 C 
ENDROOT
BRANCH  10  11
HETATM   11  O2  UNL     1      22.896  -0.247  52.920  1.00  0.00    -0.348 OA
BRANCH  11  12
HETATM   12  C15 UNL     1      24.029  -0.466  53.742  1.00  0.00     0.177 C 
BRANCH  12  13
HETATM   13  C16 UNL     1      25.255  -0.648  52.881  1.00  0.00     0.046 C 
BRANCH  13  14
HETATM   14  C17 UNL     1      26.544  -0.755  53.617  1.00  0.00     0.119 C 
BRANCH  14  15
HETATM   15  N4  UNL     1      27.106   0.402  54.169  1.00  0.00    -0.408 N 
HETATM   16  C18 UNL     1      26.698   1.681  53.769  1.00  0.00     0.143 C 
HETATM   17  C19 UNL     1      27.927   2.492  53.379  1.00  0.00     0.187 C 
HETATM   18  O3  UNL     1      28.957   2.395  54.277  1.00  0.00    -0.388 OA
HETATM   19  C20 UNL     1      29.411   1.060  54.327  1.00  0.00     0.187 C 
HETATM   20  C21 UNL     1      28.279   0.280  54.962  1.00  0.00     0.143 C 
ENDBRANCH  14  15
ENDBRANCH  13  14
ENDBRANCH  12  13
ENDBRANCH  11  12
ENDBRANCH  10  11
BRANCH   1  21
HETATM   21  O1  UNL     1      20.261   0.160  53.680  1.00  0.00    -0.353 OA
HETATM   22  C1  UNL     1      19.155  -0.479  53.024  1.00  0.00     0.210 C 
ENDBRANCH   1  21
BRANCH   7  23
HETATM   23  C6  UNL     1      24.406   4.173  50.318  1.00  0.00     0.056 A 
HETATM   24  C7  UNL     1      25.353   3.172  50.319  1.00  0.00     0.034 A 
HETATM   25  C8  UNL     1      26.587   3.260  49.715  1.00  0.00     0.046 A 
HETATM   26  C9  UNL     1      26.891   4.419  49.071  1.00  0.00     0.138 A 
HETATM   27  F1  UNL     1      28.107   4.518  48.471  1.00  0.00    -0.204 F 
HETATM   28  C10 UNL     1      26.040   5.486  48.999  1.00  0.00     0.074 A 
HETATM   29 CL1  UNL     1      26.409   6.989  48.177  1.00  0.00    -0.081 Cl
HETATM   30  C11 UNL     1      24.841   5.310  49.624  1.00  0.00     0.058 A 
ENDBRANCH   7  23
TORSDOF 7
ENDMDL
MODEL 2
REMARK VINA RESULT:      -8.5      3.132      5.624
REMARK  7 active torsions:
REMARK  status: ('A' for Active; 'I' for Inactive)
REMARK    1  A    between atoms: O1_2  and  C2_3 
REMARK    2  A    between atoms: N3_9  and  C6_10 
REMARK    3  A    between atoms: C14_20  and  O2_21 
REMARK    4  A    between atoms: O2_21  and  C15_22 
REMARK    5  A    between atoms: C15_22  and  C16_23 
REMARK    6  A    between atoms: C16_23  and  C17_24 
REMARK    7  A    between atoms: C17_24  and  N4_25 
ROOT
HETATM    1  C2  UNL     1      20.474   2.136  52.669  1.00  0.00     0.103 C 
HETATM    2  C3  UNL     1      20.327   0.972  53.334  1.00  0.00     0.069 C 
HETATM    3  C4  UNL     1      21.598   0.354  53.674  1.00  0.00     0.067 C 
HETATM    4  N1  UNL     1      21.461  -0.609  54.551  1.00  0.00    -0.242 NA
HETATM    5  C5  UNL     1      22.619  -1.281  55.002  1.00  0.00     0.255 C 
HETATM    6  N2  UNL     1      23.763  -0.931  54.581  1.00  0.00    -0.164 NA
HETATM    7  N3  UNL     1      24.053   0.099  53.683  1.00  0.00    -0.255 N 
HETATM    8  C12 UNL     1      22.899   0.615  53.108  1.00  0.00     0.188 C 
HETATM    9  C13 UNL     1      22.948   1.948  52.478  1.00  0.00     0.046 C 
HETATM   10  C14 UNL     1      21.798   2.624  52.271  1.00  0.00     0.100 C 
ENDROOT
BRANCH  10  11
HETATM   11  O2  UNL     1      21.822   3.863  51.644  1.00  0.00    -0.348 OA
BRANCH  11  12
HETATM   12  C15 UNL     1      21.549   4.081  50.270  1.00  0.00     0.177 C 
BRANCH  12  13
HETATM   13  C16 UNL     1      22.801   3.852  49.460  1.00  0.00     0.046 C 
BRANCH  13  14
HETATM   14  C17 UNL     1      23.644   5.056  49.230  1.00  0.00     0.119 C 
BRANCH  14  15
HETATM   15  N4  UNL     1      24.979   5.037  49.649  1.00  0.00    -0.408 N 
HETATM   16  C18 UNL     1      25.917   5.955  49.161  1.00  0.00     0.143 C 
HETATM   17  C19 UNL     1      27.130   5.194  48.640  1.00  0.00     0.187 C 
HETATM   18  O3  UNL     1      27.569   4.213  49.490  1.00  0.00    -0.388 OA
HETATM   19  C20 UNL     1      26.565   3.232  49.633  1.00  0.00     0.187 C 
HETATM   20  C21 UNL     1      25.446   3.917  50.389  1.00  0.00     0.143 C 
ENDBRANCH  14  15
ENDBRANCH  13  14
ENDBRANCH  12  13
ENDBRANCH  11  12
ENDBRANCH  10  11
BRANCH   1  21
HETATM   21  O1  UNL     1      19.332   2.850  52.323  1.00  0.00    -0.353 OA
HETATM   22  C1  UNL     1      18.333   2.192  51.529  1.00  0.00     0.210 C 
ENDBRANCH   1  21
BRANCH   7  23
HETATM   23  C6  UNL     1      25.421   0.401  53.553  1.00  0.00     0.056 A 
HETATM   24  C7  UNL     1      26.002   1.650  53.560  1.00  0.00     0.034 A 
HETATM   25  C8  UNL     1      27.353   1.887  53.455  1.00  0.00     0.046 A 
HETATM   26  C9  UNL     1      28.173   0.807  53.335  1.00  0.00     0.138 A 
HETATM   27  F1  UNL     1      29.512   1.028  53.229  1.00  0.00    -0.204 F 
HETATM   28  C10 UNL     1      27.722  -0.482  53.312  1.00  0.00     0.074 A 
HETATM   29 CL1  UNL     1      28.757  -1.888  53.157  1.00  0.00    -0.081 Cl
HETATM   30  C11 UNL     1      26.370  -0.622  53.423  1.00  0.00     0.058 A 
ENDBRANCH   7  23
TORSDOF 7
ENDMDL
MODEL 3
REMARK VINA RESULT:      -8.5      3.822      7.324
REMARK  7 active torsions:
REMARK  status: ('A' for Active; 'I' for Inactive)
REMARK    1  A    between atoms: O1_2  and  C2_3 
REMARK    2  A    between atoms: N3_9  and  C6_10 
REMARK    3  A    between atoms: C14_20  and  O2_21 
REMARK    4  A    between atoms: O2_21  and  C15_22 
REMARK    5  A    between atoms: C15_22  and  C16_23 
REMARK    6  A    between atoms: C16_23  and  C17_24 
REMARK    7  A    between atoms: C17_24  and  N4_25 
ROOT
HETATM    1  C2  UNL     1      26.999   0.547  53.274  1.00  0.00     0.103 C 
HETATM    2  C3  UNL     1      26.642  -0.083  54.411  1.00  0.00     0.069 C 
HETATM    3  C4  UNL     1      25.214  -0.349  54.482  1.00  0.00     0.067 C 
HETATM    4  N1  UNL     1      24.916  -1.198  55.434  1.00  0.00    -0.242 NA
HETATM    5  C5  UNL     1      23.565  -1.577  55.601  1.00  0.00     0.255 C 
HETATM    6  N2  UNL     1      22.674  -1.120  54.821  1.00  0.00    -0.164 NA
HETATM    7  N3  UNL     1      22.860  -0.247  53.748  1.00  0.00    -0.255 N 
HETATM    8  C12 UNL     1      24.152   0.262  53.720  1.00  0.00     0.188 C 
HETATM    9  C13 UNL     1      24.664   0.847  52.467  1.00  0.00     0.046 C 
HETATM   10  C14 UNL     1      25.996   0.983  52.297  1.00  0.00     0.100 C 
ENDROOT
BRANCH  10  11
HETATM   11  O2  UNL     1      26.495   1.567  51.140  1.00  0.00    -0.348 OA
BRANCH  11  12
HETATM   12  C15 UNL     1      26.701   2.958  50.959  1.00  0.00     0.177 C 
BRANCH  12  13
HETATM   13  C16 UNL     1      26.551   3.309  49.499  1.00  0.00     0.046 C 
BRANCH  13  14
HETATM   14  C17 UNL     1      26.126   4.707  49.218  1.00  0.00     0.119 C 
BRANCH  14  15
HETATM   15  N4  UNL     1      24.837   5.109  49.586  1.00  0.00    -0.408 N 
HETATM   16  C18 UNL     1      24.623   6.093  50.561  1.00  0.00     0.143 C 
HETATM   17  C19 UNL     1      23.656   5.552  51.606  1.00  0.00     0.187 C 
HETATM   18  O3  UNL     1      22.561   4.926  51.069  1.00  0.00    -0.388 OA
HETATM   19  C20 UNL     1      22.978   3.789  50.345  1.00  0.00     0.187 C 
HETATM   20  C21 UNL     1      23.729   4.335  49.148  1.00  0.00     0.143 C 
ENDBRANCH  14  15
ENDBRANCH  13  14
ENDBRANCH  12  13
ENDBRANCH  11  12
ENDBRANCH  10  11
BRANCH   1  21
HETATM   21  O1  UNL     1      28.346   0.820  53.063  1.00  0.00    -0.353 OA
HETATM   22  C1  UNL     1      29.146   1.211  54.191  1.00  0.00     0.210 C 
ENDBRANCH   1  21
BRANCH   7  23
HETATM   23  C6  UNL     1      21.730  -0.070  52.928  1.00  0.00     0.056 A 
HETATM   24  C7  UNL     1      21.693   0.497  51.673  1.00  0.00     0.034 A 
HETATM   25  C8  UNL     1      20.560   0.622  50.903  1.00  0.00     0.046 A 
HETATM   26  C9  UNL     1      19.393   0.149  51.419  1.00  0.00     0.138 A 
HETATM   27  F1  UNL     1      18.265   0.267  50.667  1.00  0.00    -0.204 F 
HETATM   28  C10 UNL     1      19.296  -0.433  52.651  1.00  0.00     0.074 A 
HETATM   29 CL1  UNL     1      17.806  -1.048  53.339  1.00  0.00    -0.081 Cl
HETATM   30  C11 UNL     1      20.468  -0.515  53.344  1.00  0.00     0.058 A 
ENDBRANCH   7  23
TORSDOF 7
ENDMDL
MODEL 4
REMARK VINA RESULT:      -8.4      3.791      6.525
REMARK  7 active torsions:
REMARK  status: ('A' for Active; 'I' for Inactive)
REMARK    1  A    between atoms: O1_2  and  C2_3 
REMARK    2  A    between atoms: N3_9  and  C6_10 
REMARK    3  A    between atoms: C14_20  and  O2_21 
REMARK    4  A    between atoms: O2_21  and  C15_22 
REMARK    5  A    between atoms: C15_22  and  C16_23 
REMARK    6  A    between atoms: C16_23  and  C17_24 
REMARK    7  A    between atoms: C17_24  and  N4_25 
ROOT
HETATM    1  C2  UNL     1      23.016   3.312  51.285  1.00  0.00     0.103 C 
HETATM    2  C3  UNL     1      22.271   2.374  51.904  1.00  0.00     0.069 C 
HETATM    3  C4  UNL     1      23.076   1.328  52.514  1.00  0.00     0.067 C 
HETATM    4  N1  UNL     1      22.381   0.589  53.342  1.00  0.00    -0.242 NA
HETATM    5  C5  UNL     1      23.042  -0.450  54.035  1.00  0.00     0.255 C 
HETATM    6  N2  UNL     1      24.287  -0.635  53.872  1.00  0.00    -0.164 NA
HETATM    7  N3  UNL     1      25.148   0.102  53.056  1.00  0.00    -0.255 N 
HETATM    8  C12 UNL     1      24.451   0.986  52.243  1.00  0.00     0.188 C 
HETATM    9  C13 UNL     1      25.173   2.121  51.636  1.00  0.00     0.046 C 
HETATM   10  C14 UNL     1      24.473   3.183  51.183  1.00  0.00     0.100 C 
ENDROOT
BRANCH  10  11
HETATM   11  O2  UNL     1      25.132   4.243  50.574  1.00  0.00    -0.348 OA
BRANCH  11  12
HETATM   12  C15 UNL     1      25.455   4.311  49.195  1.00  0.00     0.177 C 
BRANCH  12  13
HETATM   13  C16 UNL     1      26.463   5.410  48.962  1.00  0.00     0.046 C 
BRANCH  13  14
HETATM   14  C17 UNL     1      27.836   4.955  48.616  1.00  0.00     0.119 C 
BRANCH  14  15
HETATM   15  N4  UNL     1      28.750   5.887  48.110  1.00  0.00    -0.408 N 
HETATM   16  C18 UNL     1      30.127   5.633  48.093  1.00  0.00     0.143 C 
HETATM   17  C19 UNL     1      30.853   6.798  48.753  1.00  0.00     0.187 C 
HETATM   18  O3  UNL     1      30.418   8.027  48.331  1.00  0.00    -0.388 OA
HETATM   19  C20 UNL     1      29.065   8.196  48.694  1.00  0.00     0.187 C 
HETATM   20  C21 UNL     1      28.299   7.208  47.841  1.00  0.00     0.143 C 
ENDBRANCH  14  15
ENDBRANCH  13  14
ENDBRANCH  12  13
ENDBRANCH  11  12
ENDBRANCH  10  11
BRANCH   1  21
HETATM   21  O1  UNL     1      22.367   4.393  50.698  1.00  0.00    -0.353 OA
HETATM   22  C1  UNL     1      21.805   5.397  51.557  1.00  0.00     0.210 C 
ENDBRANCH   1  21
BRANCH   7  23
HETATM   23  C6  UNL     1      26.514  -0.190  53.225  1.00  0.00     0.056 A 
HETATM   24  C7  UNL     1      27.170  -1.345  52.859  1.00  0.00     0.034 A 
HETATM   25  C8  UNL     1      28.517  -1.568  53.025  1.00  0.00     0.046 A 
HETATM   26  C9  UNL     1      29.254  -0.574  53.592  1.00  0.00     0.138 A 
HETATM   27  F1  UNL     1      30.588  -0.782  53.762  1.00  0.00    -0.204 F 
HETATM   28  C10 UNL     1      28.723   0.617  53.999  1.00  0.00     0.074 A 
HETATM   29 CL1  UNL     1      29.650   1.912  54.732  1.00  0.00    -0.081 Cl
HETATM   30  C11 UNL     1      27.382   0.751  53.795  1.00  0.00     0.058 A 
ENDBRANCH   7  23
TORSDOF 7
ENDMDL
MODEL 5
REMARK VINA RESULT:      -8.4      3.157      5.882
REMARK  7 active torsions:
REMARK  status: ('A' for Active; 'I' for Inactive)
REMARK    1  A    between atoms: O1_2  and  C2_3 
REMARK    2  A    between atoms: N3_9  and  C6_10 
REMARK    3  A    between atoms: C14_20  and  O2_21 
REMARK    4  A    between atoms: O2_21  and  C15_22 
REMARK    5  A    between atoms: C15_22  and  C16_23 
REMARK    6  A    between atoms: C16_23  and  C17_24 
REMARK    7  A    between atoms: C17_24  and  N4_25 
ROOT
HETATM    1  C2  UNL     1      20.456   0.177  52.100  1.00  0.00     0.103 C 
HETATM    2  C3  UNL     1      20.488  -0.662  53.155  1.00  0.00     0.069 C 
HETATM    3  C4  UNL     1      21.813  -0.776  53.742  1.00  0.00     0.067 C 
HETATM    4  N1  UNL     1      21.786  -1.354  54.917  1.00  0.00    -0.242 NA
HETATM    5  C5  UNL     1      23.000  -1.504  55.624  1.00  0.00     0.255 C 
HETATM    6  N2  UNL     1      24.082  -1.059  55.133  1.00  0.00    -0.164 NA
HETATM    7  N3  UNL     1      24.245  -0.391  53.918  1.00  0.00    -0.255 N 
HETATM    8  C12 UNL     1      23.084  -0.425  53.156  1.00  0.00     0.188 C 
HETATM    9  C13 UNL     1      22.916   0.554  52.065  1.00  0.00     0.046 C 
HETATM   10  C14 UNL     1      21.679   0.799  51.582  1.00  0.00     0.100 C 
ENDROOT
BRANCH  10  11
HETATM   11  O2  UNL     1      21.506   1.688  50.529  1.00  0.00    -0.348 OA
BRANCH  11  12
HETATM   12  C15 UNL     1      21.816   1.410  49.175  1.00  0.00     0.177 C 
BRANCH  12  13
HETATM   13  C16 UNL     1      22.398   2.640  48.522  1.00  0.00     0.046 C 
BRANCH  13  14
HETATM   14  C17 UNL     1      23.670   3.136  49.112  1.00  0.00     0.119 C 
BRANCH  14  15
HETATM   15  N4  UNL     1      23.617   4.122  50.104  1.00  0.00    -0.408 N 
HETATM   16  C18 UNL     1      24.337   4.003  51.299  1.00  0.00     0.143 C 
HETATM   17  C19 UNL     1      23.387   4.206  52.473  1.00  0.00     0.187 C 
HETATM   18  O3  UNL     1      22.555   5.285  52.325  1.00  0.00    -0.388 OA
HETATM   19  C20 UNL     1      21.712   5.079  51.212  1.00  0.00     0.187 C 
HETATM   20  C21 UNL     1      22.626   5.136  50.006  1.00  0.00     0.143 C 
ENDBRANCH  14  15
ENDBRANCH  13  14
ENDBRANCH  12  13
ENDBRANCH  11  12
ENDBRANCH  10  11
BRANCH   1  21
HETATM   21  O1  UNL     1      19.236   0.408  51.473  1.00  0.00    -0.353 OA
HETATM   22  C1  UNL     1      18.554   1.643  51.746  1.00  0.00     0.210 C 
ENDBRANCH   1  21
BRANCH   7  23
HETATM   23  C6  UNL     1      25.519   0.173  53.721  1.00  0.00     0.056 A 
HETATM   24  C7  UNL     1      25.837   1.512  53.665  1.00  0.00     0.034 A 
HETATM   25  C8  UNL     1      27.108   2.010  53.495  1.00  0.00     0.046 A 
HETATM   26  C9  UNL     1      28.124   1.112  53.374  1.00  0.00     0.138 A 
HETATM   27  F1  UNL     1      29.386   1.591  53.206  1.00  0.00    -0.204 F 
HETATM   28  C10 UNL     1      27.941  -0.241  53.412  1.00  0.00     0.074 A 
HETATM   29 CL1  UNL     1      29.231  -1.417  53.257  1.00  0.00    -0.081 Cl
HETATM   30  C11 UNL     1      26.650  -0.644  53.584  1.00  0.00     0.058 A 
ENDBRANCH   7  23
TORSDOF 7
ENDMDL
MODEL 6
REMARK VINA RESULT:      -8.3      3.750      6.752
REMARK  7 active torsions:
REMARK  status: ('A' for Active; 'I' for Inactive)
REMARK    1  A    between atoms: O1_2  and  C2_3 
REMARK    2  A    between atoms: N3_9  and  C6_10 
REMARK    3  A    between atoms: C14_20  and  O2_21 
REMARK    4  A    between atoms: O2_21  and  C15_22 
REMARK    5  A    between atoms: C15_22  and  C16_23 
REMARK    6  A    between atoms: C16_23  and  C17_24 
REMARK    7  A    between atoms: C17_24  and  N4_25 
ROOT
HETATM    1  C2  UNL     1      23.089   3.609  50.993  1.00  0.00     0.103 C 
HETATM    2  C3  UNL     1      22.280   2.705  51.582  1.00  0.00     0.069 C 
HETATM    3  C4  UNL     1      23.016   1.629  52.226  1.00  0.00     0.067 C 
HETATM    4  N1  UNL     1      22.257   0.921  53.026  1.00  0.00    -0.242 NA
HETATM    5  C5  UNL     1      22.845  -0.142  53.747  1.00  0.00     0.255 C 
HETATM    6  N2  UNL     1      24.087  -0.377  53.636  1.00  0.00    -0.164 NA
HETATM    7  N3  UNL     1      25.011   0.321  52.856  1.00  0.00    -0.255 N 
HETATM    8  C12 UNL     1      24.386   1.230  52.014  1.00  0.00     0.188 C 
HETATM    9  C13 UNL     1      25.178   2.332  51.436  1.00  0.00     0.046 C 
HETATM   10  C14 UNL     1      24.543   3.420  50.952  1.00  0.00     0.100 C 
ENDROOT
BRANCH  10  11
HETATM   11  O2  UNL     1      25.269   4.451  50.369  1.00  0.00    -0.348 OA
BRANCH  11  12
HETATM   12  C15 UNL     1      26.310   4.273  49.424  1.00  0.00     0.177 C 
BRANCH  12  13
HETATM   13  C16 UNL     1      26.675   5.604  48.812  1.00  0.00     0.046 C 
BRANCH  13  14
HETATM   14  C17 UNL     1      25.527   6.490  48.479  1.00  0.00     0.119 C 
BRANCH  14  15
HETATM   15  N4  UNL     1      25.456   7.756  49.072  1.00  0.00    -0.408 N 
HETATM   16  C18 UNL     1      24.935   8.861  48.387  1.00  0.00     0.143 C 
HETATM   17  C19 UNL     1      25.941  10.004  48.455  1.00  0.00     0.187 C 
HETATM   18  O3  UNL     1      26.459  10.206  49.708  1.00  0.00    -0.388 OA
HETATM   19  C20 UNL     1      27.187   9.064  50.104  1.00  0.00     0.187 C 
HETATM   20  C21 UNL     1      26.149   7.978  50.293  1.00  0.00     0.143 C 
ENDBRANCH  14  15
ENDBRANCH  13  14
ENDBRANCH  12  13
ENDBRANCH  11  12
ENDBRANCH  10  11
BRANCH   1  21
HETATM   21  O1  UNL     1      22.510   4.714  50.377  1.00  0.00    -0.353 OA
HETATM   22  C1  UNL     1      21.836   5.677  51.203  1.00  0.00     0.210 C 
ENDBRANCH   1  21
BRANCH   7  23
HETATM   23  C6  UNL     1      26.356  -0.027  53.083  1.00  0.00     0.056 A 
HETATM   24  C7  UNL     1      26.973  -1.217  52.766  1.00  0.00     0.034 A 
HETATM   25  C8  UNL     1      28.302  -1.495  52.988  1.00  0.00     0.046 A 
HETATM   26  C9  UNL     1      29.061  -0.521  53.561  1.00  0.00     0.138 A 
HETATM   27  F1  UNL     1      30.377  -0.783  53.785  1.00  0.00    -0.204 F 
HETATM   28  C10 UNL     1      28.569   0.701  53.923  1.00  0.00     0.074 A 
HETATM   29 CL1  UNL     1      29.524   1.970  54.663  1.00  0.00    -0.081 Cl
HETATM   30  C11 UNL     1      27.243   0.889  53.666  1.00  0.00     0.058 A 
ENDBRANCH   7  23
TORSDOF 7
ENDMDL
MODEL 7
REMARK VINA RESULT:      -8.3      3.523      6.330
REMARK  7 active torsions:
REMARK  status: ('A' for Active; 'I' for Inactive)
REMARK    1  A    between atoms: O1_2  and  C2_3 
REMARK    2  A    between atoms: N3_9  and  C6_10 
REMARK    3  A    between atoms: C14_20  and  O2_21 
REMARK    4  A    between atoms: O2_21  and  C15_22 
REMARK    5  A    between atoms: C15_22  and  C16_23 
REMARK    6  A    between atoms: C16_23  and  C17_24 
REMARK    7  A    between atoms: C17_24  and  N4_25 
ROOT
HETATM    1  C2  UNL     1      25.852  -0.373  53.756  1.00  0.00     0.103 C 
HETATM    2  C3  UNL     1      24.947  -0.894  54.609  1.00  0.00     0.069 C 
HETATM    3  C4  UNL     1      23.576  -0.639  54.198  1.00  0.00     0.067 C 
HETATM    4  N1  UNL     1      22.717  -1.376  54.858  1.00  0.00    -0.242 NA
HETATM    5  C5  UNL     1      21.344  -1.259  54.541  1.00  0.00     0.255 C 
HETATM    6  N2  UNL     1      20.969  -0.475  53.617  1.00  0.00    -0.164 NA
HETATM    7  N3  UNL     1      21.778   0.330  52.813  1.00  0.00    -0.255 N 
HETATM    8  C12 UNL     1      23.091   0.348  53.264  1.00  0.00     0.188 C 
HETATM    9  C13 UNL     1      24.159   0.778  52.342  1.00  0.00     0.046 C 
HETATM   10  C14 UNL     1      25.438   0.441  52.609  1.00  0.00     0.100 C 
ENDROOT
BRANCH  10  11
HETATM   11  O2  UNL     1      26.461   0.870  51.773  1.00  0.00    -0.348 OA
BRANCH  11  12
HETATM   12  C15 UNL     1      26.800   2.226  51.538  1.00  0.00     0.177 C 
BRANCH  12  13
HETATM   13  C16 UNL     1      26.461   2.596  50.114  1.00  0.00     0.046 C 
BRANCH  13  14
HETATM   14  C17 UNL     1      26.398   4.055  49.830  1.00  0.00     0.119 C 
BRANCH  14  15
HETATM   15  N4  UNL     1      25.152   4.692  49.836  1.00  0.00    -0.408 N 
HETATM   16  C18 UNL     1      25.011   6.030  50.226  1.00  0.00     0.143 C 
HETATM   17  C19 UNL     1      23.928   6.122  51.293  1.00  0.00     0.187 C 
HETATM   18  O3  UNL     1      22.794   5.416  50.987  1.00  0.00    -0.388 OA
HETATM   19  C20 UNL     1      23.104   4.042  50.910  1.00  0.00     0.187 C 
HETATM   20  C21 UNL     1      23.981   3.902  49.683  1.00  0.00     0.143 C 
ENDBRANCH  14  15
ENDBRANCH  13  14
ENDBRANCH  12  13
ENDBRANCH  11  12
ENDBRANCH  10  11
BRANCH   1  21
HETATM   21  O1  UNL     1      27.203  -0.585  54.012  1.00  0.00    -0.353 OA
HETATM   22  C1  UNL     1      27.885   0.340  54.873  1.00  0.00     0.210 C 
ENDBRANCH   1  21
BRANCH   7  23
HETATM   23  C6  UNL     1      21.115   0.939  51.731  1.00  0.00     0.056 A 
HETATM   24  C7  UNL     1      21.277   0.661  50.392  1.00  0.00     0.034 A 
HETATM   25  C8  UNL     1      20.582   1.271  49.374  1.00  0.00     0.046 A 
HETATM   26  C9  UNL     1      19.667   2.219  49.718  1.00  0.00     0.138 A 
HETATM   27  F1  UNL     1      18.973   2.830  48.720  1.00  0.00    -0.204 F 
HETATM   28  C10 UNL     1      19.413   2.587  51.008  1.00  0.00     0.074 A 
HETATM   29 CL1  UNL     1      18.242   3.804  51.476  1.00  0.00    -0.081 Cl
HETATM   30  C11 UNL     1      20.148   1.930  51.951  1.00  0.00     0.058 A 
ENDBRANCH   7  23
TORSDOF 7
ENDMDL
MODEL 8
REMARK VINA RESULT:      -8.3      3.274      6.111
REMARK  7 active torsions:
REMARK  status: ('A' for Active; 'I' for Inactive)
REMARK    1  A    between atoms: O1_2  and  C2_3 
REMARK    2  A    between atoms: N3_9  and  C6_10 
REMARK    3  A    between atoms: C14_20  and  O2_21 
REMARK    4  A    between atoms: O2_21  and  C15_22 
REMARK    5  A    between atoms: C15_22  and  C16_23 
REMARK    6  A    between atoms: C16_23  and  C17_24 
REMARK    7  A    between atoms: C17_24  and  N4_25 
ROOT
HETATM    1  C2  UNL     1      20.789   0.763  52.297  1.00  0.00     0.103 C 
HETATM    2  C3  UNL     1      20.732  -0.149  53.289  1.00  0.00     0.069 C 
HETATM    3  C4  UNL     1      22.041  -0.465  53.836  1.00  0.00     0.067 C 
HETATM    4  N1  UNL     1      21.959  -1.121  54.968  1.00  0.00    -0.242 NA
HETATM    5  C5  UNL     1      23.155  -1.468  55.635  1.00  0.00     0.255 C 
HETATM    6  N2  UNL     1      24.277  -1.123  55.153  1.00  0.00    -0.164 NA
HETATM    7  N3  UNL     1      24.504  -0.391  53.986  1.00  0.00    -0.255 N 
HETATM    8  C12 UNL     1      23.338  -0.228  53.249  1.00  0.00     0.188 C 
HETATM    9  C13 UNL     1      23.276   0.842  52.235  1.00  0.00     0.046 C 
HETATM   10  C14 UNL     1      22.072   1.269  51.799  1.00  0.00     0.100 C 
ENDROOT
BRANCH  10  11
HETATM   11  O2  UNL     1      21.995   2.247  50.816  1.00  0.00    -0.348 OA
BRANCH  11  12
HETATM   12  C15 UNL     1      22.301   2.046  49.446  1.00  0.00     0.177 C 
BRANCH  12  13
HETATM   13  C16 UNL     1      23.412   2.978  49.031  1.00  0.00     0.046 C 
BRANCH  13  14
HETATM   14  C17 UNL     1      22.975   4.288  48.478  1.00  0.00     0.119 C 
BRANCH  14  15
HETATM   15  N4  UNL     1      23.440   5.465  49.077  1.00  0.00    -0.408 N 
HETATM   16  C18 UNL     1      24.673   6.031  48.727  1.00  0.00     0.143 C 
HETATM   17  C19 UNL     1      25.486   6.267  49.993  1.00  0.00     0.187 C 
HETATM   18  O3  UNL     1      24.770   6.853  51.004  1.00  0.00    -0.388 OA
HETATM   19  C20 UNL     1      23.729   5.988  51.404  1.00  0.00     0.187 C 
HETATM   20  C21 UNL     1      22.771   5.953  50.231  1.00  0.00     0.143 C 
ENDBRANCH  14  15
ENDBRANCH  13  14
ENDBRANCH  12  13
ENDBRANCH  11  12
ENDBRANCH  10  11
BRANCH   1  21
HETATM   21  O1  UNL     1      19.598   1.185  51.716  1.00  0.00    -0.353 OA
HETATM   22  C1  UNL     1      18.584   0.203  51.451  1.00  0.00     0.210 C 
ENDBRANCH   1  21
BRANCH   7  23
HETATM   23  C6  UNL     1      25.835   0.027  53.801  1.00  0.00     0.056 A 
HETATM   24  C7  UNL     1      26.310   1.320  53.816  1.00  0.00     0.034 A 
HETATM   25  C8  UNL     1      27.631   1.672  53.656  1.00  0.00     0.046 A 
HETATM   26  C9  UNL     1      28.530   0.668  53.468  1.00  0.00     0.138 A 
HETATM   27  F1  UNL     1      29.839   1.002  53.308  1.00  0.00    -0.204 F 
HETATM   28  C10 UNL     1      28.187  -0.654  53.431  1.00  0.00     0.074 A 
HETATM   29 CL1  UNL     1      29.326  -1.964  53.190  1.00  0.00    -0.081 Cl
HETATM   30  C11 UNL     1      26.858  -0.909  53.600  1.00  0.00     0.058 A 
ENDBRANCH   7  23
TORSDOF 7
ENDMDL
MODEL 9
REMARK VINA RESULT:      -8.2      4.783      7.626
REMARK  7 active torsions:
REMARK  status: ('A' for Active; 'I' for Inactive)
REMARK    1  A    between atoms: O1_2  and  C2_3 
REMARK    2  A    between atoms: N3_9  and  C6_10 
REMARK    3  A    between atoms: C14_20  and  O2_21 
REMARK    4  A    between atoms: O2_21  and  C15_22 
REMARK    5  A    between atoms: C15_22  and  C16_23 
REMARK    6  A    between atoms: C16_23  and  C17_24 
REMARK    7  A    between atoms: C17_24  and  N4_25 
ROOT
HETATM    1  C2  UNL     1      25.515   5.589  49.016  1.00  0.00     0.103 C 
HETATM    2  C3  UNL     1      24.437   5.508  49.821  1.00  0.00     0.069 C 
HETATM    3  C4  UNL     1      24.576   4.487  50.846  1.00  0.00     0.067 C 
HETATM    4  N1  UNL     1      23.669   4.602  51.785  1.00  0.00    -0.242 NA
HETATM    5  C5  UNL     1      23.701   3.694  52.868  1.00  0.00     0.255 C 
HETATM    6  N2  UNL     1      24.609   2.810  52.932  1.00  0.00    -0.164 NA
HETATM    7  N3  UNL     1      25.652   2.606  52.027  1.00  0.00    -0.255 N 
HETATM    8  C12 UNL     1      25.493   3.373  50.881  1.00  0.00     0.188 C 
HETATM    9  C13 UNL     1      26.663   3.621  50.017  1.00  0.00     0.046 C 
HETATM   10  C14 UNL     1      26.635   4.651  49.145  1.00  0.00     0.100 C 
ENDROOT
BRANCH  10  11
HETATM   11  O2  UNL     1      27.711   4.875  48.296  1.00  0.00    -0.348 OA
BRANCH  11  12
HETATM   12  C15 UNL     1      28.731   5.834  48.516  1.00  0.00     0.177 C 
BRANCH  12  13
HETATM   13  C16 UNL     1      30.023   5.354  47.904  1.00  0.00     0.046 C 
BRANCH  13  14
HETATM   14  C17 UNL     1      31.264   5.900  48.516  1.00  0.00     0.119 C 
BRANCH  14  15
HETATM   15  N4  UNL     1      31.523   7.271  48.410  1.00  0.00    -0.408 N 
HETATM   16  C18 UNL     1      31.552   8.104  49.537  1.00  0.00     0.143 C 
HETATM   17  C19 UNL     1      30.629   9.292  49.297  1.00  0.00     0.187 C 
HETATM   18  O3  UNL     1      30.784   9.868  48.064  1.00  0.00    -0.388 OA
HETATM   19  C20 UNL     1      30.436   8.937  47.063  1.00  0.00     0.187 C 
HETATM   20  C21 UNL     1      31.510   7.871  47.122  1.00  0.00     0.143 C 
ENDBRANCH  14  15
ENDBRANCH  13  14
ENDBRANCH  12  13
ENDBRANCH  11  12
ENDBRANCH  10  11
BRANCH   1  21
HETATM   21  O1  UNL     1      25.527   6.559  48.019  1.00  0.00    -0.353 OA
HETATM   22  C1  UNL     1      25.180   7.906  48.376  1.00  0.00     0.210 C 
ENDBRANCH   1  21
BRANCH   7  23
HETATM   23  C6  UNL     1      26.632   1.690  52.453  1.00  0.00     0.056 A 
HETATM   24  C7  UNL     1      27.811   1.977  53.106  1.00  0.00     0.034 A 
HETATM   25  C8  UNL     1      28.724   1.036  53.525  1.00  0.00     0.046 A 
HETATM   26  C9  UNL     1      28.440  -0.271  53.274  1.00  0.00     0.138 A 
HETATM   27  F1  UNL     1      29.335  -1.210  53.683  1.00  0.00    -0.204 F 
HETATM   28  C10 UNL     1      27.307  -0.685  52.634  1.00  0.00     0.074 A 
HETATM   29 CL1  UNL     1      26.920  -2.362  52.298  1.00  0.00    -0.081 Cl
HETATM   30  C11 UNL     1      26.459   0.313  52.256  1.00  0.00     0.058 A 
ENDBRANCH   7  23
TORSDOF 7
ENDMDL
