MODEL 1
REMARK VINA RESULT:      -8.8      0.000      0.000
REMARK  6 active torsions:
REMARK  status: ('A' for Active; 'I' for Inactive)
REMARK    1  A    between atoms: C1_2  and  C2_3 
REMARK       I    between atoms: C1_2  and  N1_11 
REMARK    2  A    between atoms: C2_3  and  O2_4 
REMARK    3  A    between atoms: O2_4  and  C3_5 
REMARK    4  A    between atoms: N1_11  and  C9_12 
REMARK    5  A    between atoms: C14_19  and  N4_20 
REMARK    6  A    between atoms: N4_20  and  C15_21 
ROOT
HETATM    1  C9  UNL     1      21.995   2.237  52.040  1.00  0.00     0.035 A 
HETATM    2  C10 UNL     1      20.815   2.030  52.719  1.00  0.00     0.032 A 
HETATM    3  C11 UNL     1      20.785   1.042  53.680  1.00  0.00     0.035 A 
HETATM    4  C12 UNL     1      21.909   0.289  53.947  1.00  0.00     0.072 A 
HETATM    5  N2  UNL     1      21.760  -0.640  54.899  1.00  0.00    -0.241 NA
HETATM    6  C13 UNL     1      22.814  -1.408  55.209  1.00  0.00     0.236 A 
HETATM    7  N3  UNL     1      23.944  -1.204  54.554  1.00  0.00    -0.224 NA
HETATM    8  C14 UNL     1      24.194  -0.316  53.598  1.00  0.00     0.142 A 
HETATM    9  C21 UNL     1      23.108   0.461  53.294  1.00  0.00     0.041 A 
HETATM   10  C22 UNL     1      23.090   1.457  52.344  1.00  0.00     0.047 A 
ENDROOT
BRANCH   1  11
HETATM   11  N1  UNL     1      22.024   3.257  51.049  1.00  0.00    -0.325 N 
HETATM   12  C1  UNL     1      22.418   4.602  51.233  1.00  0.00     0.246 C 
HETATM   13  O1  UNL     1      22.793   5.004  52.364  1.00  0.00    -0.271 OA
HETATM   14  H8  UNL     1      21.690   2.751  50.199  1.00  0.00     0.169 HD
BRANCH  12  15
HETATM   15  C2  UNL     1      22.295   5.333  49.921  1.00  0.00     0.278 C 
BRANCH  15  16
HETATM   16  O2  UNL     1      23.120   4.780  48.944  1.00  0.00    -0.342 OA
BRANCH  16  17
HETATM   17  C3  UNL     1      24.495   4.728  49.008  1.00  0.00     0.069 A 
HETATM   18  C4  UNL     1      25.312   5.821  48.716  1.00  0.00     0.037 A 
HETATM   19  C5  UNL     1      26.700   5.766  48.782  1.00  0.00     0.003 A 
HETATM   20  C6  UNL     1      27.193   4.534  49.160  1.00  0.00     0.000 A 
HETATM   21  C7  UNL     1      26.478   3.415  49.462  1.00  0.00     0.003 A 
HETATM   22  C8  UNL     1      25.102   3.545  49.375  1.00  0.00     0.037 A 
ENDBRANCH  16  17
ENDBRANCH  15  16
ENDBRANCH  12  15
ENDBRANCH   1  11
BRANCH   8  23
HETATM   23  N4  UNL     1      25.407  -0.107  52.905  1.00  0.00    -0.340 N 
HETATM   24  H12 UNL     1      25.530  -0.386  51.918  1.00  0.00     0.167 HD
BRANCH  23  25
HETATM   25  C15 UNL     1      26.613   0.477  53.369  1.00  0.00     0.033 A 
HETATM   26  C16 UNL     1      27.501  -0.101  54.248  1.00  0.00     0.029 A 
HETATM   27  C17 UNL     1      28.663   0.486  54.681  1.00  0.00     0.002 A 
HETATM   28  C18 UNL     1      29.011   1.742  54.235  1.00  0.00     0.000 A 
HETATM   29  C19 UNL     1      28.156   2.359  53.357  1.00  0.00     0.002 A 
HETATM   30  C20 UNL     1      26.999   1.729  52.949  1.00  0.00     0.029 A 
ENDBRANCH  23  25
ENDBRANCH   8  23
TORSDOF 6
ENDMDL
MODEL 2
REMARK VINA RESULT:      -8.6      1.350      1.973
REMARK  6 active torsions:
REMARK  status: ('A' for Active; 'I' for Inactive)
REMARK    1  A    between atoms: C1_2  and  C2_3 
REMARK       I    between atoms: C1_2  and  N1_11 
REMARK    2  A    between atoms: C2_3  and  O2_4 
REMARK    3  A    between atoms: O2_4  and  C3_5 
REMARK    4  A    between atoms: N1_11  and  C9_12 
REMARK    5  A    between atoms: C14_19  and  N4_20 
REMARK    6  A    between atoms: N4_20  and  C15_21 
ROOT
HETATM    1  C9  UNL     1      23.087   1.777  51.013  1.00  0.00     0.035 A 
HETATM    2  C10 UNL     1      21.858   1.171  50.879  1.00  0.00     0.032 A 
HETATM    3  C11 UNL     1      21.514   0.196  51.791  1.00  0.00     0.035 A 
HETATM    4  C12 UNL     1      22.382  -0.155  52.804  1.00  0.00     0.072 A 
HETATM    5  N2  UNL     1      21.939  -1.113  53.628  1.00  0.00    -0.241 NA
HETATM    6  C13 UNL     1      22.734  -1.501  54.636  1.00  0.00     0.236 A 
HETATM    7  N3  UNL     1      23.912  -0.915  54.758  1.00  0.00    -0.224 NA
HETATM    8  C14 UNL     1      24.442   0.038  53.999  1.00  0.00     0.142 A 
HETATM    9  C21 UNL     1      23.618   0.425  52.976  1.00  0.00     0.041 A 
HETATM   10  C22 UNL     1      23.918   1.391  52.043  1.00  0.00     0.047 A 
ENDROOT
BRANCH   1  11
HETATM   11  N1  UNL     1      23.440   2.783  50.071  1.00  0.00    -0.325 N 
HETATM   12  C1  UNL     1      23.257   4.177  50.216  1.00  0.00     0.246 C 
HETATM   13  O1  UNL     1      22.735   4.642  51.261  1.00  0.00    -0.271 OA
HETATM   14  H8  UNL     1      23.848   2.223  49.290  1.00  0.00     0.169 HD
BRANCH  12  15
HETATM   15  C2  UNL     1      23.771   4.871  48.981  1.00  0.00     0.278 C 
BRANCH  15  16
HETATM   16  O2  UNL     1      24.686   5.873  49.296  1.00  0.00    -0.342 OA
BRANCH  16  17
HETATM   17  C3  UNL     1      26.014   5.874  48.931  1.00  0.00     0.069 A 
HETATM   18  C4  UNL     1      26.810   4.728  48.956  1.00  0.00     0.037 A 
HETATM   19  C5  UNL     1      28.151   4.731  48.586  1.00  0.00     0.003 A 
HETATM   20  C6  UNL     1      28.620   5.968  48.195  1.00  0.00     0.000 A 
HETATM   21  C7  UNL     1      27.922   7.136  48.138  1.00  0.00     0.003 A 
HETATM   22  C8  UNL     1      26.594   7.057  48.521  1.00  0.00     0.037 A 
ENDBRANCH  16  17
ENDBRANCH  15  16
ENDBRANCH  12  15
ENDBRANCH   1  11
BRANCH   8  23
HETATM   23  N4  UNL     1      25.703   0.658  54.141  1.00  0.00    -0.340 N 
HETATM   24  H12 UNL     1      25.800   1.636  54.459  1.00  0.00     0.167 HD
BRANCH  23  25
HETATM   25  C15 UNL     1      26.994   0.125  53.900  1.00  0.00     0.033 A 
HETATM   26  C16 UNL     1      27.266  -1.087  53.306  1.00  0.00     0.029 A 
HETATM   27  C17 UNL     1      28.527  -1.581  53.083  1.00  0.00     0.002 A 
HETATM   28  C18 UNL     1      29.632  -0.851  53.462  1.00  0.00     0.000 A 
HETATM   29  C19 UNL     1      29.410   0.365  54.059  1.00  0.00     0.002 A 
HETATM   30  C20 UNL     1      28.125   0.820  54.262  1.00  0.00     0.029 A 
ENDBRANCH  23  25
ENDBRANCH   8  23
TORSDOF 6
ENDMDL
MODEL 3
REMARK VINA RESULT:      -8.5      2.777      6.658
REMARK  6 active torsions:
REMARK  status: ('A' for Active; 'I' for Inactive)
REMARK    1  A    between atoms: C1_2  and  C2_3 
REMARK       I    between atoms: C1_2  and  N1_11 
REMARK    2  A    between atoms: C2_3  and  O2_4 
REMARK    3  A    between atoms: O2_4  and  C3_5 
REMARK    4  A    between atoms: N1_11  and  C9_12 
REMARK    5  A    between atoms: C14_19  and  N4_20 
REMARK    6  A    between atoms: N4_20  and  C15_21 
ROOT
HETATM    1  C9  UNL     1      24.261  -0.172  53.747  1.00  0.00     0.035 A 
HETATM    2  C10 UNL     1      25.006  -0.620  54.816  1.00  0.00     0.032 A 
HETATM    3  C11 UNL     1      26.292  -0.144  54.954  1.00  0.00     0.035 A 
HETATM    4  C12 UNL     1      26.809   0.755  54.045  1.00  0.00     0.072 A 
HETATM    5  N2  UNL     1      28.067   1.146  54.282  1.00  0.00    -0.241 NA
HETATM    6  C13 UNL     1      28.631   2.021  53.436  1.00  0.00     0.236 A 
HETATM    7  N3  UNL     1      27.911   2.447  52.414  1.00  0.00    -0.224 NA
HETATM    8  C14 UNL     1      26.663   2.123  52.091  1.00  0.00     0.142 A 
HETATM    9  C21 UNL     1      26.101   1.230  52.964  1.00  0.00     0.041 A 
HETATM   10  C22 UNL     1      24.824   0.728  52.867  1.00  0.00     0.047 A 
ENDROOT
BRANCH   1  11
HETATM   11  N1  UNL     1      22.934  -0.664  53.606  1.00  0.00    -0.325 N 
HETATM   12  C1  UNL     1      22.179  -1.349  54.587  1.00  0.00     0.246 C 
HETATM   13  O1  UNL     1      22.672  -1.578  55.721  1.00  0.00    -0.271 OA
HETATM   14  H8  UNL     1      22.697  -0.388  52.628  1.00  0.00     0.169 HD
BRANCH  12  15
HETATM   15  C2  UNL     1      20.827  -1.688  54.015  1.00  0.00     0.278 C 
BRANCH  15  16
HETATM   16  O2  UNL     1      20.051  -0.548  53.816  1.00  0.00    -0.342 OA
BRANCH  16  17
HETATM   17  C3  UNL     1      19.411  -0.222  52.641  1.00  0.00     0.069 A 
HETATM   18  C4  UNL     1      20.027   0.493  51.613  1.00  0.00     0.037 A 
HETATM   19  C5  UNL     1      19.379   0.820  50.427  1.00  0.00     0.003 A 
HETATM   20  C6  UNL     1      18.075   0.375  50.361  1.00  0.00     0.000 A 
HETATM   21  C7  UNL     1      17.393  -0.326  51.308  1.00  0.00     0.003 A 
HETATM   22  C8  UNL     1      18.101  -0.616  52.462  1.00  0.00     0.037 A 
ENDBRANCH  16  17
ENDBRANCH  15  16
ENDBRANCH  12  15
ENDBRANCH   1  11
BRANCH   8  23
HETATM   23  N4  UNL     1      25.903   2.587  50.995  1.00  0.00    -0.340 N 
HETATM   24  H12 UNL     1      25.088   2.065  50.633  1.00  0.00     0.167 HD
BRANCH  23  25
HETATM   25  C15 UNL     1      26.075   3.762  50.221  1.00  0.00     0.033 A 
HETATM   26  C16 UNL     1      27.103   3.999  49.335  1.00  0.00     0.029 A 
HETATM   27  C17 UNL     1      27.246   5.147  48.596  1.00  0.00     0.002 A 
HETATM   28  C18 UNL     1      26.324   6.163  48.712  1.00  0.00     0.000 A 
HETATM   29  C19 UNL     1      25.280   5.972  49.583  1.00  0.00     0.002 A 
HETATM   30  C20 UNL     1      25.178   4.802  50.304  1.00  0.00     0.029 A 
ENDBRANCH  23  25
ENDBRANCH   8  23
TORSDOF 6
ENDMDL
MODEL 4
REMARK VINA RESULT:      -8.5      2.422      3.365
REMARK  6 active torsions:
REMARK  status: ('A' for Active; 'I' for Inactive)
REMARK    1  A    between atoms: C1_2  and  C2_3 
REMARK       I    between atoms: C1_2  and  N1_11 
REMARK    2  A    between atoms: C2_3  and  O2_4 
REMARK    3  A    between atoms: O2_4  and  C3_5 
REMARK    4  A    between atoms: N1_11  and  C9_12 
REMARK    5  A    between atoms: C14_19  and  N4_20 
REMARK    6  A    between atoms: N4_20  and  C15_21 
ROOT
HETATM    1  C9  UNL     1      24.053   2.430  50.741  1.00  0.00     0.035 A 
HETATM    2  C10 UNL     1      22.786   2.168  50.269  1.00  0.00     0.032 A 
HETATM    3  C11 UNL     1      22.034   1.218  50.926  1.00  0.00     0.035 A 
HETATM    4  C12 UNL     1      22.544   0.554  52.022  1.00  0.00     0.072 A 
HETATM    5  N2  UNL     1      21.722  -0.346  52.576  1.00  0.00    -0.241 NA
HETATM    6  C13 UNL     1      22.155  -1.027  53.647  1.00  0.00     0.236 A 
HETATM    7  N3  UNL     1      23.372  -0.771  54.095  1.00  0.00    -0.224 NA
HETATM    8  C14 UNL     1      24.260   0.096  53.620  1.00  0.00     0.142 A 
HETATM    9  C21 UNL     1      23.803   0.784  52.528  1.00  0.00     0.041 A 
HETATM   10  C22 UNL     1      24.516   1.739  51.841  1.00  0.00     0.047 A 
ENDROOT
BRANCH   1  11
HETATM   11  N1  UNL     1      24.828   3.411  50.062  1.00  0.00    -0.325 N 
HETATM   12  C1  UNL     1      26.237   3.443  49.948  1.00  0.00     0.246 C 
HETATM   13  O1  UNL     1      26.937   2.543  50.478  1.00  0.00    -0.271 OA
HETATM   14  H8  UNL     1      24.095   4.058  49.696  1.00  0.00     0.169 HD
BRANCH  12  15
HETATM   15  C2  UNL     1      26.636   4.656  49.146  1.00  0.00     0.278 C 
BRANCH  15  16
HETATM   16  O2  UNL     1      27.995   4.643  48.837  1.00  0.00    -0.342 OA
BRANCH  16  17
HETATM   17  C3  UNL     1      28.674   5.669  48.217  1.00  0.00     0.069 A 
HETATM   18  C4  UNL     1      30.042   5.620  47.947  1.00  0.00     0.037 A 
HETATM   19  C5  UNL     1      30.725   6.658  47.320  1.00  0.00     0.003 A 
HETATM   20  C6  UNL     1      29.928   7.735  46.993  1.00  0.00     0.000 A 
HETATM   21  C7  UNL     1      28.592   7.872  47.216  1.00  0.00     0.003 A 
HETATM   22  C8  UNL     1      27.979   6.800  47.843  1.00  0.00     0.037 A 
ENDBRANCH  16  17
ENDBRANCH  15  16
ENDBRANCH  12  15
ENDBRANCH   1  11
BRANCH   8  23
HETATM   23  N4  UNL     1      25.558   0.361  54.109  1.00  0.00    -0.340 N 
HETATM   24  H12 UNL     1      25.749   1.136  54.766  1.00  0.00     0.167 HD
BRANCH  23  25
HETATM   25  C15 UNL     1      26.774  -0.312  53.830  1.00  0.00     0.033 A 
HETATM   26  C16 UNL     1      26.914  -1.420  53.024  1.00  0.00     0.029 A 
HETATM   27  C17 UNL     1      28.105  -2.054  52.770  1.00  0.00     0.002 A 
HETATM   28  C18 UNL     1      29.270  -1.589  53.338  1.00  0.00     0.000 A 
HETATM   29  C19 UNL     1      29.180  -0.486  54.150  1.00  0.00     0.002 A 
HETATM   30  C20 UNL     1      27.962   0.118  54.375  1.00  0.00     0.029 A 
ENDBRANCH  23  25
ENDBRANCH   8  23
TORSDOF 6
ENDMDL
MODEL 5
REMARK VINA RESULT:      -8.1      3.578      7.302
REMARK  6 active torsions:
REMARK  status: ('A' for Active; 'I' for Inactive)
REMARK    1  A    between atoms: C1_2  and  C2_3 
REMARK       I    between atoms: C1_2  and  N1_11 
REMARK    2  A    between atoms: C2_3  and  O2_4 
REMARK    3  A    between atoms: O2_4  and  C3_5 
REMARK    4  A    between atoms: N1_11  and  C9_12 
REMARK    5  A    between atoms: C14_19  and  N4_20 
REMARK    6  A    between atoms: N4_20  and  C15_21 
ROOT
HETATM    1  C9  UNL     1      22.056  -0.703  53.655  1.00  0.00     0.035 A 
HETATM    2  C10 UNL     1      22.294  -1.363  54.840  1.00  0.00     0.032 A 
HETATM    3  C11 UNL     1      23.572  -1.326  55.357  1.00  0.00     0.035 A 
HETATM    4  C12 UNL     1      24.576  -0.646  54.699  1.00  0.00     0.072 A 
HETATM    5  N2  UNL     1      25.773  -0.680  55.296  1.00  0.00    -0.241 NA
HETATM    6  C13 UNL     1      26.794  -0.038  54.710  1.00  0.00     0.236 A 
HETATM    7  N3  UNL     1      26.559   0.593  53.573  1.00  0.00    -0.224 NA
HETATM    8  C14 UNL     1      25.416   0.686  52.903  1.00  0.00     0.142 A 
HETATM    9  C21 UNL     1      24.383   0.027  53.514  1.00  0.00     0.041 A 
HETATM   10  C22 UNL     1      23.094  -0.038  53.037  1.00  0.00     0.047 A 
ENDROOT
BRANCH   1  11
HETATM   11  N1  UNL     1      20.738  -0.742  53.123  1.00  0.00    -0.325 N 
HETATM   12  C1  UNL     1      19.892   0.365  52.881  1.00  0.00     0.246 C 
HETATM   13  O1  UNL     1      20.284   1.531  53.141  1.00  0.00    -0.271 OA
HETATM   14  H8  UNL     1      20.589  -1.765  52.973  1.00  0.00     0.169 HD
BRANCH  12  15
HETATM   15  C2  UNL     1      18.586  -0.131  52.315  1.00  0.00     0.278 C 
BRANCH  15  16
HETATM   16  O2  UNL     1      17.804  -0.749  53.290  1.00  0.00    -0.342 OA
BRANCH  16  17
HETATM   17  C3  UNL     1      17.124  -1.934  53.123  1.00  0.00     0.069 A 
HETATM   18  C4  UNL     1      15.932  -2.031  52.404  1.00  0.00     0.037 A 
HETATM   19  C5  UNL     1      15.246  -3.231  52.237  1.00  0.00     0.003 A 
HETATM   20  C6  UNL     1      15.851  -4.310  52.846  1.00  0.00     0.000 A 
HETATM   21  C7  UNL     1      17.008  -4.312  53.565  1.00  0.00     0.003 A 
HETATM   22  C8  UNL     1      17.635  -3.084  53.689  1.00  0.00     0.037 A 
ENDBRANCH  16  17
ENDBRANCH  15  16
ENDBRANCH  12  15
ENDBRANCH   1  11
BRANCH   8  23
HETATM   23  N4  UNL     1      25.177   1.366  51.687  1.00  0.00    -0.340 N 
HETATM   24  H12 UNL     1      25.273   0.899  50.770  1.00  0.00     0.167 HD
BRANCH  23  25
HETATM   25  C15 UNL     1      24.789   2.712  51.477  1.00  0.00     0.033 A 
HETATM   26  C16 UNL     1      24.007   3.467  52.323  1.00  0.00     0.029 A 
HETATM   27  C17 UNL     1      23.646   4.771  52.096  1.00  0.00     0.002 A 
HETATM   28  C18 UNL     1      24.069   5.416  50.955  1.00  0.00     0.000 A 
HETATM   29  C19 UNL     1      24.851   4.704  50.080  1.00  0.00     0.002 A 
HETATM   30  C20 UNL     1      25.189   3.396  50.352  1.00  0.00     0.029 A 
ENDBRANCH  23  25
ENDBRANCH   8  23
TORSDOF 6
ENDMDL
MODEL 6
REMARK VINA RESULT:      -8.1      2.050      5.201
REMARK  6 active torsions:
REMARK  status: ('A' for Active; 'I' for Inactive)
REMARK    1  A    between atoms: C1_2  and  C2_3 
REMARK       I    between atoms: C1_2  and  N1_11 
REMARK    2  A    between atoms: C2_3  and  O2_4 
REMARK    3  A    between atoms: O2_4  and  C3_5 
REMARK    4  A    between atoms: N1_11  and  C9_12 
REMARK    5  A    between atoms: C14_19  and  N4_20 
REMARK    6  A    between atoms: N4_20  and  C15_21 
ROOT
HETATM    1  C9  UNL     1      24.213   1.557  51.628  1.00  0.00     0.035 A 
HETATM    2  C10 UNL     1      25.375   0.953  52.053  1.00  0.00     0.032 A 
HETATM    3  C11 UNL     1      25.298   0.065  53.105  1.00  0.00     0.035 A 
HETATM    4  C12 UNL     1      24.086  -0.205  53.707  1.00  0.00     0.072 A 
HETATM    5  N2  UNL     1      24.135  -1.083  54.716  1.00  0.00    -0.241 NA
HETATM    6  C13 UNL     1      22.992  -1.391  55.346  1.00  0.00     0.236 A 
HETATM    7  N3  UNL     1      21.880  -0.808  54.933  1.00  0.00    -0.224 NA
HETATM    8  C14 UNL     1      21.725   0.070  53.948  1.00  0.00     0.142 A 
HETATM    9  C21 UNL     1      22.901   0.374  53.315  1.00  0.00     0.041 A 
HETATM   10  C22 UNL     1      23.028   1.253  52.263  1.00  0.00     0.047 A 
ENDROOT
BRANCH   1  11
HETATM   11  N1  UNL     1      24.295   2.473  50.543  1.00  0.00    -0.325 N 
HETATM   12  C1  UNL     1      24.221   3.883  50.621  1.00  0.00     0.246 C 
HETATM   13  O1  UNL     1      24.066   4.449  51.734  1.00  0.00    -0.271 OA
HETATM   14  H8  UNL     1      24.420   1.837  49.724  1.00  0.00     0.169 HD
BRANCH  12  15
HETATM   15  C2  UNL     1      24.354   4.458  49.235  1.00  0.00     0.278 C 
BRANCH  15  16
HETATM   16  O2  UNL     1      24.952   5.717  49.255  1.00  0.00    -0.342 OA
BRANCH  16  17
HETATM   17  C3  UNL     1      26.243   5.985  48.858  1.00  0.00     0.069 A 
HETATM   18  C4  UNL     1      26.688   7.268  48.537  1.00  0.00     0.037 A 
HETATM   19  C5  UNL     1      27.993   7.536  48.136  1.00  0.00     0.003 A 
HETATM   20  C6  UNL     1      28.803   6.421  48.086  1.00  0.00     0.000 A 
HETATM   21  C7  UNL     1      28.459   5.137  48.379  1.00  0.00     0.003 A 
HETATM   22  C8  UNL     1      27.145   4.945  48.771  1.00  0.00     0.037 A 
ENDBRANCH  16  17
ENDBRANCH  15  16
ENDBRANCH  12  15
ENDBRANCH   1  11
BRANCH   8  23
HETATM   23  N4  UNL     1      20.530   0.686  53.515  1.00  0.00    -0.340 N 
HETATM   24  H12 UNL     1      20.361   1.699  53.633  1.00  0.00     0.167 HD
BRANCH  23  25
HETATM   25  C15 UNL     1      19.402   0.104  52.884  1.00  0.00     0.033 A 
HETATM   26  C16 UNL     1      18.622  -0.906  53.400  1.00  0.00     0.029 A 
HETATM   27  C17 UNL     1      17.534  -1.453  52.768  1.00  0.00     0.002 A 
HETATM   28  C18 UNL     1      17.154  -0.992  51.526  1.00  0.00     0.000 A 
HETATM   29  C19 UNL     1      17.901   0.015  50.970  1.00  0.00     0.002 A 
HETATM   30  C20 UNL     1      18.987   0.533  51.644  1.00  0.00     0.029 A 
ENDBRANCH  23  25
ENDBRANCH   8  23
TORSDOF 6
ENDMDL
MODEL 7
REMARK VINA RESULT:      -8.1      2.295      6.373
REMARK  6 active torsions:
REMARK  status: ('A' for Active; 'I' for Inactive)
REMARK    1  A    between atoms: C1_2  and  C2_3 
REMARK       I    between atoms: C1_2  and  N1_11 
REMARK    2  A    between atoms: C2_3  and  O2_4 
REMARK    3  A    between atoms: O2_4  and  C3_5 
REMARK    4  A    between atoms: N1_11  and  C9_12 
REMARK    5  A    between atoms: C14_19  and  N4_20 
REMARK    6  A    between atoms: N4_20  and  C15_21 
ROOT
HETATM    1  C9  UNL     1      22.688   1.120  51.417  1.00  0.00     0.035 A 
HETATM    2  C10 UNL     1      21.576   0.481  50.916  1.00  0.00     0.032 A 
HETATM    3  C11 UNL     1      20.786   1.165  50.017  1.00  0.00     0.035 A 
HETATM    4  C12 UNL     1      21.109   2.451  49.635  1.00  0.00     0.072 A 
HETATM    5  N2  UNL     1      20.269   3.013  48.757  1.00  0.00    -0.241 NA
HETATM    6  C13 UNL     1      20.524   4.263  48.345  1.00  0.00     0.236 A 
HETATM    7  N3  UNL     1      21.593   4.870  48.829  1.00  0.00    -0.224 NA
HETATM    8  C14 UNL     1      22.484   4.404  49.698  1.00  0.00     0.142 A 
HETATM    9  C21 UNL     1      22.210   3.127  50.110  1.00  0.00     0.041 A 
HETATM   10  C22 UNL     1      22.967   2.405  51.004  1.00  0.00     0.047 A 
ENDROOT
BRANCH   1  11
HETATM   11  N1  UNL     1      23.501   0.413  52.345  1.00  0.00    -0.325 N 
HETATM   12  C1  UNL     1      23.156   0.053  53.668  1.00  0.00     0.246 C 
HETATM   13  O1  UNL     1      22.029   0.360  54.134  1.00  0.00    -0.271 OA
HETATM   14  H8  UNL     1      24.374   0.247  51.795  1.00  0.00     0.169 HD
BRANCH  12  15
HETATM   15  C2  UNL     1      24.311  -0.685  54.293  1.00  0.00     0.278 C 
BRANCH  15  16
HETATM   16  O2  UNL     1      25.343  -0.895  53.380  1.00  0.00    -0.342 OA
BRANCH  16  17
HETATM   17  C3  UNL     1      26.683  -0.732  53.650  1.00  0.00     0.069 A 
HETATM   18  C4  UNL     1      27.163   0.178  54.594  1.00  0.00     0.037 A 
HETATM   19  C5  UNL     1      28.518   0.340  54.866  1.00  0.00     0.003 A 
HETATM   20  C6  UNL     1      29.339  -0.477  54.118  1.00  0.00     0.000 A 
HETATM   21  C7  UNL     1      28.965  -1.390  53.179  1.00  0.00     0.003 A 
HETATM   22  C8  UNL     1      27.602  -1.497  52.962  1.00  0.00     0.037 A 
ENDBRANCH  16  17
ENDBRANCH  15  16
ENDBRANCH  12  15
ENDBRANCH   1  11
BRANCH   8  23
HETATM   23  N4  UNL     1      23.624   5.063  50.208  1.00  0.00    -0.340 N 
HETATM   24  H12 UNL     1      23.609   5.565  51.111  1.00  0.00     0.167 HD
BRANCH  23  25
HETATM   25  C15 UNL     1      24.920   5.172  49.646  1.00  0.00     0.033 A 
HETATM   26  C16 UNL     1      25.870   4.175  49.613  1.00  0.00     0.029 A 
HETATM   27  C17 UNL     1      27.120   4.306  49.061  1.00  0.00     0.002 A 
HETATM   28  C18 UNL     1      27.499   5.499  48.487  1.00  0.00     0.000 A 
HETATM   29  C19 UNL     1      26.585   6.523  48.495  1.00  0.00     0.002 A 
HETATM   30  C20 UNL     1      25.341   6.344  49.061  1.00  0.00     0.029 A 
ENDBRANCH  23  25
ENDBRANCH   8  23
TORSDOF 6
ENDMDL
MODEL 8
REMARK VINA RESULT:      -7.9      2.363      7.333
REMARK  6 active torsions:
REMARK  status: ('A' for Active; 'I' for Inactive)
REMARK    1  A    between atoms: C1_2  and  C2_3 
REMARK       I    between atoms: C1_2  and  N1_11 
REMARK    2  A    between atoms: C2_3  and  O2_4 
REMARK    3  A    between atoms: O2_4  and  C3_5 
REMARK    4  A    between atoms: N1_11  and  C9_12 
REMARK    5  A    between atoms: C14_19  and  N4_20 
REMARK    6  A    between atoms: N4_20  and  C15_21 
ROOT
HETATM    1  C9  UNL     1      26.051   2.540  51.270  1.00  0.00     0.035 A 
HETATM    2  C10 UNL     1      26.893   3.101  50.336  1.00  0.00     0.032 A 
HETATM    3  C11 UNL     1      26.387   4.087  49.517  1.00  0.00     0.035 A 
HETATM    4  C12 UNL     1      25.074   4.494  49.637  1.00  0.00     0.072 A 
HETATM    5  N2  UNL     1      24.696   5.458  48.788  1.00  0.00    -0.241 NA
HETATM    6  C13 UNL     1      23.432   5.901  48.852  1.00  0.00     0.236 A 
HETATM    7  N3  UNL     1      22.630   5.359  49.751  1.00  0.00    -0.224 NA
HETATM    8  C14 UNL     1      22.904   4.403  50.633  1.00  0.00     0.142 A 
HETATM    9  C21 UNL     1      24.198   3.962  50.556  1.00  0.00     0.041 A 
HETATM   10  C22 UNL     1      24.748   2.982  51.350  1.00  0.00     0.047 A 
ENDROOT
BRANCH   1  11
HETATM   11  N1  UNL     1      26.575   1.522  52.114  1.00  0.00    -0.325 N 
HETATM   12  C1  UNL     1      26.635   1.544  53.527  1.00  0.00     0.246 C 
HETATM   13  O1  UNL     1      26.197   2.536  54.164  1.00  0.00    -0.271 OA
HETATM   14  H8  UNL     1      26.883   0.799  51.426  1.00  0.00     0.169 HD
BRANCH  12  15
HETATM   15  C2  UNL     1      27.266   0.265  54.011  1.00  0.00     0.278 C 
BRANCH  15  16
HETATM   16  O2  UNL     1      26.428  -0.831  53.810  1.00  0.00    -0.342 OA
BRANCH  16  17
HETATM   17  C3  UNL     1      25.076  -0.849  54.070  1.00  0.00     0.069 A 
HETATM   18  C4  UNL     1      24.115  -0.499  53.121  1.00  0.00     0.037 A 
HETATM   19  C5  UNL     1      22.749  -0.518  53.386  1.00  0.00     0.003 A 
HETATM   20  C6  UNL     1      22.434  -0.913  54.669  1.00  0.00     0.000 A 
HETATM   21  C7  UNL     1      23.298  -1.271  55.659  1.00  0.00     0.003 A 
HETATM   22  C8  UNL     1      24.641  -1.228  55.323  1.00  0.00     0.037 A 
ENDBRANCH  16  17
ENDBRANCH  15  16
ENDBRANCH  12  15
ENDBRANCH   1  11
BRANCH   8  23
HETATM   23  N4  UNL     1      22.037   3.832  51.590  1.00  0.00    -0.340 N 
HETATM   24  H12 UNL     1      21.865   4.275  52.508  1.00  0.00     0.167 HD
BRANCH  23  25
HETATM   25  C15 UNL     1      21.282   2.635  51.511  1.00  0.00     0.033 A 
HETATM   26  C16 UNL     1      21.403   1.670  50.537  1.00  0.00     0.029 A 
HETATM   27  C17 UNL     1      20.659   0.518  50.484  1.00  0.00     0.002 A 
HETATM   28  C18 UNL     1      19.711   0.262  51.450  1.00  0.00     0.000 A 
HETATM   29  C19 UNL     1      19.554   1.197  52.443  1.00  0.00     0.002 A 
HETATM   30  C20 UNL     1      20.325   2.340  52.455  1.00  0.00     0.029 A 
ENDBRANCH  23  25
ENDBRANCH   8  23
TORSDOF 6
ENDMDL
MODEL 9
REMARK VINA RESULT:      -7.8      2.666      6.967
REMARK  6 active torsions:
REMARK  status: ('A' for Active; 'I' for Inactive)
REMARK    1  A    between atoms: C1_2  and  C2_3 
REMARK       I    between atoms: C1_2  and  N1_11 
REMARK    2  A    between atoms: C2_3  and  O2_4 
REMARK    3  A    between atoms: O2_4  and  C3_5 
REMARK    4  A    between atoms: N1_11  and  C9_12 
REMARK    5  A    between atoms: C14_19  and  N4_20 
REMARK    6  A    between atoms: N4_20  and  C15_21 
ROOT
HETATM    1  C9  UNL     1      24.134   3.117  52.241  1.00  0.00     0.035 A 
HETATM    2  C10 UNL     1      23.026   3.652  52.860  1.00  0.00     0.032 A 
HETATM    3  C11 UNL     1      22.516   4.834  52.369  1.00  0.00     0.035 A 
HETATM    4  C12 UNL     1      23.105   5.456  51.287  1.00  0.00     0.072 A 
HETATM    5  N2  UNL     1      22.523   6.598  50.899  1.00  0.00    -0.241 NA
HETATM    6  C13 UNL     1      23.045   7.253  49.852  1.00  0.00     0.236 A 
HETATM    7  N3  UNL     1      24.107   6.734  49.263  1.00  0.00    -0.224 NA
HETATM    8  C14 UNL     1      24.757   5.616  49.568  1.00  0.00     0.142 A 
HETATM    9  C21 UNL     1      24.211   4.958  50.638  1.00  0.00     0.041 A 
HETATM   10  C22 UNL     1      24.684   3.777  51.164  1.00  0.00     0.047 A 
ENDROOT
BRANCH   1  11
HETATM   11  N1  UNL     1      24.658   1.897  52.750  1.00  0.00    -0.325 N 
HETATM   12  C1  UNL     1      24.032   0.630  52.717  1.00  0.00     0.246 C 
HETATM   13  O1  UNL     1      22.894   0.499  52.197  1.00  0.00    -0.271 OA
HETATM   14  H8  UNL     1      25.583   2.194  53.132  1.00  0.00     0.169 HD
BRANCH  12  15
HETATM   15  C2  UNL     1      24.939  -0.383  53.367  1.00  0.00     0.278 C 
BRANCH  15  16
HETATM   16  O2  UNL     1      25.991  -0.745  52.528  1.00  0.00    -0.342 OA
BRANCH  16  17
HETATM   17  C3  UNL     1      27.314  -0.818  52.906  1.00  0.00     0.069 A 
HETATM   18  C4  UNL     1      28.026  -2.018  52.949  1.00  0.00     0.037 A 
HETATM   19  C5  UNL     1      29.362  -2.089  53.331  1.00  0.00     0.003 A 
HETATM   20  C6  UNL     1      29.914  -0.870  53.663  1.00  0.00     0.000 A 
HETATM   21  C7  UNL     1      29.301   0.345  53.653  1.00  0.00     0.003 A 
HETATM   22  C8  UNL     1      27.973   0.340  53.262  1.00  0.00     0.037 A 
ENDBRANCH  16  17
ENDBRANCH  15  16
ENDBRANCH  12  15
ENDBRANCH   1  11
BRANCH   8  23
HETATM   23  N4  UNL     1      25.892   5.071  48.929  1.00  0.00    -0.340 N 
HETATM   24  H12 UNL     1      25.963   4.066  48.700  1.00  0.00     0.167 HD
BRANCH  23  25
HETATM   25  C15 UNL     1      27.076   5.722  48.500  1.00  0.00     0.033 A 
HETATM   26  C16 UNL     1      27.164   7.023  48.057  1.00  0.00     0.029 A 
HETATM   27  C17 UNL     1      28.324   7.631  47.647  1.00  0.00     0.002 A 
HETATM   28  C18 UNL     1      29.511   6.933  47.660  1.00  0.00     0.000 A 
HETATM   29  C19 UNL     1      29.474   5.631  48.094  1.00  0.00     0.002 A 
HETATM   30  C20 UNL     1      28.284   5.063  48.497  1.00  0.00     0.029 A 
ENDBRANCH  23  25
ENDBRANCH   8  23
TORSDOF 6
ENDMDL
