MODEL 1
REMARK VINA RESULT:      -7.4      0.000      0.000
REMARK  3 active torsions:
REMARK  status: ('A' for Active; 'I' for Inactive)
REMARK    1  A    between atoms: C5_7  and  C6_8 
REMARK    2  A    between atoms: C6_8  and  C7_9 
REMARK    3  A    between atoms: N2_20  and  C15_21 
ROOT
HETATM    1  C6  UNL     1      21.412   3.373  49.991  1.00  0.00     0.068 A 
HETATM    2  C13 UNL     1      21.017   3.563  50.979  1.00  0.00    -0.007 A 
HETATM    3  C14 UNL     1      20.735   3.696  51.738  1.00  0.00     0.054 A 
HETATM    4  N1  UNL     1      20.409   3.846  52.675  1.00  0.00    -0.220 NA
HETATM    5  N2  UNL     1      21.943   3.002  51.948  1.00  0.00     0.000 N 
HETATM    6  H11 UNL     1      20.953   3.507  53.494  1.00  0.00     0.147 HD
ENDROOT
BRANCH   1   7
HETATM    7  C5  UNL     1      21.473   1.773  49.791  1.00  0.00     0.196 C 
HETATM    8  C2  UNL     1      20.016   1.406  49.809  1.00  0.00     0.067 C 
HETATM    9  C1  UNL     1      19.157   0.605  50.409  1.00  0.00     0.049 C 
HETATM   10  O1  UNL     1      19.341   2.176  48.867  1.00  0.00    -0.351 OA
HETATM   11  C3  UNL     1      19.987   2.752  47.768  1.00  0.00     0.201 C 
HETATM   12  C4  UNL     1      21.399   2.331  47.551  1.00  0.00     0.195 C 
HETATM   13  O2  UNL     1      21.921   1.536  48.532  1.00  0.00    -0.376 OA
ENDBRANCH   1   7
BRANCH   1  14
HETATM   14  C7  UNL     1      22.918   3.765  49.756  1.00  0.00    -0.039 A 
HETATM   15  C8  UNL     1      22.823   5.145  49.504  1.00  0.00     0.010 A 
HETATM   16  C9  UNL     1      23.991   5.873  49.242  1.00  0.00     0.026 A 
HETATM   17  C10 UNL     1      25.232   5.236  49.232  1.00  0.00     0.055 A 
HETATM   18 CL1  UNL     1      26.757   5.993  48.928  1.00  0.00    -0.083 Cl
HETATM   19  C11 UNL     1      25.248   3.891  49.485  1.00  0.00     0.056 A 
HETATM   20 CL2  UNL     1      26.687   2.860  49.528  1.00  0.00    -0.083 Cl
HETATM   21  C12 UNL     1      24.131   3.140  49.745  1.00  0.00     0.034 A 
ENDBRANCH   1  14
BRANCH   5  22
HETATM   22  C15 UNL     1      23.190   2.318  52.413  1.00  0.00    -0.026 A 
HETATM   23  C16 UNL     1      24.159   3.178  52.966  1.00  0.00     0.012 A 
HETATM   24  C17 UNL     1      25.267   2.571  53.427  1.00  0.00     0.001 A 
HETATM   25  C18 UNL     1      25.271   1.215  53.281  1.00  0.00     0.000 A 
HETATM   26  C19 UNL     1      24.330   0.382  52.742  1.00  0.00     0.001 A 
HETATM   27  C20 UNL     1      23.205   0.956  52.270  1.00  0.00     0.012 A 
ENDBRANCH   5  22
TORSDOF 3
ENDMDL
MODEL 2
REMARK VINA RESULT:      -7.2      2.538      4.393
REMARK  3 active torsions:
REMARK  status: ('A' for Active; 'I' for Inactive)
REMARK    1  A    between atoms: C5_7  and  C6_8 
REMARK    2  A    between atoms: C6_8  and  C7_9 
REMARK    3  A    between atoms: N2_20  and  C15_21 
ROOT
HETATM    1  C6  UNL     1      22.444   3.565  51.616  1.00  0.00     0.068 A 
HETATM    2  C13 UNL     1      22.965   4.192  52.325  1.00  0.00    -0.007 A 
HETATM    3  C14 UNL     1      23.377   4.674  52.847  1.00  0.00     0.054 A 
HETATM    4  N1  UNL     1      23.894   5.269  53.467  1.00  0.00    -0.220 NA
HETATM    5  N2  UNL     1      24.047   4.861  51.623  1.00  0.00     0.000 N 
HETATM    6  H11 UNL     1      24.705   5.824  53.127  1.00  0.00     0.147 HD
ENDROOT
BRANCH   1   7
HETATM    7  C5  UNL     1      23.489   2.455  51.086  1.00  0.00     0.196 C 
HETATM    8  C2  UNL     1      23.819   1.716  52.352  1.00  0.00     0.067 C 
HETATM    9  C1  UNL     1      24.842   1.329  53.088  1.00  0.00     0.049 C 
HETATM   10  O1  UNL     1      22.637   1.294  52.954  1.00  0.00    -0.351 OA
HETATM   11  C3  UNL     1      21.451   1.117  52.232  1.00  0.00     0.201 C 
HETATM   12  C4  UNL     1      21.570   1.214  50.751  1.00  0.00     0.195 C 
HETATM   13  O2  UNL     1      22.802   1.593  50.296  1.00  0.00    -0.376 OA
ENDBRANCH   1   7
BRANCH   1  14
HETATM   14  C7  UNL     1      22.017   4.249  50.264  1.00  0.00    -0.039 A 
HETATM   15  C8  UNL     1      21.064   5.185  50.700  1.00  0.00     0.010 A 
HETATM   16  C9  UNL     1      20.438   6.012  49.759  1.00  0.00     0.026 A 
HETATM   17  C10 UNL     1      20.758   5.907  48.404  1.00  0.00     0.055 A 
HETATM   18 CL1  UNL     1      20.077   6.851  47.126  1.00  0.00    -0.083 Cl
HETATM   19  C11 UNL     1      21.695   4.973  48.053  1.00  0.00     0.056 A 
HETATM   20 CL2  UNL     1      22.270   4.647  46.410  1.00  0.00    -0.083 Cl
HETATM   21  C12 UNL     1      22.331   4.144  48.940  1.00  0.00     0.034 A 
ENDBRANCH   1  14
BRANCH   5  22
HETATM   22  C15 UNL     1      24.883   5.241  50.441  1.00  0.00    -0.026 A 
HETATM   23  C16 UNL     1      24.597   6.512  49.905  1.00  0.00     0.012 A 
HETATM   24  C17 UNL     1      25.370   6.884  48.870  1.00  0.00     0.001 A 
HETATM   25  C18 UNL     1      26.309   5.964  48.506  1.00  0.00     0.000 A 
HETATM   26  C19 UNL     1      26.584   4.730  49.026  1.00  0.00     0.001 A 
HETATM   27  C20 UNL     1      25.828   4.323  50.066  1.00  0.00     0.012 A 
ENDBRANCH   5  22
TORSDOF 3
ENDMDL
MODEL 3
REMARK VINA RESULT:      -7.1      2.462      4.111
REMARK  3 active torsions:
REMARK  status: ('A' for Active; 'I' for Inactive)
REMARK    1  A    between atoms: C5_7  and  C6_8 
REMARK    2  A    between atoms: C6_8  and  C7_9 
REMARK    3  A    between atoms: N2_20  and  C15_21 
ROOT
HETATM    1  C6  UNL     1      22.165   4.436  51.181  1.00  0.00     0.068 A 
HETATM    2  C13 UNL     1      22.802   4.680  52.020  1.00  0.00    -0.007 A 
HETATM    3  C14 UNL     1      23.303   4.868  52.642  1.00  0.00     0.054 A 
HETATM    4  N1  UNL     1      23.934   5.102  53.386  1.00  0.00    -0.220 NA
HETATM    5  N2  UNL     1      24.108   5.045  51.500  1.00  0.00     0.000 N 
HETATM    6  H11 UNL     1      24.915   5.387  53.190  1.00  0.00     0.147 HD
ENDROOT
BRANCH   1   7
HETATM    7  C5  UNL     1      22.808   3.157  50.437  1.00  0.00     0.196 C 
HETATM    8  C2  UNL     1      22.740   2.110  51.513  1.00  0.00     0.067 C 
HETATM    9  C1  UNL     1      23.492   1.243  52.162  1.00  0.00     0.049 C 
HETATM   10  O1  UNL     1      21.434   2.027  51.985  1.00  0.00    -0.351 OA
HETATM   11  C3  UNL     1      20.334   2.435  51.223  1.00  0.00     0.201 C 
HETATM   12  C4  UNL     1      20.620   2.778  49.802  1.00  0.00     0.195 C 
HETATM   13  O2  UNL     1      21.943   2.775  49.464  1.00  0.00    -0.376 OA
ENDBRANCH   1   7
BRANCH   1  14
HETATM   14  C7  UNL     1      22.128   5.484  50.007  1.00  0.00    -0.039 A 
HETATM   15  C8  UNL     1      21.511   6.587  50.621  1.00  0.00     0.010 A 
HETATM   16  C9  UNL     1      21.296   7.753  49.875  1.00  0.00     0.026 A 
HETATM   17  C10 UNL     1      21.692   7.817  48.538  1.00  0.00     0.055 A 
HETATM   18 CL1  UNL     1      21.498   9.176  47.488  1.00  0.00    -0.083 Cl
HETATM   19  C11 UNL     1      22.287   6.704  48.007  1.00  0.00     0.056 A 
HETATM   20 CL2  UNL     1      22.873   6.534  46.344  1.00  0.00    -0.083 Cl
HETATM   21  C12 UNL     1      22.515   5.544  48.701  1.00  0.00     0.034 A 
ENDBRANCH   1  14
BRANCH   5  22
HETATM   22  C15 UNL     1      25.131   5.331  50.445  1.00  0.00    -0.026 A 
HETATM   23  C16 UNL     1      25.332   6.699  50.179  1.00  0.00     0.012 A 
HETATM   24  C17 UNL     1      26.278   6.972  49.263  1.00  0.00     0.001 A 
HETATM   25  C18 UNL     1      26.891   5.871  48.739  1.00  0.00     0.000 A 
HETATM   26  C19 UNL     1      26.694   4.544  48.998  1.00  0.00     0.001 A 
HETATM   27  C20 UNL     1      25.751   4.233  49.911  1.00  0.00     0.012 A 
ENDBRANCH   5  22
TORSDOF 3
ENDMDL
MODEL 4
REMARK VINA RESULT:      -7.0      2.769      4.641
REMARK  3 active torsions:
REMARK  status: ('A' for Active; 'I' for Inactive)
REMARK    1  A    between atoms: C5_7  and  C6_8 
REMARK    2  A    between atoms: C6_8  and  C7_9 
REMARK    3  A    between atoms: N2_20  and  C15_21 
ROOT
HETATM    1  C6  UNL     1      24.701   4.036  51.230  1.00  0.00     0.068 A 
HETATM    2  C13 UNL     1      23.802   4.480  51.635  1.00  0.00    -0.007 A 
HETATM    3  C14 UNL     1      23.109   4.796  51.942  1.00  0.00     0.054 A 
HETATM    4  N1  UNL     1      22.253   5.160  52.315  1.00  0.00    -0.220 NA
HETATM    5  N2  UNL     1      22.812   3.428  51.791  1.00  0.00     0.000 N 
HETATM    6  H11 UNL     1      21.435   4.540  52.489  1.00  0.00     0.147 HD
ENDROOT
BRANCH   1   7
HETATM    7  C5  UNL     1      24.337   3.442  49.775  1.00  0.00     0.196 C 
HETATM    8  C2  UNL     1      23.907   4.679  49.038  1.00  0.00     0.067 C 
HETATM    9  C1  UNL     1      22.910   5.167  48.326  1.00  0.00     0.049 C 
HETATM   10  O1  UNL     1      24.909   5.640  49.140  1.00  0.00    -0.351 OA
HETATM   11  C3  UNL     1      26.243   5.307  49.397  1.00  0.00     0.201 C 
HETATM   12  C4  UNL     1      26.570   3.855  49.356  1.00  0.00     0.195 C 
HETATM   13  O2  UNL     1      25.495   3.027  49.203  1.00  0.00    -0.376 OA
ENDBRANCH   1   7
BRANCH   1  14
HETATM   14  C7  UNL     1      25.231   2.746  51.960  1.00  0.00    -0.039 A 
HETATM   15  C8  UNL     1      25.352   3.192  53.287  1.00  0.00     0.010 A 
HETATM   16  C9  UNL     1      25.809   2.303  54.268  1.00  0.00     0.026 A 
HETATM   17  C10 UNL     1      26.138   0.989  53.931  1.00  0.00     0.055 A 
HETATM   18 CL1  UNL     1      26.712  -0.223  55.021  1.00  0.00    -0.083 Cl
HETATM   19  C11 UNL     1      25.995   0.625  52.618  1.00  0.00     0.056 A 
HETATM   20 CL2  UNL     1      26.345  -0.973  51.941  1.00  0.00    -0.083 Cl
HETATM   21  C12 UNL     1      25.553   1.463  51.627  1.00  0.00     0.034 A 
ENDBRANCH   1  14
BRANCH   5  22
HETATM   22  C15 UNL     1      22.286   2.027  51.753  1.00  0.00    -0.026 A 
HETATM   23  C16 UNL     1      22.293   1.365  52.996  1.00  0.00     0.012 A 
HETATM   24  C17 UNL     1      21.784   0.121  52.986  1.00  0.00     0.001 A 
HETATM   25  C18 UNL     1      21.342  -0.299  51.765  1.00  0.00     0.000 A 
HETATM   26  C19 UNL     1      21.337   0.345  50.559  1.00  0.00     0.001 A 
HETATM   27  C20 UNL     1      21.841   1.595  50.532  1.00  0.00     0.012 A 
ENDBRANCH   5  22
TORSDOF 3
ENDMDL
MODEL 5
REMARK VINA RESULT:      -7.0      2.346      4.716
REMARK  3 active torsions:
REMARK  status: ('A' for Active; 'I' for Inactive)
REMARK    1  A    between atoms: C5_7  and  C6_8 
REMARK    2  A    between atoms: C6_8  and  C7_9 
REMARK    3  A    between atoms: N2_20  and  C15_21 
ROOT
HETATM    1  C6  UNL     1      23.679   2.792  50.690  1.00  0.00     0.068 A 
HETATM    2  C13 UNL     1      23.031   2.376  49.932  1.00  0.00    -0.007 A 
HETATM    3  C14 UNL     1      22.532   2.081  49.351  1.00  0.00     0.054 A 
HETATM    4  N1  UNL     1      21.917   1.743  48.635  1.00  0.00    -0.220 NA
HETATM    5  N2  UNL     1      22.407   3.477  49.220  1.00  0.00     0.000 N 
HETATM    6  H11 UNL     1      21.386   2.401  48.028  1.00  0.00     0.147 HD
ENDROOT
BRANCH   1   7
HETATM    7  C5  UNL     1      22.754   3.623  51.719  1.00  0.00     0.196 C 
HETATM    8  C2  UNL     1      21.872   2.543  52.278  1.00  0.00     0.067 C 
HETATM    9  C1  UNL     1      20.604   2.235  52.465  1.00  0.00     0.049 C 
HETATM   10  O1  UNL     1      22.669   1.514  52.771  1.00  0.00    -0.351 OA
HETATM   11  C3  UNL     1      23.998   1.717  53.160  1.00  0.00     0.201 C 
HETATM   12  C4  UNL     1      24.453   3.134  53.205  1.00  0.00     0.195 C 
HETATM   13  O2  UNL     1      23.550   4.044  52.734  1.00  0.00    -0.376 OA
ENDBRANCH   1   7
BRANCH   1  14
HETATM   14  C7  UNL     1      24.680   3.909  50.213  1.00  0.00    -0.039 A 
HETATM   15  C8  UNL     1      25.698   3.150  49.611  1.00  0.00     0.010 A 
HETATM   16  C9  UNL     1      26.800   3.807  49.050  1.00  0.00     0.026 A 
HETATM   17  C10 UNL     1      26.885   5.199  49.087  1.00  0.00     0.055 A 
HETATM   18 CL1  UNL     1      28.174   6.153  48.441  1.00  0.00    -0.083 Cl
HETATM   19  C11 UNL     1      25.857   5.873  49.690  1.00  0.00     0.056 A 
HETATM   20 CL2  UNL     1      25.731   7.631  49.865  1.00  0.00    -0.083 Cl
HETATM   21  C12 UNL     1      24.762   5.270  50.252  1.00  0.00     0.034 A 
ENDBRANCH   1  14
BRANCH   5  22
HETATM   22  C15 UNL     1      22.144   4.910  48.874  1.00  0.00    -0.026 A 
HETATM   23  C16 UNL     1      22.755   5.347  47.683  1.00  0.00     0.012 A 
HETATM   24  C17 UNL     1      22.492   6.619  47.338  1.00  0.00     0.001 A 
HETATM   25  C18 UNL     1      21.672   7.282  48.204  1.00  0.00     0.000 A 
HETATM   26  C19 UNL     1      21.080   6.856  49.360  1.00  0.00     0.001 A 
HETATM   27  C20 UNL     1      21.322   5.584  49.737  1.00  0.00     0.012 A 
ENDBRANCH   5  22
TORSDOF 3
ENDMDL
MODEL 6
REMARK VINA RESULT:      -7.0      8.106     10.809
REMARK  3 active torsions:
REMARK  status: ('A' for Active; 'I' for Inactive)
REMARK    1  A    between atoms: C5_7  and  C6_8 
REMARK    2  A    between atoms: C6_8  and  C7_9 
REMARK    3  A    between atoms: N2_20  and  C15_21 
ROOT
HETATM    1  C6  UNL     1      31.356   5.552  48.190  1.00  0.00     0.068 A 
HETATM    2  C13 UNL     1      31.596   5.774  49.220  1.00  0.00    -0.007 A 
HETATM    3  C14 UNL     1      31.780   5.964  49.997  1.00  0.00     0.054 A 
HETATM    4  N1  UNL     1      32.006   6.220  50.940  1.00  0.00    -0.220 NA
HETATM    5  N2  UNL     1      31.734   7.214  49.350  1.00  0.00     0.000 N 
HETATM    6  H11 UNL     1      32.141   7.216  51.209  1.00  0.00     0.147 HD
ENDROOT
BRANCH   1   7
HETATM    7  C5  UNL     1      32.598   6.042  47.284  1.00  0.00     0.196 C 
HETATM    8  C2  UNL     1      33.742   5.285  47.898  1.00  0.00     0.067 C 
HETATM    9  C1  UNL     1      34.942   5.462  48.415  1.00  0.00     0.049 C 
HETATM   10  O1  UNL     1      33.426   3.930  47.929  1.00  0.00    -0.351 OA
HETATM   11  C3  UNL     1      32.487   3.360  47.062  1.00  0.00     0.201 C 
HETATM   12  C4  UNL     1      31.989   4.242  45.971  1.00  0.00     0.195 C 
HETATM   13  O2  UNL     1      32.418   5.538  46.038  1.00  0.00    -0.376 OA
ENDBRANCH   1   7
BRANCH   1  14
HETATM   14  C7  UNL     1      30.175   6.379  47.557  1.00  0.00    -0.039 A 
HETATM   15  C8  UNL     1      29.077   5.949  48.322  1.00  0.00     0.010 A 
HETATM   16  C9  UNL     1      27.808   6.477  48.052  1.00  0.00     0.026 A 
HETATM   17  C10 UNL     1      27.637   7.418  47.036  1.00  0.00     0.055 A 
HETATM   18 CL1  UNL     1      26.143   8.159  46.582  1.00  0.00    -0.083 Cl
HETATM   19  C11 UNL     1      28.751   7.788  46.332  1.00  0.00     0.056 A 
HETATM   20 CL2  UNL     1      28.797   8.957  45.002  1.00  0.00    -0.083 Cl
HETATM   21  C12 UNL     1      30.010   7.297  46.563  1.00  0.00     0.034 A 
ENDBRANCH   1  14
BRANCH   5  22
HETATM   22  C15 UNL     1      31.705   8.638  48.892  1.00  0.00    -0.026 A 
HETATM   23  C16 UNL     1      32.719   8.981  47.977  1.00  0.00     0.012 A 
HETATM   24  C17 UNL     1      32.679  10.246  47.524  1.00  0.00     0.001 A 
HETATM   25  C18 UNL     1      31.658  10.995  48.029  1.00  0.00     0.000 A 
HETATM   26  C19 UNL     1      30.675  10.662  48.919  1.00  0.00     0.001 A 
HETATM   27  C20 UNL     1      30.683   9.400  49.394  1.00  0.00     0.012 A 
ENDBRANCH   5  22
TORSDOF 3
ENDMDL
MODEL 7
REMARK VINA RESULT:      -6.9      8.519     11.012
REMARK  3 active torsions:
REMARK  status: ('A' for Active; 'I' for Inactive)
REMARK    1  A    between atoms: C5_7  and  C6_8 
REMARK    2  A    between atoms: C6_8  and  C7_9 
REMARK    3  A    between atoms: N2_20  and  C15_21 
ROOT
HETATM    1  C6  UNL     1      31.019   8.178  47.677  1.00  0.00     0.068 A 
HETATM    2  C13 UNL     1      31.234   7.709  48.627  1.00  0.00    -0.007 A 
HETATM    3  C14 UNL     1      31.406   7.334  49.336  1.00  0.00     0.054 A 
HETATM    4  N1  UNL     1      31.627   6.859  50.192  1.00  0.00    -0.220 NA
HETATM    5  N2  UNL     1      31.961   6.478  48.366  1.00  0.00     0.000 N 
HETATM    6  H11 UNL     1      32.147   5.958  50.187  1.00  0.00     0.147 HD
ENDROOT
BRANCH   1   7
HETATM    7  C5  UNL     1      30.069   7.177  46.842  1.00  0.00     0.196 C 
HETATM    8  C2  UNL     1      28.852   7.106  47.721  1.00  0.00     0.067 C 
HETATM    9  C1  UNL     1      28.062   6.243  48.328  1.00  0.00     0.049 C 
HETATM   10  O1  UNL     1      28.403   8.398  47.982  1.00  0.00    -0.351 OA
HETATM   11  C3  UNL     1      28.699   9.477  47.142  1.00  0.00     0.201 C 
HETATM   12  C4  UNL     1      29.352   9.134  45.848  1.00  0.00     0.195 C 
HETATM   13  O2  UNL     1      29.696   7.820  45.707  1.00  0.00    -0.376 OA
ENDBRANCH   1   7
BRANCH   1  14
HETATM   14  C7  UNL     1      32.234   8.337  46.689  1.00  0.00    -0.039 A 
HETATM   15  C8  UNL     1      32.980   9.356  47.306  1.00  0.00     0.010 A 
HETATM   16  C9  UNL     1      34.170   9.789  46.709  1.00  0.00     0.026 A 
HETATM   17  C10 UNL     1      34.610   9.215  45.515  1.00  0.00     0.055 A 
HETATM   18 CL1  UNL     1      36.050   9.638  44.658  1.00  0.00    -0.083 Cl
HETATM   19  C11 UNL     1      33.832   8.229  44.971  1.00  0.00     0.056 A 
HETATM   20 CL2  UNL     1      34.170   7.350  43.471  1.00  0.00    -0.083 Cl
HETATM   21  C12 UNL     1      32.661   7.775  45.522  1.00  0.00     0.034 A 
ENDBRANCH   1  14
BRANCH   5  22
HETATM   22  C15 UNL     1      32.650   5.447  47.527  1.00  0.00    -0.026 A 
HETATM   23  C16 UNL     1      34.053   5.556  47.500  1.00  0.00     0.012 A 
HETATM   24  C17 UNL     1      34.688   4.610  46.786  1.00  0.00     0.001 A 
HETATM   25  C18 UNL     1      33.862   3.695  46.200  1.00  0.00     0.000 A 
HETATM   26  C19 UNL     1      32.499   3.592  46.226  1.00  0.00     0.001 A 
HETATM   27  C20 UNL     1      31.829   4.524  46.934  1.00  0.00     0.012 A 
ENDBRANCH   5  22
TORSDOF 3
ENDMDL
MODEL 8
REMARK VINA RESULT:      -6.8      2.165      4.366
REMARK  3 active torsions:
REMARK  status: ('A' for Active; 'I' for Inactive)
REMARK    1  A    between atoms: C5_7  and  C6_8 
REMARK    2  A    between atoms: C6_8  and  C7_9 
REMARK    3  A    between atoms: N2_20  and  C15_21 
ROOT
HETATM    1  C6  UNL     1      21.156   1.900  50.147  1.00  0.00     0.068 A 
HETATM    2  C13 UNL     1      21.516   1.599  49.173  1.00  0.00    -0.007 A 
HETATM    3  C14 UNL     1      21.800   1.390  48.432  1.00  0.00     0.054 A 
HETATM    4  N1  UNL     1      22.161   1.155  47.526  1.00  0.00    -0.220 NA
HETATM    5  N2  UNL     1      22.445   2.612  48.704  1.00  0.00     0.000 N 
HETATM    6  H11 UNL     1      22.841   1.775  47.041  1.00  0.00     0.147 HD
ENDROOT
BRANCH   1   7
HETATM    7  C5  UNL     1      20.363   3.293  49.964  1.00  0.00     0.196 C 
HETATM    8  C2  UNL     1      19.238   2.887  49.054  1.00  0.00     0.067 C 
HETATM    9  C1  UNL     1      18.665   3.207  47.910  1.00  0.00     0.049 C 
HETATM   10  O1  UNL     1      18.570   1.801  49.611  1.00  0.00    -0.351 OA
HETATM   11  C3  UNL     1      18.603   1.525  50.983  1.00  0.00     0.201 C 
HETATM   12  C4  UNL     1      19.228   2.569  51.841  1.00  0.00     0.195 C 
HETATM   13  O2  UNL     1      19.805   3.604  51.161  1.00  0.00    -0.376 OA
ENDBRANCH   1   7
BRANCH   1  14
HETATM   14  C7  UNL     1      22.255   2.312  51.196  1.00  0.00    -0.039 A 
HETATM   15  C8  UNL     1      22.967   1.112  51.359  1.00  0.00     0.010 A 
HETATM   16  C9  UNL     1      24.055   1.077  52.240  1.00  0.00     0.026 A 
HETATM   17  C10 UNL     1      24.426   2.221  52.948  1.00  0.00     0.055 A 
HETATM   18 CL1  UNL     1      25.738   2.338  54.068  1.00  0.00    -0.083 Cl
HETATM   19  C11 UNL     1      23.686   3.353  52.740  1.00  0.00     0.056 A 
HETATM   20 CL2  UNL     1      23.953   4.924  53.514  1.00  0.00    -0.083 Cl
HETATM   21  C12 UNL     1      22.615   3.431  51.888  1.00  0.00     0.034 A 
ENDBRANCH   1  14
BRANCH   5  22
HETATM   22  C15 UNL     1      23.263   3.863  48.787  1.00  0.00    -0.026 A 
HETATM   23  C16 UNL     1      24.600   3.664  49.182  1.00  0.00     0.012 A 
HETATM   24  C17 UNL     1      25.357   4.774  49.219  1.00  0.00     0.001 A 
HETATM   25  C18 UNL     1      24.702   5.917  48.867  1.00  0.00     0.000 A 
HETATM   26  C19 UNL     1      23.404   6.109  48.485  1.00  0.00     0.001 A 
HETATM   27  C20 UNL     1      22.614   5.017  48.436  1.00  0.00     0.012 A 
ENDBRANCH   5  22
TORSDOF 3
ENDMDL
MODEL 9
REMARK VINA RESULT:      -6.6      6.986      9.633
REMARK  3 active torsions:
REMARK  status: ('A' for Active; 'I' for Inactive)
REMARK    1  A    between atoms: C5_7  and  C6_8 
REMARK    2  A    between atoms: C6_8  and  C7_9 
REMARK    3  A    between atoms: N2_20  and  C15_21 
ROOT
HETATM    1  C6  UNL     1      26.501   9.462  48.326  1.00  0.00     0.068 A 
HETATM    2  C13 UNL     1      26.869   9.407  49.341  1.00  0.00    -0.007 A 
HETATM    3  C14 UNL     1      27.170   9.371  50.104  1.00  0.00     0.054 A 
HETATM    4  N1  UNL     1      27.557   9.333  51.028  1.00  0.00    -0.220 NA
HETATM    5  N2  UNL     1      28.268   9.799  49.334  1.00  0.00     0.000 N 
HETATM    6  H11 UNL     1      28.552   9.583  51.204  1.00  0.00     0.147 HD
ENDROOT
BRANCH   1   7
HETATM    7  C5  UNL     1      27.338   8.399  47.446  1.00  0.00     0.196 C 
HETATM    8  C2  UNL     1      26.919   7.094  48.063  1.00  0.00     0.067 C 
HETATM    9  C1  UNL     1      27.413   5.996  48.600  1.00  0.00     0.049 C 
HETATM   10  O1  UNL     1      25.529   7.019  48.066  1.00  0.00    -0.351 OA
HETATM   11  C3  UNL     1      24.737   7.753  47.177  1.00  0.00     0.201 C 
HETATM   12  C4  UNL     1      25.467   8.468  46.094  1.00  0.00     0.195 C 
HETATM   13  O2  UNL     1      26.829   8.420  46.189  1.00  0.00    -0.376 OA
ENDBRANCH   1   7
BRANCH   1  14
HETATM   14  C7  UNL     1      26.800  10.799  47.550  1.00  0.00    -0.039 A 
HETATM   15  C8  UNL     1      25.954  11.710  48.205  1.00  0.00     0.010 A 
HETATM   16  C9  UNL     1      25.936  13.047  47.787  1.00  0.00     0.026 A 
HETATM   17  C10 UNL     1      26.748  13.468  46.734  1.00  0.00     0.055 A 
HETATM   18 CL1  UNL     1      26.840  15.075  46.104  1.00  0.00    -0.083 Cl
HETATM   19  C11 UNL     1      27.546  12.525  46.142  1.00  0.00     0.056 A 
HETATM   20 CL2  UNL     1      28.659  12.805  44.794  1.00  0.00    -0.083 Cl
HETATM   21  C12 UNL     1      27.594  11.207  46.519  1.00  0.00     0.034 A 
ENDBRANCH   1  14
BRANCH   5  22
HETATM   22  C15 UNL     1      29.549  10.289  48.735  1.00  0.00    -0.026 A 
HETATM   23  C16 UNL     1      29.827  11.648  48.976  1.00  0.00     0.012 A 
HETATM   24  C17 UNL     1      30.996  12.090  48.480  1.00  0.00     0.001 A 
HETATM   25  C18 UNL     1      31.725  11.144  47.821  1.00  0.00     0.000 A 
HETATM   26  C19 UNL     1      31.453   9.825  47.587  1.00  0.00     0.001 A 
HETATM   27  C20 UNL     1      30.289   9.346  48.070  1.00  0.00     0.012 A 
ENDBRANCH   5  22
TORSDOF 3
ENDMDL
