MODEL 1
REMARK VINA RESULT:      -7.9      0.000      0.000
REMARK  1 active torsions:
REMARK  status: ('A' for Active; 'I' for Inactive)
REMARK    1  A    between atoms: O1_2  and  C2_3 
ROOT
HETATM    1  C2  UNL     1      23.062   4.353  51.210  1.00  0.00     0.055 C 
HETATM    2  C3  UNL     1      21.754   4.241  51.528  1.00  0.00     0.051 C 
HETATM    3  C4  UNL     1      20.463   4.412  52.091  1.00  0.00     0.113 C 
HETATM    4  N1  UNL     1      19.799   3.519  51.549  1.00  0.00    -0.295 NA
HETATM    5  C5  UNL     1      18.523   2.960  51.493  1.00  0.00     0.215 C 
HETATM    6  C6  UNL     1      18.509   1.656  50.712  1.00  0.00     0.096 C 
HETATM    7  C7  UNL     1      19.209   0.734  49.944  1.00  0.00     0.038 C 
HETATM    8  C8  UNL     1      20.583   1.069  49.747  1.00  0.00     0.027 C 
HETATM    9  C9  UNL     1      21.780   0.873  49.274  1.00  0.00     0.134 C 
HETATM   10  O2  UNL     1      22.709   1.777  49.573  1.00  0.00    -0.362 OA
HETATM   11  C10 UNL     1      23.397   2.855  49.170  1.00  0.00     0.187 C 
HETATM   12  C11 UNL     1      23.995   3.643  50.270  1.00  0.00     0.095 C 
HETATM   13  C12 UNL     1      25.050   2.911  51.041  1.00  0.00     0.287 C 
HETATM   14  N2  UNL     1      24.631   2.180  52.182  1.00  0.00     0.109 N 
HETATM   15  C13 UNL     1      25.715   2.425  53.189  1.00  0.00     0.300 C 
HETATM   16  C14 UNL     1      27.014   1.953  52.569  1.00  0.00     0.198 C 
HETATM   17  O3  UNL     1      26.874   0.868  51.750  1.00  0.00    -0.386 OA
HETATM   18  C15 UNL     1      25.819   0.051  52.092  1.00  0.00     0.216 C 
HETATM   19  C16 UNL     1      24.475   0.784  52.138  1.00  0.00     0.332 C 
HETATM   20  S1  UNL     1      23.670   0.094  53.636  1.00  0.00     0.022 SA
HETATM   21  C17 UNL     1      21.978  -0.136  53.408  1.00  0.00     0.145 A 
HETATM   22  F1  UNL     1      22.808  -0.633  54.340  1.00  0.00    -0.294 F 
HETATM   23  C18 UNL     1      20.746  -0.182  53.156  1.00  0.00     0.050 C 
HETATM   24  C19 UNL     1      19.405  -0.711  53.227  1.00  0.00     0.022 C 
HETATM   25  C20 UNL     1      18.315  -0.281  52.672  1.00  0.00     0.114 C 
HETATM   26  N3  UNL     1      17.152   0.257  52.024  1.00  0.00    -0.272 N 
HETATM   27  O4  UNL     1      17.123   1.234  50.935  1.00  0.00    -0.241 OA
HETATM   28  H26 UNL     1      16.664  -0.361  52.695  1.00  0.00     0.193 HD
ENDROOT
BRANCH   1  29
HETATM   29  O1  UNL     1      23.537   5.396  51.994  1.00  0.00    -0.360 OA
HETATM   30  C1  UNL     1      24.061   6.564  51.381  1.00  0.00     0.209 C 
ENDBRANCH   1  29
TORSDOF 1
ENDMDL
MODEL 2
REMARK VINA RESULT:      -7.8      4.038      7.407
REMARK  1 active torsions:
REMARK  status: ('A' for Active; 'I' for Inactive)
REMARK    1  A    between atoms: O1_2  and  C2_3 
ROOT
HETATM    1  C2  UNL     1      21.365   4.862  49.034  1.00  0.00     0.055 C 
HETATM    2  C3  UNL     1      21.992   5.552  48.058  1.00  0.00     0.051 C 
HETATM    3  C4  UNL     1      22.477   6.024  46.811  1.00  0.00     0.113 C 
HETATM    4  N1  UNL     1      23.208   6.969  47.132  1.00  0.00    -0.295 NA
HETATM    5  C5  UNL     1      24.046   7.955  46.612  1.00  0.00     0.215 C 
HETATM    6  C6  UNL     1      24.828   8.668  47.703  1.00  0.00     0.096 C 
HETATM    7  C7  UNL     1      25.073   8.836  49.060  1.00  0.00     0.038 C 
HETATM    8  C8  UNL     1      24.288   7.990  49.899  1.00  0.00     0.027 C 
HETATM    9  C9  UNL     1      23.890   7.522  51.047  1.00  0.00     0.134 C 
HETATM   10  O2  UNL     1      22.967   6.564  51.029  1.00  0.00    -0.362 OA
HETATM   11  C10 UNL     1      21.669   6.254  51.153  1.00  0.00     0.187 C 
HETATM   12  C11 UNL     1      21.286   4.968  50.531  1.00  0.00     0.095 C 
HETATM   13  C12 UNL     1      21.921   3.770  51.171  1.00  0.00     0.287 C 
HETATM   14  N2  UNL     1      23.157   3.328  50.636  1.00  0.00     0.109 N 
HETATM   15  C13 UNL     1      23.050   1.832  50.663  1.00  0.00     0.300 C 
HETATM   16  C14 UNL     1      22.795   1.429  52.100  1.00  0.00     0.198 C 
HETATM   17  O3  UNL     1      23.412   2.233  53.018  1.00  0.00    -0.386 OA
HETATM   18  C15 UNL     1      24.573   2.810  52.554  1.00  0.00     0.216 C 
HETATM   19  C16 UNL     1      24.375   3.624  51.271  1.00  0.00     0.332 C 
HETATM   20  S1  UNL     1      25.847   3.189  50.265  1.00  0.00     0.022 SA
HETATM   21  C17 UNL     1      26.457   4.548  49.399  1.00  0.00     0.145 A 
HETATM   22  F1  UNL     1      27.028   3.364  49.680  1.00  0.00    -0.294 F 
HETATM   23  C18 UNL     1      26.761   5.584  48.754  1.00  0.00     0.050 C 
HETATM   24  C19 UNL     1      27.648   6.520  48.105  1.00  0.00     0.022 C 
HETATM   25  C20 UNL     1      27.374   7.621  47.478  1.00  0.00     0.114 C 
HETATM   26  N3  UNL     1      26.990   8.828  46.800  1.00  0.00    -0.272 N 
HETATM   27  O4  UNL     1      25.702   9.515  46.886  1.00  0.00    -0.241 OA
HETATM   28  H26 UNL     1      27.952   8.756  46.423  1.00  0.00     0.193 HD
ENDROOT
BRANCH   1  29
HETATM   29  O1  UNL     1      20.668   3.857  48.379  1.00  0.00    -0.360 OA
HETATM   30  C1  UNL     1      19.249   3.876  48.353  1.00  0.00     0.209 C 
ENDBRANCH   1  29
TORSDOF 1
ENDMDL
MODEL 3
REMARK VINA RESULT:      -7.7      7.660     10.044
REMARK  1 active torsions:
REMARK  status: ('A' for Active; 'I' for Inactive)
REMARK    1  A    between atoms: O1_2  and  C2_3 
ROOT
HETATM    1  C2  UNL     1      29.355  10.662  48.461  1.00  0.00     0.055 C 
HETATM    2  C3  UNL     1      28.460  10.066  49.278  1.00  0.00     0.051 C 
HETATM    3  C4  UNL     1      27.738   9.593  50.404  1.00  0.00     0.113 C 
HETATM    4  N1  UNL     1      26.825   8.931  49.896  1.00  0.00    -0.295 NA
HETATM    5  C5  UNL     1      25.711   8.151  50.204  1.00  0.00     0.215 C 
HETATM    6  C6  UNL     1      25.164   7.434  48.980  1.00  0.00     0.096 C 
HETATM    7  C7  UNL     1      25.234   7.221  47.609  1.00  0.00     0.038 C 
HETATM    8  C8  UNL     1      26.267   7.962  46.960  1.00  0.00     0.027 C 
HETATM    9  C9  UNL     1      26.961   8.346  45.928  1.00  0.00     0.134 C 
HETATM   10  O2  UNL     1      27.954   9.205  46.146  1.00  0.00    -0.362 OA
HETATM   11  C10 UNL     1      28.360  10.482  46.116  1.00  0.00     0.187 C 
HETATM   12  C11 UNL     1      29.531  10.771  46.972  1.00  0.00     0.095 C 
HETATM   13  C12 UNL     1      30.785  10.069  46.545  1.00  0.00     0.287 C 
HETATM   14  N2  UNL     1      31.045   8.798  47.118  1.00  0.00     0.109 N 
HETATM   15  C13 UNL     1      32.524   8.808  47.368  1.00  0.00     0.300 C 
HETATM   16  C14 UNL     1      33.199   9.059  46.035  1.00  0.00     0.198 C 
HETATM   17  O3  UNL     1      32.542   8.509  44.970  1.00  0.00    -0.386 OA
HETATM   18  C15 UNL     1      31.819   7.381  45.290  1.00  0.00     0.216 C 
HETATM   19  C16 UNL     1      30.796   7.613  46.407  1.00  0.00     0.332 C 
HETATM   20  S1  UNL     1      30.948   6.100  47.435  1.00  0.00     0.022 SA
HETATM   21  C17 UNL     1      29.419   5.566  48.022  1.00  0.00     0.145 A 
HETATM   22  F1  UNL     1      30.596   4.924  47.946  1.00  0.00    -0.294 F 
HETATM   23  C18 UNL     1      28.265   5.321  48.458  1.00  0.00     0.050 C 
HETATM   24  C19 UNL     1      27.173   4.486  48.901  1.00  0.00     0.022 C 
HETATM   25  C20 UNL     1      25.994   4.822  49.323  1.00  0.00     0.114 C 
HETATM   26  N3  UNL     1      24.709   5.273  49.780  1.00  0.00    -0.272 N 
HETATM   27  O4  UNL     1      24.129   6.604  49.605  1.00  0.00    -0.241 OA
HETATM   28  H26 UNL     1      24.652   4.303  50.138  1.00  0.00     0.193 HD
ENDROOT
BRANCH   1  29
HETATM   29  O1  UNL     1      30.263  11.282  49.308  1.00  0.00    -0.360 OA
HETATM   30  C1  UNL     1      30.551  12.663  49.153  1.00  0.00     0.209 C 
ENDBRANCH   1  29
TORSDOF 1
ENDMDL
MODEL 4
REMARK VINA RESULT:      -7.7      9.191     12.445
REMARK  1 active torsions:
REMARK  status: ('A' for Active; 'I' for Inactive)
REMARK    1  A    between atoms: O1_2  and  C2_3 
ROOT
HETATM    1  C2  UNL     1      29.900  10.737  46.607  1.00  0.00     0.055 C 
HETATM    2  C3  UNL     1      30.779   9.890  46.030  1.00  0.00     0.051 C 
HETATM    3  C4  UNL     1      31.530   9.116  45.109  1.00  0.00     0.113 C 
HETATM    4  N1  UNL     1      32.305   8.484  45.838  1.00  0.00    -0.295 NA
HETATM    5  C5  UNL     1      33.334   7.543  45.818  1.00  0.00     0.215 C 
HETATM    6  C6  UNL     1      33.679   7.048  47.213  1.00  0.00     0.096 C 
HETATM    7  C7  UNL     1      33.464   7.140  48.583  1.00  0.00     0.038 C 
HETATM    8  C8  UNL     1      32.481   8.107  48.951  1.00  0.00     0.027 C 
HETATM    9  C9  UNL     1      31.754   8.773  49.802  1.00  0.00     0.134 C 
HETATM   10  O2  UNL     1      30.900   9.665  49.308  1.00  0.00    -0.362 OA
HETATM   11  C10 UNL     1      30.658  10.955  49.035  1.00  0.00     0.187 C 
HETATM   12  C11 UNL     1      29.610  11.177  48.014  1.00  0.00     0.095 C 
HETATM   13  C12 UNL     1      28.246  10.719  48.432  1.00  0.00     0.287 C 
HETATM   14  N2  UNL     1      27.878   9.390  48.101  1.00  0.00     0.109 N 
HETATM   15  C13 UNL     1      26.440   9.503  47.692  1.00  0.00     0.300 C 
HETATM   16  C14 UNL     1      25.689  10.101  48.864  1.00  0.00     0.198 C 
HETATM   17  O3  UNL     1      26.177   9.724  50.084  1.00  0.00    -0.386 OA
HETATM   18  C15 UNL     1      26.777   8.484  50.079  1.00  0.00     0.216 C 
HETATM   19  C16 UNL     1      27.913   8.363  49.059  1.00  0.00     0.332 C 
HETATM   20  S1  UNL     1      27.660   6.692  48.345  1.00  0.00     0.022 SA
HETATM   21  C17 UNL     1      29.155   5.887  48.050  1.00  0.00     0.145 A 
HETATM   22  F1  UNL     1      27.904   5.403  48.123  1.00  0.00    -0.294 F 
HETATM   23  C18 UNL     1      30.302   5.434  47.803  1.00  0.00     0.050 C 
HETATM   24  C19 UNL     1      31.314   4.414  47.660  1.00  0.00     0.022 C 
HETATM   25  C20 UNL     1      32.558   4.526  47.312  1.00  0.00     0.114 C 
HETATM   26  N3  UNL     1      33.924   4.731  46.919  1.00  0.00    -0.272 N 
HETATM   27  O4  UNL     1      34.650   6.001  46.886  1.00  0.00    -0.241 OA
HETATM   28  H26 UNL     1      33.889   3.707  46.772  1.00  0.00     0.193 HD
ENDROOT
BRANCH   1  29
HETATM   29  O1  UNL     1      29.154  11.256  45.557  1.00  0.00    -0.360 OA
HETATM   30  C1  UNL     1      29.123  12.656  45.331  1.00  0.00     0.209 C 
ENDBRANCH   1  29
TORSDOF 1
ENDMDL
MODEL 5
REMARK VINA RESULT:      -7.7      2.245      2.878
REMARK  1 active torsions:
REMARK  status: ('A' for Active; 'I' for Inactive)
REMARK    1  A    between atoms: O1_2  and  C2_3 
ROOT
HETATM    1  C2  UNL     1      21.329   5.424  49.174  1.00  0.00     0.055 C 
HETATM    2  C3  UNL     1      20.413   4.853  49.983  1.00  0.00     0.051 C 
HETATM    3  C4  UNL     1      19.402   4.609  50.949  1.00  0.00     0.113 C 
HETATM    4  N1  UNL     1      19.254   3.381  50.899  1.00  0.00    -0.295 NA
HETATM    5  C5  UNL     1      18.533   2.324  51.450  1.00  0.00     0.215 C 
HETATM    6  C6  UNL     1      19.084   0.974  51.020  1.00  0.00     0.096 C 
HETATM    7  C7  UNL     1      19.997   0.265  50.248  1.00  0.00     0.038 C 
HETATM    8  C8  UNL     1      20.868   1.092  49.477  1.00  0.00     0.027 C 
HETATM    9  C9  UNL     1      21.835   1.307  48.633  1.00  0.00     0.134 C 
HETATM   10  O2  UNL     1      22.139   2.573  48.361  1.00  0.00    -0.362 OA
HETATM   11  C10 UNL     1      22.002   3.604  47.515  1.00  0.00     0.187 C 
HETATM   12  C11 UNL     1      22.274   4.928  48.115  1.00  0.00     0.095 C 
HETATM   13  C12 UNL     1      23.693   5.116  48.556  1.00  0.00     0.287 C 
HETATM   14  N2  UNL     1      24.009   4.768  49.894  1.00  0.00     0.109 N 
HETATM   15  C13 UNL     1      24.955   5.845  50.336  1.00  0.00     0.300 C 
HETATM   16  C14 UNL     1      26.128   5.829  49.378  1.00  0.00     0.198 C 
HETATM   17  O3  UNL     1      26.448   4.583  48.916  1.00  0.00    -0.386 OA
HETATM   18  C15 UNL     1      26.132   3.570  49.795  1.00  0.00     0.216 C 
HETATM   19  C16 UNL     1      24.655   3.558  50.200  1.00  0.00     0.332 C 
HETATM   20  S1  UNL     1      24.716   3.199  51.999  1.00  0.00     0.022 SA
HETATM   21  C17 UNL     1      23.440   2.150  52.488  1.00  0.00     0.145 A 
HETATM   22  F1  UNL     1      24.582   2.485  53.113  1.00  0.00    -0.294 F 
HETATM   23  C18 UNL     1      22.425   1.451  52.742  1.00  0.00     0.050 C 
HETATM   24  C19 UNL     1      21.662   0.436  53.428  1.00  0.00     0.022 C 
HETATM   25  C20 UNL     1      20.429   0.071  53.256  1.00  0.00     0.114 C 
HETATM   26  N3  UNL     1      19.059  -0.278  53.007  1.00  0.00    -0.272 N 
HETATM   27  O4  UNL     1      18.257   0.082  51.837  1.00  0.00    -0.241 OA
HETATM   28  H26 UNL     1      19.156  -0.745  53.926  1.00  0.00     0.193 HD
ENDROOT
BRANCH   1  29
HETATM   29  O1  UNL     1      21.294   6.777  49.484  1.00  0.00    -0.360 OA
HETATM   30  C1  UNL     1      21.610   7.214  50.797  1.00  0.00     0.209 C 
ENDBRANCH   1  29
TORSDOF 1
ENDMDL
MODEL 6
REMARK VINA RESULT:      -7.4      7.116     11.035
REMARK  1 active torsions:
REMARK  status: ('A' for Active; 'I' for Inactive)
REMARK    1  A    between atoms: O1_2  and  C2_3 
ROOT
HETATM    1  C2  UNL     1      26.356   9.735  46.423  1.00  0.00     0.055 C 
HETATM    2  C3  UNL     1      27.467   9.313  45.783  1.00  0.00     0.051 C 
HETATM    3  C4  UNL     1      28.394   8.834  44.821  1.00  0.00     0.113 C 
HETATM    4  N1  UNL     1      29.454   8.774  45.455  1.00  0.00    -0.295 NA
HETATM    5  C5  UNL     1      30.802   8.436  45.342  1.00  0.00     0.215 C 
HETATM    6  C6  UNL     1      31.496   8.407  46.694  1.00  0.00     0.096 C 
HETATM    7  C7  UNL     1      31.417   8.622  48.064  1.00  0.00     0.038 C 
HETATM    8  C8  UNL     1      30.135   9.063  48.508  1.00  0.00     0.027 C 
HETATM    9  C9  UNL     1      29.274   9.446  49.407  1.00  0.00     0.134 C 
HETATM   10  O2  UNL     1      28.045   9.736  48.991  1.00  0.00    -0.362 OA
HETATM   11  C10 UNL     1      27.174  10.695  48.643  1.00  0.00     0.187 C 
HETATM   12  C11 UNL     1      26.046  10.223  47.810  1.00  0.00     0.095 C 
HETATM   13  C12 UNL     1      25.136   9.259  48.509  1.00  0.00     0.287 C 
HETATM   14  N2  UNL     1      25.430   7.878  48.379  1.00  0.00     0.109 N 
HETATM   15  C13 UNL     1      24.085   7.233  48.227  1.00  0.00     0.300 C 
HETATM   16  C14 UNL     1      23.273   7.601  49.451  1.00  0.00     0.198 C 
HETATM   17  O3  UNL     1      24.014   7.712  50.594  1.00  0.00    -0.386 OA
HETATM   18  C15 UNL     1      25.139   6.916  50.602  1.00  0.00     0.216 C 
HETATM   19  C16 UNL     1      26.068   7.168  49.410  1.00  0.00     0.332 C 
HETATM   20  S1  UNL     1      26.587   5.478  48.918  1.00  0.00     0.022 SA
HETATM   21  C17 UNL     1      28.241   5.428  48.438  1.00  0.00     0.145 A 
HETATM   22  F1  UNL     1      27.402   4.436  48.781  1.00  0.00    -0.294 F 
HETATM   23  C18 UNL     1      29.428   5.530  48.034  1.00  0.00     0.050 C 
HETATM   24  C19 UNL     1      30.786   5.094  47.811  1.00  0.00     0.022 C 
HETATM   25  C20 UNL     1      31.769   5.713  47.235  1.00  0.00     0.114 C 
HETATM   26  N3  UNL     1      32.808   6.462  46.586  1.00  0.00    -0.272 N 
HETATM   27  O4  UNL     1      32.812   7.897  46.300  1.00  0.00    -0.241 OA
HETATM   28  H26 UNL     1      33.262   5.533  46.547  1.00  0.00     0.193 HD
ENDROOT
BRANCH   1  29
HETATM   29  O1  UNL     1      25.341   9.656  45.480  1.00  0.00    -0.360 OA
HETATM   30  C1  UNL     1      24.781  10.841  44.937  1.00  0.00     0.209 C 
ENDBRANCH   1  29
TORSDOF 1
ENDMDL
MODEL 7
REMARK VINA RESULT:      -7.1      1.423      1.543
REMARK  1 active torsions:
REMARK  status: ('A' for Active; 'I' for Inactive)
REMARK    1  A    between atoms: O1_2  and  C2_3 
ROOT
HETATM    1  C2  UNL     1      23.467   4.941  50.786  1.00  0.00     0.055 C 
HETATM    2  C3  UNL     1      22.128   5.105  50.745  1.00  0.00     0.051 C 
HETATM    3  C4  UNL     1      20.798   5.559  50.941  1.00  0.00     0.113 C 
HETATM    4  N1  UNL     1      20.129   4.779  50.252  1.00  0.00    -0.295 NA
HETATM    5  C5  UNL     1      18.825   4.474  49.863  1.00  0.00     0.215 C 
HETATM    6  C6  UNL     1      18.747   3.150  49.121  1.00  0.00     0.096 C 
HETATM    7  C7  UNL     1      19.420   2.062  48.578  1.00  0.00     0.038 C 
HETATM    8  C8  UNL     1      20.836   2.111  48.750  1.00  0.00     0.027 C 
HETATM    9  C9  UNL     1      22.048   1.658  48.615  1.00  0.00     0.134 C 
HETATM   10  O2  UNL     1      23.033   2.381  49.142  1.00  0.00    -0.362 OA
HETATM   11  C10 UNL     1      24.007   3.277  48.926  1.00  0.00     0.187 C 
HETATM   12  C11 UNL     1      24.447   4.004  50.136  1.00  0.00     0.095 C 
HETATM   13  C12 UNL     1      25.094   3.132  51.169  1.00  0.00     0.287 C 
HETATM   14  N2  UNL     1      24.254   2.572  52.164  1.00  0.00     0.109 N 
HETATM   15  C13 UNL     1      25.067   2.668  53.421  1.00  0.00     0.300 C 
HETATM   16  C14 UNL     1      26.357   1.914  53.175  1.00  0.00     0.198 C 
HETATM   17  O3  UNL     1      26.216   0.825  52.360  1.00  0.00    -0.386 OA
HETATM   18  C15 UNL     1      24.964   0.252  52.417  1.00  0.00     0.216 C 
HETATM   19  C16 UNL     1      23.833   1.234  52.095  1.00  0.00     0.332 C 
HETATM   20  S1  UNL     1      22.545   0.810  53.332  1.00  0.00     0.022 SA
HETATM   21  C17 UNL     1      20.959   0.898  52.663  1.00  0.00     0.145 A 
HETATM   22  F1  UNL     1      21.400   0.311  53.789  1.00  0.00    -0.294 F 
HETATM   23  C18 UNL     1      19.853   1.076  52.093  1.00  0.00     0.050 C 
HETATM   24  C19 UNL     1      18.460   0.822  51.810  1.00  0.00     0.022 C 
HETATM   25  C20 UNL     1      17.663   1.419  50.980  1.00  0.00     0.114 C 
HETATM   26  N3  UNL     1      16.842   2.129  50.039  1.00  0.00    -0.272 N 
HETATM   27  O4  UNL     1      17.295   3.020  48.971  1.00  0.00    -0.241 OA
HETATM   28  H26 UNL     1      16.081   1.662  50.562  1.00  0.00     0.193 HD
ENDROOT
BRANCH   1  29
HETATM   29  O1  UNL     1      23.926   5.920  51.656  1.00  0.00    -0.360 OA
HETATM   30  C1  UNL     1      24.188   7.230  51.178  1.00  0.00     0.209 C 
ENDBRANCH   1  29
TORSDOF 1
ENDMDL
MODEL 8
REMARK VINA RESULT:      -7.1      5.069      7.921
REMARK  1 active torsions:
REMARK  status: ('A' for Active; 'I' for Inactive)
REMARK    1  A    between atoms: O1_2  and  C2_3 
ROOT
HETATM    1  C2  UNL     1      27.378   7.274  48.245  1.00  0.00     0.055 C 
HETATM    2  C3  UNL     1      27.245   5.982  48.613  1.00  0.00     0.051 C 
HETATM    3  C4  UNL     1      27.371   4.575  48.736  1.00  0.00     0.113 C 
HETATM    4  N1  UNL     1      26.539   4.292  49.607  1.00  0.00    -0.295 NA
HETATM    5  C5  UNL     1      25.997   3.227  50.325  1.00  0.00     0.215 C 
HETATM    6  C6  UNL     1      24.774   3.644  51.125  1.00  0.00     0.096 C 
HETATM    7  C7  UNL     1      23.925   4.665  51.533  1.00  0.00     0.038 C 
HETATM    8  C8  UNL     1      24.267   5.948  51.008  1.00  0.00     0.027 C 
HETATM    9  C9  UNL     1      24.109   7.231  50.855  1.00  0.00     0.134 C 
HETATM   10  O2  UNL     1      24.972   7.862  50.065  1.00  0.00    -0.362 OA
HETATM   11  C10 UNL     1      26.079   8.615  49.987  1.00  0.00     0.187 C 
HETATM   12  C11 UNL     1      26.754   8.574  48.671  1.00  0.00     0.095 C 
HETATM   13  C12 UNL     1      25.943   9.152  47.552  1.00  0.00     0.287 C 
HETATM   14  N2  UNL     1      25.109   8.263  46.827  1.00  0.00     0.109 N 
HETATM   15  C13 UNL     1      25.249   8.713  45.403  1.00  0.00     0.300 C 
HETATM   16  C14 UNL     1      24.829  10.167  45.353  1.00  0.00     0.198 C 
HETATM   17  O3  UNL     1      23.828  10.485  46.228  1.00  0.00    -0.386 OA
HETATM   18  C15 UNL     1      22.990   9.430  46.514  1.00  0.00     0.216 C 
HETATM   19  C16 UNL     1      23.726   8.203  47.063  1.00  0.00     0.332 C 
HETATM   20  S1  UNL     1      22.901   6.803  46.211  1.00  0.00     0.022 SA
HETATM   21  C17 UNL     1      22.707   5.443  47.252  1.00  0.00     0.145 A 
HETATM   22  F1  UNL     1      22.116   5.737  46.081  1.00  0.00    -0.294 F 
HETATM   23  C18 UNL     1      22.694   4.491  48.073  1.00  0.00     0.050 C 
HETATM   24  C19 UNL     1      22.170   3.305  48.708  1.00  0.00     0.022 C 
HETATM   25  C20 UNL     1      22.660   2.604  49.683  1.00  0.00     0.114 C 
HETATM   26  N3  UNL     1      23.266   1.880  50.765  1.00  0.00    -0.272 N 
HETATM   27  O4  UNL     1      24.343   2.342  51.641  1.00  0.00    -0.241 OA
HETATM   28  H26 UNL     1      22.590   1.152  50.472  1.00  0.00     0.193 HD
ENDROOT
BRANCH   1  29
HETATM   29  O1  UNL     1      28.337   7.269  47.241  1.00  0.00    -0.360 OA
HETATM   30  C1  UNL     1      29.596   7.886  47.458  1.00  0.00     0.209 C 
ENDBRANCH   1  29
TORSDOF 1
ENDMDL
MODEL 9
REMARK VINA RESULT:      -6.9      8.318     11.271
REMARK  1 active torsions:
REMARK  status: ('A' for Active; 'I' for Inactive)
REMARK    1  A    between atoms: O1_2  and  C2_3 
ROOT
HETATM    1  C2  UNL     1      31.334   7.192  48.120  1.00  0.00     0.055 C 
HETATM    2  C3  UNL     1      30.228   6.419  48.149  1.00  0.00     0.051 C 
HETATM    3  C4  UNL     1      29.290   5.365  47.996  1.00  0.00     0.113 C 
HETATM    4  N1  UNL     1      28.266   5.820  48.521  1.00  0.00    -0.295 NA
HETATM    5  C5  UNL     1      26.937   5.519  48.814  1.00  0.00     0.215 C 
HETATM    6  C6  UNL     1      26.175   6.734  49.315  1.00  0.00     0.096 C 
HETATM    7  C7  UNL     1      26.204   8.074  49.683  1.00  0.00     0.038 C 
HETATM    8  C8  UNL     1      27.490   8.681  49.562  1.00  0.00     0.027 C 
HETATM    9  C9  UNL     1      28.332   9.670  49.652  1.00  0.00     0.134 C 
HETATM   10  O2  UNL     1      29.589   9.436  49.287  1.00  0.00    -0.362 OA
HETATM   11  C10 UNL     1      30.838   9.150  49.681  1.00  0.00     0.187 C 
HETATM   12  C11 UNL     1      31.692   8.561  48.627  1.00  0.00     0.095 C 
HETATM   13  C12 UNL     1      31.967   9.484  47.479  1.00  0.00     0.287 C 
HETATM   14  N2  UNL     1      31.074   9.435  46.378  1.00  0.00     0.109 N 
HETATM   15  C13 UNL     1      31.967   9.565  45.180  1.00  0.00     0.300 C 
HETATM   16  C14 UNL     1      32.726  10.868  45.330  1.00  0.00     0.198 C 
HETATM   17  O3  UNL     1      32.009  11.858  45.942  1.00  0.00    -0.386 OA
HETATM   18  C15 UNL     1      30.649  11.754  45.751  1.00  0.00     0.216 C 
HETATM   19  C16 UNL     1      30.075  10.408  46.204  1.00  0.00     0.332 C 
HETATM   20  S1  UNL     1      28.878   9.993  44.877  1.00  0.00     0.022 SA
HETATM   21  C17 UNL     1      27.453   9.255  45.504  1.00  0.00     0.145 A 
HETATM   22  F1  UNL     1      27.688   9.820  44.308  1.00  0.00    -0.294 F 
HETATM   23  C18 UNL     1      26.501   8.654  46.065  1.00  0.00     0.050 C 
HETATM   24  C19 UNL     1      25.129   8.251  46.260  1.00  0.00     0.022 C 
HETATM   25  C20 UNL     1      24.616   7.468  47.157  1.00  0.00     0.114 C 
HETATM   26  N3  UNL     1      24.123   6.591  48.182  1.00  0.00    -0.272 N 
HETATM   27  O4  UNL     1      24.822   6.178  49.399  1.00  0.00    -0.241 OA
HETATM   28  H26 UNL     1      23.293   6.563  47.564  1.00  0.00     0.193 HD
ENDROOT
BRANCH   1  29
HETATM   29  O1  UNL     1      32.285   6.439  47.444  1.00  0.00    -0.360 OA
HETATM   30  C1  UNL     1      33.064   5.483  48.145  1.00  0.00     0.209 C 
ENDBRANCH   1  29
TORSDOF 1
ENDMDL
