MODEL 1
REMARK VINA RESULT:      -8.4      0.000      0.000
REMARK  6 active torsions:
REMARK  status: ('A' for Active; 'I' for Inactive)
REMARK    1  A    between atoms: C1_2  and  O2_3 
REMARK    2  A    between atoms: C1_2  and  C2_4 
REMARK    3  A    between atoms: C3_5  and  C4_6 
REMARK    4  A    between atoms: C4_6  and  N1_7 
REMARK    5  A    between atoms: C11_16  and  N4_17 
REMARK    6  A    between atoms: N4_17  and  C12_18 
ROOT
HETATM    1  N1  UNL     1      23.349   2.330  51.733  1.00  0.00    -0.345 N 
HETATM    2  C5  UNL     1      22.564   2.350  50.559  1.00  0.00    -0.004 A 
HETATM    3  C6  UNL     1      21.939   2.419  49.411  1.00  0.00     0.047 A 
HETATM    4  C7  UNL     1      23.025   3.284  48.927  1.00  0.00     0.056 A 
HETATM    5  C8  UNL     1      22.198   3.939  50.091  1.00  0.00     0.069 A 
HETATM    6  C9  UNL     1      24.357   3.154  49.592  1.00  0.00     0.071 A 
HETATM    7  N2  UNL     1      25.451   3.466  48.906  1.00  0.00    -0.244 NA
HETATM    8  C10 UNL     1      26.679   3.530  49.451  1.00  0.00     0.235 A 
HETATM    9  N3  UNL     1      26.897   3.271  50.793  1.00  0.00    -0.222 NA
HETATM   10  C11 UNL     1      25.764   2.941  51.519  1.00  0.00     0.158 A 
HETATM   11  C18 UNL     1      24.458   2.864  50.968  1.00  0.00     0.106 A 
ENDROOT
BRANCH  10  12
HETATM   12  N4  UNL     1      26.111   2.682  52.853  1.00  0.00    -0.339 N 
HETATM   13  H11 UNL     1      25.855   3.134  53.796  1.00  0.00     0.167 HD
BRANCH  12  14
HETATM   14  C12 UNL     1      26.989   1.547  53.044  1.00  0.00     0.035 A 
HETATM   15  C13 UNL     1      28.280   1.747  53.578  1.00  0.00     0.032 A 
HETATM   16  C14 UNL     1      29.135   0.673  53.740  1.00  0.00     0.046 A 
HETATM   17  C15 UNL     1      28.797  -0.618  53.406  1.00  0.00     0.138 A 
HETATM   18  F1  UNL     1      29.661  -1.651  53.566  1.00  0.00    -0.204 F 
HETATM   19  C16 UNL     1      27.538  -0.827  52.885  1.00  0.00     0.074 A 
HETATM   20 CL1  UNL     1      27.091  -2.442  52.465  1.00  0.00    -0.081 Cl
HETATM   21  C17 UNL     1      26.658   0.243  52.712  1.00  0.00     0.056 A 
ENDBRANCH  12  14
ENDBRANCH  10  12
BRANCH   1  22
HETATM   22  C4  UNL     1      23.072   1.852  53.067  1.00  0.00     0.156 C 
BRANCH  22  23
HETATM   23  C3  UNL     1      22.742   0.438  53.184  1.00  0.00    -0.000 C 
HETATM   24  C2  UNL     1      21.943  -0.054  54.126  1.00  0.00     0.079 C 
BRANCH  24  25
HETATM   25  C1  UNL     1      21.406  -1.343  54.543  1.00  0.00     0.165 C 
HETATM   26  O1  UNL     1      21.915  -2.297  55.153  1.00  0.00    -0.647 OA
BRANCH  25  27
HETATM   27  O2  UNL     1      20.064  -1.573  54.205  1.00  0.00    -0.773 OA
HETATM   28  H1  UNL     1      19.695  -2.520  54.086  1.00  0.00     0.167 HD
ENDBRANCH  25  27
ENDBRANCH  24  25
ENDBRANCH  22  23
ENDBRANCH   1  22
TORSDOF 6
ENDMDL
MODEL 2
REMARK VINA RESULT:      -8.1      3.724      5.562
REMARK  6 active torsions:
REMARK  status: ('A' for Active; 'I' for Inactive)
REMARK    1  A    between atoms: C1_2  and  O2_3 
REMARK    2  A    between atoms: C1_2  and  C2_4 
REMARK    3  A    between atoms: C3_5  and  C4_6 
REMARK    4  A    between atoms: C4_6  and  N1_7 
REMARK    5  A    between atoms: C11_16  and  N4_17 
REMARK    6  A    between atoms: N4_17  and  C12_18 
ROOT
HETATM    1  N1  UNL     1      23.624   2.085  52.724  1.00  0.00    -0.345 N 
HETATM    2  C5  UNL     1      23.095   0.778  52.801  1.00  0.00    -0.004 A 
HETATM    3  C6  UNL     1      22.534  -0.404  52.768  1.00  0.00     0.047 A 
HETATM    4  C7  UNL     1      21.546   0.144  51.827  1.00  0.00     0.056 A 
HETATM    5  C8  UNL     1      21.460   0.801  53.252  1.00  0.00     0.069 A 
HETATM    6  C9  UNL     1      21.954   1.329  51.015  1.00  0.00     0.071 A 
HETATM    7  N2  UNL     1      21.377   1.530  49.836  1.00  0.00    -0.244 NA
HETATM    8  C10 UNL     1      21.558   2.640  49.096  1.00  0.00     0.235 A 
HETATM    9  N3  UNL     1      22.374   3.674  49.519  1.00  0.00    -0.222 NA
HETATM   10  C11 UNL     1      22.984   3.476  50.747  1.00  0.00     0.158 A 
HETATM   11  C18 UNL     1      22.813   2.315  51.546  1.00  0.00     0.106 A 
ENDROOT
BRANCH  10  12
HETATM   12  N4  UNL     1      23.798   4.575  51.058  1.00  0.00    -0.339 N 
HETATM   13  H11 UNL     1      23.750   5.358  51.796  1.00  0.00     0.167 HD
BRANCH  12  14
HETATM   14  C12 UNL     1      24.986   4.704  50.241  1.00  0.00     0.035 A 
HETATM   15  C13 UNL     1      25.874   3.615  50.125  1.00  0.00     0.032 A 
HETATM   16  C14 UNL     1      27.025   3.739  49.369  1.00  0.00     0.046 A 
HETATM   17  C15 UNL     1      27.368   4.890  48.699  1.00  0.00     0.138 A 
HETATM   18  F1  UNL     1      28.509   4.986  47.973  1.00  0.00    -0.204 F 
HETATM   19  C16 UNL     1      26.506   5.961  48.802  1.00  0.00     0.074 A 
HETATM   20 CL1  UNL     1      26.915   7.416  47.964  1.00  0.00    -0.081 Cl
HETATM   21  C17 UNL     1      25.340   5.860  49.562  1.00  0.00     0.056 A 
ENDBRANCH  12  14
ENDBRANCH  10  12
BRANCH   1  22
HETATM   22  C4  UNL     1      24.633   2.762  53.504  1.00  0.00     0.156 C 
BRANCH  22  23
HETATM   23  C3  UNL     1      25.967   2.178  53.467  1.00  0.00    -0.000 C 
HETATM   24  C2  UNL     1      26.357   1.187  54.265  1.00  0.00     0.079 C 
BRANCH  24  25
HETATM   25  C1  UNL     1      27.548   0.383  54.511  1.00  0.00     0.165 C 
HETATM   26  O1  UNL     1      27.789  -0.821  54.332  1.00  0.00    -0.647 OA
BRANCH  25  27
HETATM   27  O2  UNL     1      28.640   1.078  55.052  1.00  0.00    -0.773 OA
HETATM   28  H1  UNL     1      29.418   1.394  54.466  1.00  0.00     0.167 HD
ENDBRANCH  25  27
ENDBRANCH  24  25
ENDBRANCH  22  23
ENDBRANCH   1  22
TORSDOF 6
ENDMDL
MODEL 3
REMARK VINA RESULT:      -8.1      1.303      1.823
REMARK  6 active torsions:
REMARK  status: ('A' for Active; 'I' for Inactive)
REMARK    1  A    between atoms: C1_2  and  O2_3 
REMARK    2  A    between atoms: C1_2  and  C2_4 
REMARK    3  A    between atoms: C3_5  and  C4_6 
REMARK    4  A    between atoms: C4_6  and  N1_7 
REMARK    5  A    between atoms: C11_16  and  N4_17 
REMARK    6  A    between atoms: N4_17  and  C12_18 
ROOT
HETATM    1  N1  UNL     1      23.246   1.724  51.807  1.00  0.00    -0.345 N 
HETATM    2  C5  UNL     1      22.497   1.999  50.641  1.00  0.00    -0.004 A 
HETATM    3  C6  UNL     1      21.908   2.314  49.516  1.00  0.00     0.047 A 
HETATM    4  C7  UNL     1      23.004   3.262  49.264  1.00  0.00     0.056 A 
HETATM    5  C8  UNL     1      22.137   3.651  50.516  1.00  0.00     0.069 A 
HETATM    6  C9  UNL     1      24.314   2.989  49.926  1.00  0.00     0.071 A 
HETATM    7  N2  UNL     1      25.428   3.440  49.359  1.00  0.00    -0.244 NA
HETATM    8  C10 UNL     1      26.638   3.384  49.943  1.00  0.00     0.235 A 
HETATM    9  N3  UNL     1      26.816   2.840  51.203  1.00  0.00    -0.222 NA
HETATM   10  C11 UNL     1      25.663   2.364  51.806  1.00  0.00     0.158 A 
HETATM   11  C18 UNL     1      24.374   2.409  51.211  1.00  0.00     0.106 A 
ENDROOT
BRANCH  10  12
HETATM   12  N4  UNL     1      25.970   1.822  53.062  1.00  0.00    -0.339 N 
HETATM   13  H11 UNL     1      25.765   2.118  54.077  1.00  0.00     0.167 HD
BRANCH  12  14
HETATM   14  C12 UNL     1      26.705   0.575  53.025  1.00  0.00     0.035 A 
HETATM   15  C13 UNL     1      26.053  -0.606  52.613  1.00  0.00     0.032 A 
HETATM   16  C14 UNL     1      26.740  -1.806  52.599  1.00  0.00     0.046 A 
HETATM   17  C15 UNL     1      28.059  -1.925  52.972  1.00  0.00     0.138 A 
HETATM   18  F1  UNL     1      28.705  -3.117  52.959  1.00  0.00    -0.204 F 
HETATM   19  C16 UNL     1      28.708  -0.777  53.374  1.00  0.00     0.074 A 
HETATM   20 CL1  UNL     1      30.367  -0.903  53.840  1.00  0.00    -0.081 Cl
HETATM   21  C17 UNL     1      28.033   0.445  53.397  1.00  0.00     0.056 A 
ENDBRANCH  12  14
ENDBRANCH  10  12
BRANCH   1  22
HETATM   22  C4  UNL     1      22.930   0.970  52.997  1.00  0.00     0.156 C 
BRANCH  22  23
HETATM   23  C3  UNL     1      21.910  -0.059  52.850  1.00  0.00    -0.000 C 
HETATM   24  C2  UNL     1      20.659   0.081  53.277  1.00  0.00     0.079 C 
BRANCH  24  25
HETATM   25  C1  UNL     1      19.419  -0.686  53.308  1.00  0.00     0.165 C 
HETATM   26  O1  UNL     1      18.323  -0.516  52.752  1.00  0.00    -0.647 OA
BRANCH  25  27
HETATM   27  O2  UNL     1      19.445  -1.837  54.110  1.00  0.00    -0.773 OA
HETATM   28  H1  UNL     1      18.641  -2.109  54.682  1.00  0.00     0.167 HD
ENDBRANCH  25  27
ENDBRANCH  24  25
ENDBRANCH  22  23
ENDBRANCH   1  22
TORSDOF 6
ENDMDL
MODEL 4
REMARK VINA RESULT:      -8.0      3.986      6.301
REMARK  6 active torsions:
REMARK  status: ('A' for Active; 'I' for Inactive)
REMARK    1  A    between atoms: C1_2  and  O2_3 
REMARK    2  A    between atoms: C1_2  and  C2_4 
REMARK    3  A    between atoms: C3_5  and  C4_6 
REMARK    4  A    between atoms: C4_6  and  N1_7 
REMARK    5  A    between atoms: C11_16  and  N4_17 
REMARK    6  A    between atoms: N4_17  and  C12_18 
ROOT
HETATM    1  N1  UNL     1      23.545   0.033  53.307  1.00  0.00    -0.345 N 
HETATM    2  C5  UNL     1      22.612  -0.842  53.907  1.00  0.00    -0.004 A 
HETATM    3  C6  UNL     1      21.661  -1.607  54.378  1.00  0.00     0.047 A 
HETATM    4  C7  UNL     1      20.698  -0.794  53.620  1.00  0.00     0.056 A 
HETATM    5  C8  UNL     1      21.421   0.018  54.755  1.00  0.00     0.069 A 
HETATM    6  C9  UNL     1      21.206  -0.072  52.416  1.00  0.00     0.071 A 
HETATM    7  N2  UNL     1      20.360   0.210  51.431  1.00  0.00    -0.244 NA
HETATM    8  C10 UNL     1      20.674   0.985  50.377  1.00  0.00     0.235 A 
HETATM    9  N3  UNL     1      21.927   1.556  50.239  1.00  0.00    -0.222 NA
HETATM   10  C11 UNL     1      22.820   1.268  51.257  1.00  0.00     0.158 A 
HETATM   11  C18 UNL     1      22.515   0.452  52.379  1.00  0.00     0.106 A 
ENDROOT
BRANCH  10  12
HETATM   12  N4  UNL     1      24.054   1.880  50.998  1.00  0.00    -0.339 N 
HETATM   13  H11 UNL     1      25.034   1.514  50.743  1.00  0.00     0.167 HD
BRANCH  12  14
HETATM   14  C12 UNL     1      24.041   3.326  51.055  1.00  0.00     0.035 A 
HETATM   15  C13 UNL     1      23.565   3.974  52.214  1.00  0.00     0.032 A 
HETATM   16  C14 UNL     1      23.525   5.355  52.267  1.00  0.00     0.046 A 
HETATM   17  C15 UNL     1      23.932   6.163  51.231  1.00  0.00     0.138 A 
HETATM   18  F1  UNL     1      23.871   7.516  51.307  1.00  0.00    -0.204 F 
HETATM   19  C16 UNL     1      24.401   5.542  50.093  1.00  0.00     0.074 A 
HETATM   20 CL1  UNL     1      24.924   6.538  48.782  1.00  0.00    -0.081 Cl
HETATM   21  C17 UNL     1      24.450   4.149  50.017  1.00  0.00     0.056 A 
ENDBRANCH  12  14
ENDBRANCH  10  12
BRANCH   1  22
HETATM   22  C4  UNL     1      24.952   0.252  53.550  1.00  0.00     0.156 C 
BRANCH  22  23
HETATM   23  C3  UNL     1      25.822  -0.900  53.350  1.00  0.00    -0.000 C 
HETATM   24  C2  UNL     1      27.148  -0.819  53.305  1.00  0.00     0.079 C 
BRANCH  24  25
HETATM   25  C1  UNL     1      28.295  -1.702  53.132  1.00  0.00     0.165 C 
HETATM   26  O1  UNL     1      29.517  -1.505  53.221  1.00  0.00    -0.647 OA
BRANCH  25  27
HETATM   27  O2  UNL     1      27.985  -3.030  52.803  1.00  0.00    -0.773 OA
HETATM   28  H1  UNL     1      27.360  -3.595  53.384  1.00  0.00     0.167 HD
ENDBRANCH  25  27
ENDBRANCH  24  25
ENDBRANCH  22  23
ENDBRANCH   1  22
TORSDOF 6
ENDMDL
MODEL 5
REMARK VINA RESULT:      -7.8      3.469      5.042
REMARK  6 active torsions:
REMARK  status: ('A' for Active; 'I' for Inactive)
REMARK    1  A    between atoms: C1_2  and  O2_3 
REMARK    2  A    between atoms: C1_2  and  C2_4 
REMARK    3  A    between atoms: C3_5  and  C4_6 
REMARK    4  A    between atoms: C4_6  and  N1_7 
REMARK    5  A    between atoms: C11_16  and  N4_17 
REMARK    6  A    between atoms: N4_17  and  C12_18 
ROOT
HETATM    1  N1  UNL     1      22.820   1.953  51.617  1.00  0.00    -0.345 N 
HETATM    2  C5  UNL     1      21.540   2.215  52.154  1.00  0.00    -0.004 A 
HETATM    3  C6  UNL     1      20.375   2.359  52.731  1.00  0.00     0.047 A 
HETATM    4  C7  UNL     1      20.556   1.024  53.321  1.00  0.00     0.056 A 
HETATM    5  C8  UNL     1      20.441   0.987  51.754  1.00  0.00     0.069 A 
HETATM    6  C9  UNL     1      21.956   0.534  53.493  1.00  0.00     0.071 A 
HETATM    7  N2  UNL     1      22.215  -0.348  54.452  1.00  0.00    -0.244 NA
HETATM    8  C10 UNL     1      23.402  -0.966  54.597  1.00  0.00     0.235 A 
HETATM    9  N3  UNL     1      24.461  -0.723  53.740  1.00  0.00    -0.222 NA
HETATM   10  C11 UNL     1      24.205   0.197  52.736  1.00  0.00     0.158 A 
HETATM   11  C18 UNL     1      22.964   0.865  52.563  1.00  0.00     0.106 A 
ENDROOT
BRANCH  10  12
HETATM   12  N4  UNL     1      25.351   0.375  51.949  1.00  0.00    -0.339 N 
HETATM   13  H11 UNL     1      25.551   0.321  50.892  1.00  0.00     0.167 HD
BRANCH  12  14
HETATM   14  C12 UNL     1      26.545   0.735  52.683  1.00  0.00     0.035 A 
HETATM   15  C13 UNL     1      26.681   2.042  53.197  1.00  0.00     0.032 A 
HETATM   16  C14 UNL     1      27.829   2.402  53.878  1.00  0.00     0.046 A 
HETATM   17  C15 UNL     1      28.880   1.541  54.093  1.00  0.00     0.138 A 
HETATM   18  F1  UNL     1      30.000   1.925  54.755  1.00  0.00    -0.204 F 
HETATM   19  C16 UNL     1      28.759   0.260  53.598  1.00  0.00     0.074 A 
HETATM   20 CL1  UNL     1      30.065  -0.840  53.863  1.00  0.00    -0.081 Cl
HETATM   21  C17 UNL     1      27.609  -0.125  52.907  1.00  0.00     0.056 A 
ENDBRANCH  12  14
ENDBRANCH  10  12
BRANCH   1  22
HETATM   22  C4  UNL     1      23.597   2.631  50.606  1.00  0.00     0.156 C 
BRANCH  22  23
HETATM   23  C3  UNL     1      24.190   3.902  51.001  1.00  0.00    -0.000 C 
HETATM   24  C2  UNL     1      23.551   5.066  50.922  1.00  0.00     0.079 C 
BRANCH  24  25
HETATM   25  C1  UNL     1      23.800   6.474  51.207  1.00  0.00     0.165 C 
HETATM   26  O1  UNL     1      23.506   7.510  50.591  1.00  0.00    -0.647 OA
BRANCH  25  27
HETATM   27  O2  UNL     1      24.500   6.731  52.395  1.00  0.00    -0.773 OA
HETATM   28  H1  UNL     1      24.721   5.985  53.059  1.00  0.00     0.167 HD
ENDBRANCH  25  27
ENDBRANCH  24  25
ENDBRANCH  22  23
ENDBRANCH   1  22
TORSDOF 6
ENDMDL
MODEL 6
REMARK VINA RESULT:      -7.5      3.392      5.254
REMARK  6 active torsions:
REMARK  status: ('A' for Active; 'I' for Inactive)
REMARK    1  A    between atoms: C1_2  and  O2_3 
REMARK    2  A    between atoms: C1_2  and  C2_4 
REMARK    3  A    between atoms: C3_5  and  C4_6 
REMARK    4  A    between atoms: C4_6  and  N1_7 
REMARK    5  A    between atoms: C11_16  and  N4_17 
REMARK    6  A    between atoms: N4_17  and  C12_18 
ROOT
HETATM    1  N1  UNL     1      22.537   1.044  52.085  1.00  0.00    -0.345 N 
HETATM    2  C5  UNL     1      21.307   1.201  52.760  1.00  0.00    -0.004 A 
HETATM    3  C6  UNL     1      20.212   1.264  53.474  1.00  0.00     0.047 A 
HETATM    4  C7  UNL     1      20.683   0.083  54.213  1.00  0.00     0.056 A 
HETATM    5  C8  UNL     1      20.386  -0.223  52.700  1.00  0.00     0.069 A 
HETATM    6  C9  UNL     1      22.156  -0.165  54.247  1.00  0.00     0.071 A 
HETATM    7  N2  UNL     1      22.672  -0.833  55.271  1.00  0.00    -0.244 NA
HETATM    8  C10 UNL     1      23.953  -1.241  55.327  1.00  0.00     0.235 A 
HETATM    9  N3  UNL     1      24.845  -0.987  54.299  1.00  0.00    -0.222 NA
HETATM   10  C11 UNL     1      24.320  -0.288  53.225  1.00  0.00     0.158 A 
HETATM   11  C18 UNL     1      22.973   0.155  53.143  1.00  0.00     0.106 A 
ENDROOT
BRANCH  10  12
HETATM   12  N4  UNL     1      25.317  -0.074  52.262  1.00  0.00    -0.339 N 
HETATM   13  H11 UNL     1      25.306   0.195  51.219  1.00  0.00     0.167 HD
BRANCH  12  14
HETATM   14  C12 UNL     1      26.673  -0.215  52.747  1.00  0.00     0.035 A 
HETATM   15  C13 UNL     1      27.320  -1.465  52.651  1.00  0.00     0.032 A 
HETATM   16  C14 UNL     1      28.607  -1.616  53.135  1.00  0.00     0.046 A 
HETATM   17  C15 UNL     1      29.318  -0.594  53.720  1.00  0.00     0.138 A 
HETATM   18  F1  UNL     1      30.575  -0.774  54.196  1.00  0.00    -0.204 F 
HETATM   19  C16 UNL     1      28.697   0.633  53.817  1.00  0.00     0.074 A 
HETATM   20 CL1  UNL     1      29.575   1.932  54.542  1.00  0.00    -0.081 Cl
HETATM   21  C17 UNL     1      27.398   0.808  53.336  1.00  0.00     0.056 A 
ENDBRANCH  12  14
ENDBRANCH  10  12
BRANCH   1  22
HETATM   22  C4  UNL     1      23.062   1.656  50.887  1.00  0.00     0.156 C 
BRANCH  22  23
HETATM   23  C3  UNL     1      24.107   2.652  51.083  1.00  0.00    -0.000 C 
HETATM   24  C2  UNL     1      25.019   2.950  50.163  1.00  0.00     0.079 C 
BRANCH  24  25
HETATM   25  C1  UNL     1      26.162   3.841  50.001  1.00  0.00     0.165 C 
HETATM   26  O1  UNL     1      26.359   4.811  49.252  1.00  0.00    -0.647 OA
BRANCH  25  27
HETATM   27  O2  UNL     1      27.256   3.573  50.837  1.00  0.00    -0.773 OA
HETATM   28  H1  UNL     1      27.243   2.798  51.505  1.00  0.00     0.167 HD
ENDBRANCH  25  27
ENDBRANCH  24  25
ENDBRANCH  22  23
ENDBRANCH   1  22
TORSDOF 6
ENDMDL
MODEL 7
REMARK VINA RESULT:      -7.5      1.639      2.101
REMARK  6 active torsions:
REMARK  status: ('A' for Active; 'I' for Inactive)
REMARK    1  A    between atoms: C1_2  and  O2_3 
REMARK    2  A    between atoms: C1_2  and  C2_4 
REMARK    3  A    between atoms: C3_5  and  C4_6 
REMARK    4  A    between atoms: C4_6  and  N1_7 
REMARK    5  A    between atoms: C11_16  and  N4_17 
REMARK    6  A    between atoms: N4_17  and  C12_18 
ROOT
HETATM    1  N1  UNL     1      22.406   2.663  51.382  1.00  0.00    -0.345 N 
HETATM    2  C5  UNL     1      21.702   3.875  51.210  1.00  0.00    -0.004 A 
HETATM    3  C6  UNL     1      21.164   5.053  51.022  1.00  0.00     0.047 A 
HETATM    4  C7  UNL     1      22.518   5.625  51.066  1.00  0.00     0.056 A 
HETATM    5  C8  UNL     1      22.082   4.986  52.434  1.00  0.00     0.069 A 
HETATM    6  C9  UNL     1      23.656   4.727  50.707  1.00  0.00     0.071 A 
HETATM    7  N2  UNL     1      24.767   5.262  50.215  1.00  0.00    -0.244 NA
HETATM    8  C10 UNL     1      25.900   4.567  50.003  1.00  0.00     0.235 A 
HETATM    9  N3  UNL     1      25.990   3.215  50.286  1.00  0.00    -0.222 NA
HETATM   10  C11 UNL     1      24.837   2.643  50.797  1.00  0.00     0.158 A 
HETATM   11  C18 UNL     1      23.629   3.353  51.029  1.00  0.00     0.106 A 
ENDROOT
BRANCH  10  12
HETATM   12  N4  UNL     1      25.043   1.275  51.024  1.00  0.00    -0.339 N 
HETATM   13  H11 UNL     1      24.715   0.376  50.530  1.00  0.00     0.167 HD
BRANCH  12  14
HETATM   14  C12 UNL     1      25.898   0.966  52.149  1.00  0.00     0.035 A 
HETATM   15  C13 UNL     1      25.786   1.717  53.338  1.00  0.00     0.032 A 
HETATM   16  C14 UNL     1      26.617   1.445  54.409  1.00  0.00     0.046 A 
HETATM   17  C15 UNL     1      27.575   0.458  54.390  1.00  0.00     0.138 A 
HETATM   18  F1  UNL     1      28.384   0.221  55.452  1.00  0.00    -0.204 F 
HETATM   19  C16 UNL     1      27.693  -0.285  53.234  1.00  0.00     0.074 A 
HETATM   20 CL1  UNL     1      28.885  -1.534  53.192  1.00  0.00    -0.081 Cl
HETATM   21  C17 UNL     1      26.865  -0.027  52.141  1.00  0.00     0.056 A 
ENDBRANCH  12  14
ENDBRANCH  10  12
BRANCH   1  22
HETATM   22  C4  UNL     1      21.956   1.325  51.688  1.00  0.00     0.156 C 
BRANCH  22  23
HETATM   23  C3  UNL     1      22.123   0.895  53.070  1.00  0.00    -0.000 C 
HETATM   24  C2  UNL     1      22.676  -0.263  53.418  1.00  0.00     0.079 C 
BRANCH  24  25
HETATM   25  C1  UNL     1      22.998  -1.003  54.632  1.00  0.00     0.165 C 
HETATM   26  O1  UNL     1      22.283  -1.558  55.482  1.00  0.00    -0.647 OA
BRANCH  25  27
HETATM   27  O2  UNL     1      24.367  -1.125  54.915  1.00  0.00    -0.773 OA
HETATM   28  H1  UNL     1      24.847  -2.027  54.858  1.00  0.00     0.167 HD
ENDBRANCH  25  27
ENDBRANCH  24  25
ENDBRANCH  22  23
ENDBRANCH   1  22
TORSDOF 6
ENDMDL
MODEL 8
REMARK VINA RESULT:      -7.5      3.304      4.762
REMARK  6 active torsions:
REMARK  status: ('A' for Active; 'I' for Inactive)
REMARK    1  A    between atoms: C1_2  and  O2_3 
REMARK    2  A    between atoms: C1_2  and  C2_4 
REMARK    3  A    between atoms: C3_5  and  C4_6 
REMARK    4  A    between atoms: C4_6  and  N1_7 
REMARK    5  A    between atoms: C11_16  and  N4_17 
REMARK    6  A    between atoms: N4_17  and  C12_18 
ROOT
HETATM    1  N1  UNL     1      23.155   2.647  49.675  1.00  0.00    -0.345 N 
HETATM    2  C5  UNL     1      21.799   2.455  49.332  1.00  0.00    -0.004 A 
HETATM    3  C6  UNL     1      20.533   2.203  49.119  1.00  0.00     0.047 A 
HETATM    4  C7  UNL     1      20.634   1.115  50.104  1.00  0.00     0.056 A 
HETATM    5  C8  UNL     1      21.512   0.863  48.825  1.00  0.00     0.069 A 
HETATM    6  C9  UNL     1      21.704   1.224  51.140  1.00  0.00     0.071 A 
HETATM    7  N2  UNL     1      21.528   0.623  52.311  1.00  0.00    -0.244 NA
HETATM    8  C10 UNL     1      22.484   0.529  53.253  1.00  0.00     0.235 A 
HETATM    9  N3  UNL     1      23.747   1.064  53.066  1.00  0.00    -0.222 NA
HETATM   10  C11 UNL     1      23.943   1.697  51.850  1.00  0.00     0.158 A 
HETATM   11  C18 UNL     1      22.951   1.811  50.841  1.00  0.00     0.106 A 
ENDROOT
BRANCH  10  12
HETATM   12  N4  UNL     1      25.245   2.213  51.785  1.00  0.00    -0.339 N 
HETATM   13  H11 UNL     1      25.672   3.125  51.401  1.00  0.00     0.167 HD
BRANCH  12  14
HETATM   14  C12 UNL     1      26.264   1.372  52.375  1.00  0.00     0.035 A 
HETATM   15  C13 UNL     1      27.287   1.957  53.152  1.00  0.00     0.032 A 
HETATM   16  C14 UNL     1      28.279   1.164  53.698  1.00  0.00     0.046 A 
HETATM   17  C15 UNL     1      28.335  -0.199  53.529  1.00  0.00     0.138 A 
HETATM   18  F1  UNL     1      29.327  -0.951  54.068  1.00  0.00    -0.204 F 
HETATM   19  C16 UNL     1      27.340  -0.783  52.774  1.00  0.00     0.074 A 
HETATM   20 CL1  UNL     1      27.387  -2.496  52.554  1.00  0.00    -0.081 Cl
HETATM   21  C17 UNL     1      26.329  -0.003  52.212  1.00  0.00     0.056 A 
ENDBRANCH  12  14
ENDBRANCH  10  12
BRANCH   1  22
HETATM   22  C4  UNL     1      24.194   3.455  49.079  1.00  0.00     0.156 C 
BRANCH  22  23
HETATM   23  C3  UNL     1      24.081   4.893  49.283  1.00  0.00    -0.000 C 
HETATM   24  C2  UNL     1      24.545   5.520  50.360  1.00  0.00     0.079 C 
BRANCH  24  25
HETATM   25  C1  UNL     1      24.616   6.875  50.893  1.00  0.00     0.165 C 
HETATM   26  O1  UNL     1      24.780   7.977  50.345  1.00  0.00    -0.647 OA
BRANCH  25  27
HETATM   27  O2  UNL     1      24.473   6.981  52.285  1.00  0.00    -0.773 OA
HETATM   28  H1  UNL     1      25.236   7.317  52.878  1.00  0.00     0.167 HD
ENDBRANCH  25  27
ENDBRANCH  24  25
ENDBRANCH  22  23
ENDBRANCH   1  22
TORSDOF 6
ENDMDL
MODEL 9
REMARK VINA RESULT:      -7.5      3.960      6.020
REMARK  6 active torsions:
REMARK  status: ('A' for Active; 'I' for Inactive)
REMARK    1  A    between atoms: C1_2  and  O2_3 
REMARK    2  A    between atoms: C1_2  and  C2_4 
REMARK    3  A    between atoms: C3_5  and  C4_6 
REMARK    4  A    between atoms: C4_6  and  N1_7 
REMARK    5  A    between atoms: C11_16  and  N4_17 
REMARK    6  A    between atoms: N4_17  and  C12_18 
ROOT
HETATM    1  N1  UNL     1      23.435   2.416  52.839  1.00  0.00    -0.345 N 
HETATM    2  C5  UNL     1      22.933   1.129  52.545  1.00  0.00    -0.004 A 
HETATM    3  C6  UNL     1      22.366  -0.005  52.220  1.00  0.00     0.047 A 
HETATM    4  C7  UNL     1      21.128   0.745  51.960  1.00  0.00     0.056 A 
HETATM    5  C8  UNL     1      21.556   0.780  53.472  1.00  0.00     0.069 A 
HETATM    6  C9  UNL     1      21.259   2.192  51.616  1.00  0.00     0.071 A 
HETATM    7  N2  UNL     1      20.316   2.766  50.878  1.00  0.00    -0.244 NA
HETATM    8  C10 UNL     1      20.257   4.089  50.639  1.00  0.00     0.235 A 
HETATM    9  N3  UNL     1      21.195   4.966  51.156  1.00  0.00    -0.222 NA
HETATM   10  C11 UNL     1      22.186   4.380  51.925  1.00  0.00     0.158 A 
HETATM   11  C18 UNL     1      22.273   2.988  52.191  1.00  0.00     0.106 A 
ENDROOT
BRANCH  10  12
HETATM   12  N4  UNL     1      23.084   5.360  52.373  1.00  0.00    -0.339 N 
HETATM   13  H11 UNL     1      23.289   5.807  53.332  1.00  0.00     0.167 HD
BRANCH  12  14
HETATM   14  C12 UNL     1      23.961   5.894  51.354  1.00  0.00     0.035 A 
HETATM   15  C13 UNL     1      23.872   7.257  51.002  1.00  0.00     0.032 A 
HETATM   16  C14 UNL     1      24.689   7.771  50.011  1.00  0.00     0.046 A 
HETATM   17  C15 UNL     1      25.612   7.015  49.327  1.00  0.00     0.138 A 
HETATM   18  F1  UNL     1      26.392   7.543  48.352  1.00  0.00    -0.204 F 
HETATM   19  C16 UNL     1      25.711   5.681  49.664  1.00  0.00     0.074 A 
HETATM   20 CL1  UNL     1      26.869   4.715  48.821  1.00  0.00    -0.081 Cl
HETATM   21  C17 UNL     1      24.895   5.142  50.660  1.00  0.00     0.056 A 
ENDBRANCH  12  14
ENDBRANCH  10  12
BRANCH   1  22
HETATM   22  C4  UNL     1      24.668   2.851  53.453  1.00  0.00     0.156 C 
BRANCH  22  23
HETATM   23  C3  UNL     1      25.816   1.973  53.271  1.00  0.00    -0.000 C 
HETATM   24  C2  UNL     1      26.328   1.222  54.241  1.00  0.00     0.079 C 
BRANCH  24  25
HETATM   25  C1  UNL     1      27.414   0.269  54.432  1.00  0.00     0.165 C 
HETATM   26  O1  UNL     1      27.553  -0.914  54.081  1.00  0.00    -0.647 OA
BRANCH  25  27
HETATM   27  O2  UNL     1      28.521   0.754  55.144  1.00  0.00    -0.773 OA
HETATM   28  H1  UNL     1      28.463   0.973  56.142  1.00  0.00     0.167 HD
ENDBRANCH  25  27
ENDBRANCH  24  25
ENDBRANCH  22  23
ENDBRANCH   1  22
TORSDOF 6
ENDMDL
