MODEL 1
REMARK VINA RESULT:     -10.1      0.000      0.000
REMARK  5 active torsions:
REMARK  status: ('A' for Active; 'I' for Inactive)
REMARK    1  A    between atoms: C4_6  and  N3_7 
REMARK    2  A    between atoms: N3_7  and  C5_8 
REMARK    3  A    between atoms: C13_17  and  N4_18 
REMARK    4  A    between atoms: N4_18  and  O1_19 
REMARK    5  A    between atoms: N4_18  and  C14_20 
ROOT
HETATM    1  N1  UNL     1      17.653  -1.262  53.584  1.00  0.00    -0.191 NA
HETATM    2  C1  UNL     1      18.568  -0.759  53.083  1.00  0.00     0.102 C 
HETATM    3  C2  UNL     1      19.715  -0.137  52.466  1.00  0.00     0.073 A 
HETATM    4  C3  UNL     1      19.609   0.634  51.325  1.00  0.00     0.142 A 
HETATM    5  N2  UNL     1      20.732   1.178  50.815  1.00  0.00    -0.241 NA
HETATM    6  C4  UNL     1      21.952   0.996  51.379  1.00  0.00     0.139 A 
HETATM    7  C11 UNL     1      22.054   0.230  52.512  1.00  0.00     0.024 A 
HETATM    8  C12 UNL     1      23.328   0.095  53.021  1.00  0.00     0.048 A 
HETATM    9  C13 UNL     1      23.513  -0.667  54.169  1.00  0.00     0.060 A 
HETATM   10  C18 UNL     1      22.376  -1.251  54.733  1.00  0.00     0.032 A 
HETATM   11  C19 UNL     1      21.112  -1.107  54.213  1.00  0.00     0.016 A 
HETATM   12  C20 UNL     1      20.941  -0.352  53.080  1.00  0.00     0.000 A 
ENDROOT
BRANCH   6  13
HETATM   13  N3  UNL     1      22.989   1.660  50.676  1.00  0.00    -0.340 N 
HETATM   14  H2  UNL     1      23.367   0.919  50.044  1.00  0.00     0.167 HD
BRANCH  13  15
HETATM   15  C5  UNL     1      23.510   2.981  50.701  1.00  0.00     0.035 A 
HETATM   16  C6  UNL     1      22.862   3.915  51.487  1.00  0.00     0.029 A 
HETATM   17  C7  UNL     1      23.408   5.176  51.474  1.00  0.00     0.004 A 
HETATM   18  C8  UNL     1      24.525   5.536  50.744  1.00  0.00     0.019 A 
HETATM   19  C9  UNL     1      25.122   4.553  49.980  1.00  0.00     0.013 A 
HETATM   20 BR1  UNL     1      26.667   5.072  48.976  1.00  0.00    -0.051 Br
HETATM   21  C10 UNL     1      24.627   3.253  49.943  1.00  0.00     0.048 A 
ENDBRANCH  13  15
ENDBRANCH   6  13
BRANCH   9  22
HETATM   22  N4  UNL     1      24.802  -0.860  54.766  1.00  0.00    -0.237 N 
BRANCH  22  23
HETATM   23  O1  UNL     1      24.849  -1.577  55.888  1.00  0.00    -0.285 OA
HETATM   24  H8  UNL     1      24.359  -2.452  55.803  1.00  0.00     0.245 HD
ENDBRANCH  22  23
BRANCH  22  25
HETATM   25  C14 UNL     1      25.973  -0.278  54.134  1.00  0.00     0.215 C 
HETATM   26  C15 UNL     1      26.526  -1.291  53.145  1.00  0.00     0.058 C 
HETATM   27  C16 UNL     1      28.004  -0.967  53.031  1.00  0.00     0.106 C 
HETATM   28  C17 UNL     1      28.210  -0.120  54.258  1.00  0.00     0.219 C 
HETATM   29  O2  UNL     1      29.393   0.355  54.295  1.00  0.00    -0.274 OA
HETATM   30  N5  UNL     1      27.035  -0.047  55.093  1.00  0.00    -0.338 N 
HETATM   31  H14 UNL     1      27.343   0.143  56.072  1.00  0.00     0.164 HD
ENDBRANCH  22  25
ENDBRANCH   9  22
TORSDOF 5
ENDMDL
MODEL 2
REMARK VINA RESULT:      -9.4      3.159      6.084
REMARK  5 active torsions:
REMARK  status: ('A' for Active; 'I' for Inactive)
REMARK    1  A    between atoms: C4_6  and  N3_7 
REMARK    2  A    between atoms: N3_7  and  C5_8 
REMARK    3  A    between atoms: C13_17  and  N4_18 
REMARK    4  A    between atoms: N4_18  and  O1_19 
REMARK    5  A    between atoms: N4_18  and  C14_20 
ROOT
HETATM    1  N1  UNL     1      19.304   1.363  49.498  1.00  0.00    -0.191 NA
HETATM    2  C1  UNL     1      20.193   1.152  50.211  1.00  0.00     0.102 C 
HETATM    3  C2  UNL     1      21.306   0.898  51.093  1.00  0.00     0.073 A 
HETATM    4  C3  UNL     1      21.232  -0.015  52.127  1.00  0.00     0.142 A 
HETATM    5  N2  UNL     1      22.320  -0.190  52.903  1.00  0.00    -0.241 NA
HETATM    6  C4  UNL     1      23.474   0.493  52.707  1.00  0.00     0.139 A 
HETATM    7  C11 UNL     1      23.545   1.399  51.680  1.00  0.00     0.024 A 
HETATM    8  C12 UNL     1      24.753   2.050  51.549  1.00  0.00     0.048 A 
HETATM    9  C13 UNL     1      24.903   2.984  50.531  1.00  0.00     0.060 A 
HETATM   10  C18 UNL     1      23.800   3.200  49.700  1.00  0.00     0.032 A 
HETATM   11  C19 UNL     1      22.602   2.542  49.843  1.00  0.00     0.016 A 
HETATM   12  C20 UNL     1      22.466   1.622  50.851  1.00  0.00     0.000 A 
ENDROOT
BRANCH   6  13
HETATM   13  N3  UNL     1      24.484   0.149  53.640  1.00  0.00    -0.340 N 
HETATM   14  H2  UNL     1      23.973   0.113  54.551  1.00  0.00     0.167 HD
BRANCH  13  15
HETATM   15  C5  UNL     1      25.877  -0.114  53.536  1.00  0.00     0.035 A 
HETATM   16  C6  UNL     1      26.266  -1.300  52.945  1.00  0.00     0.029 A 
HETATM   17  C7  UNL     1      27.623  -1.503  52.870  1.00  0.00     0.004 A 
HETATM   18  C8  UNL     1      28.573  -0.615  53.338  1.00  0.00     0.019 A 
HETATM   19  C9  UNL     1      28.114   0.550  53.918  1.00  0.00     0.013 A 
HETATM   20 BR1  UNL     1      29.444   1.767  54.561  1.00  0.00    -0.051 Br
HETATM   21  C10 UNL     1      26.754   0.826  54.029  1.00  0.00     0.048 A 
ENDBRANCH  13  15
ENDBRANCH   6  13
BRANCH   9  22
HETATM   22  N4  UNL     1      26.123   3.708  50.322  1.00  0.00    -0.237 N 
BRANCH  22  23
HETATM   23  O1  UNL     1      27.187   3.319  51.024  1.00  0.00    -0.285 OA
HETATM   24  H8  UNL     1      27.038   2.437  51.483  1.00  0.00     0.245 HD
ENDBRANCH  22  23
BRANCH  22  25
HETATM   25  C14 UNL     1      26.143   4.809  49.374  1.00  0.00     0.215 C 
HETATM   26  C15 UNL     1      27.504   4.822  48.697  1.00  0.00     0.058 C 
HETATM   27  C16 UNL     1      27.721   6.263  48.275  1.00  0.00     0.106 C 
HETATM   28  C17 UNL     1      26.696   6.972  49.121  1.00  0.00     0.219 C 
HETATM   29  O2  UNL     1      26.641   8.212  48.833  1.00  0.00    -0.274 OA
HETATM   30  N5  UNL     1      26.027   6.089  50.046  1.00  0.00    -0.338 N 
HETATM   31  H14 UNL     1      25.698   6.657  50.857  1.00  0.00     0.164 HD
ENDBRANCH  22  25
ENDBRANCH   9  22
TORSDOF 5
ENDMDL
MODEL 3
REMARK VINA RESULT:      -9.2      2.798      3.995
REMARK  5 active torsions:
REMARK  status: ('A' for Active; 'I' for Inactive)
REMARK    1  A    between atoms: C4_6  and  N3_7 
REMARK    2  A    between atoms: N3_7  and  C5_8 
REMARK    3  A    between atoms: C13_17  and  N4_18 
REMARK    4  A    between atoms: N4_18  and  O1_19 
REMARK    5  A    between atoms: N4_18  and  C14_20 
ROOT
HETATM    1  N1  UNL     1      20.453   2.163  53.041  1.00  0.00    -0.191 NA
HETATM    2  C1  UNL     1      21.326   2.457  52.339  1.00  0.00     0.102 C 
HETATM    3  C2  UNL     1      22.420   2.818  51.471  1.00  0.00     0.073 A 
HETATM    4  C3  UNL     1      22.218   3.396  50.232  1.00  0.00     0.142 A 
HETATM    5  N2  UNL     1      23.298   3.703  49.486  1.00  0.00    -0.241 NA
HETATM    6  C4  UNL     1      24.565   3.465  49.905  1.00  0.00     0.139 A 
HETATM    7  C11 UNL     1      24.763   2.892  51.135  1.00  0.00     0.024 A 
HETATM    8  C12 UNL     1      26.081   2.685  51.485  1.00  0.00     0.048 A 
HETATM    9  C13 UNL     1      26.363   2.108  52.718  1.00  0.00     0.060 A 
HETATM   10  C18 UNL     1      25.274   1.772  53.526  1.00  0.00     0.032 A 
HETATM   11  C19 UNL     1      23.966   1.986  53.163  1.00  0.00     0.016 A 
HETATM   12  C20 UNL     1      23.699   2.556  51.944  1.00  0.00     0.000 A 
ENDROOT
BRANCH   6  13
HETATM   13  N3  UNL     1      25.543   3.867  48.961  1.00  0.00    -0.340 N 
HETATM   14  H2  UNL     1      25.570   3.071  48.285  1.00  0.00     0.167 HD
BRANCH  13  15
HETATM   15  C5  UNL     1      26.366   5.017  48.819  1.00  0.00     0.035 A 
HETATM   16  C6  UNL     1      25.770   6.256  48.953  1.00  0.00     0.029 A 
HETATM   17  C7  UNL     1      26.610   7.333  48.807  1.00  0.00     0.004 A 
HETATM   18  C8  UNL     1      27.964   7.237  48.544  1.00  0.00     0.019 A 
HETATM   19  C9  UNL     1      28.493   5.968  48.422  1.00  0.00     0.013 A 
HETATM   20 BR1  UNL     1      30.369   5.856  48.057  1.00  0.00    -0.051 Br
HETATM   21  C10 UNL     1      27.704   4.830  48.557  1.00  0.00     0.048 A 
ENDBRANCH  13  15
ENDBRANCH   6  13
BRANCH   9  22
HETATM   22  N4  UNL     1      27.703   1.856  53.163  1.00  0.00    -0.237 N 
BRANCH  22  23
HETATM   23  O1  UNL     1      28.581   2.850  53.035  1.00  0.00    -0.285 OA
HETATM   24  H8  UNL     1      29.098   3.013  53.882  1.00  0.00     0.245 HD
ENDBRANCH  22  23
BRANCH  22  25
HETATM   25  C14 UNL     1      28.034   0.555  53.719  1.00  0.00     0.215 C 
HETATM   26  C15 UNL     1      29.548   0.462  53.826  1.00  0.00     0.058 C 
HETATM   27  C16 UNL     1      29.859  -1.021  53.753  1.00  0.00     0.106 C 
HETATM   28  C17 UNL     1      28.572  -1.560  53.186  1.00  0.00     0.219 C 
HETATM   29  O2  UNL     1      28.586  -2.834  53.143  1.00  0.00    -0.274 OA
HETATM   30  N5  UNL     1      27.638  -0.519  52.829  1.00  0.00    -0.338 N 
HETATM   31  H14 UNL     1      27.015  -0.885  52.076  1.00  0.00     0.164 HD
ENDBRANCH  22  25
ENDBRANCH   9  22
TORSDOF 5
ENDMDL
MODEL 4
REMARK VINA RESULT:      -9.2      2.295      3.284
REMARK  5 active torsions:
REMARK  status: ('A' for Active; 'I' for Inactive)
REMARK    1  A    between atoms: C4_6  and  N3_7 
REMARK    2  A    between atoms: N3_7  and  C5_8 
REMARK    3  A    between atoms: C13_17  and  N4_18 
REMARK    4  A    between atoms: N4_18  and  O1_19 
REMARK    5  A    between atoms: N4_18  and  C14_20 
ROOT
HETATM    1  N1  UNL     1      19.868   0.044  52.635  1.00  0.00    -0.191 NA
HETATM    2  C1  UNL     1      20.516   1.000  52.558  1.00  0.00     0.102 C 
HETATM    3  C2  UNL     1      21.333   2.185  52.462  1.00  0.00     0.073 A 
HETATM    4  C3  UNL     1      20.789   3.443  52.284  1.00  0.00     0.142 A 
HETATM    5  N2  UNL     1      21.626   4.496  52.205  1.00  0.00    -0.241 NA
HETATM    6  C4  UNL     1      22.972   4.367  52.294  1.00  0.00     0.139 A 
HETATM    7  C11 UNL     1      23.510   3.117  52.471  1.00  0.00     0.024 A 
HETATM    8  C12 UNL     1      24.886   3.073  52.553  1.00  0.00     0.048 A 
HETATM    9  C13 UNL     1      25.506   1.842  52.733  1.00  0.00     0.060 A 
HETATM   10  C18 UNL     1      24.678   0.720  52.819  1.00  0.00     0.032 A 
HETATM   11  C19 UNL     1      23.307   0.782  52.737  1.00  0.00     0.016 A 
HETATM   12  C20 UNL     1      22.706   2.001  52.560  1.00  0.00     0.000 A 
ENDROOT
BRANCH   6  13
HETATM   13  N3  UNL     1      23.654   5.604  52.185  1.00  0.00    -0.340 N 
HETATM   14  H2  UNL     1      23.877   5.847  53.177  1.00  0.00     0.167 HD
BRANCH  13  15
HETATM   15  C5  UNL     1      24.023   6.437  51.094  1.00  0.00     0.035 A 
HETATM   16  C6  UNL     1      23.192   7.495  50.780  1.00  0.00     0.029 A 
HETATM   17  C7  UNL     1      23.597   8.266  49.718  1.00  0.00     0.004 A 
HETATM   18  C8  UNL     1      24.745   8.042  48.982  1.00  0.00     0.019 A 
HETATM   19  C9  UNL     1      25.528   6.967  49.350  1.00  0.00     0.013 A 
HETATM   20 BR1  UNL     1      27.114   6.672  48.318  1.00  0.00    -0.051 Br
HETATM   21  C10 UNL     1      25.184   6.140  50.415  1.00  0.00     0.048 A 
ENDBRANCH  13  15
ENDBRANCH   6  13
BRANCH   9  22
HETATM   22  N4  UNL     1      26.931   1.703  52.827  1.00  0.00    -0.237 N 
BRANCH  22  23
HETATM   23  O1  UNL     1      27.672   2.643  52.240  1.00  0.00    -0.285 OA
HETATM   24  H8  UNL     1      27.556   2.651  51.241  1.00  0.00     0.245 HD
ENDBRANCH  22  23
BRANCH  22  25
HETATM   25  C14 UNL     1      27.487   0.568  53.542  1.00  0.00     0.215 C 
HETATM   26  C15 UNL     1      28.911   0.918  53.943  1.00  0.00     0.058 C 
HETATM   27  C16 UNL     1      29.630  -0.414  54.053  1.00  0.00     0.106 C 
HETATM   28  C17 UNL     1      28.689  -1.315  53.299  1.00  0.00     0.219 C 
HETATM   29  O2  UNL     1      29.064  -2.531  53.365  1.00  0.00    -0.274 OA
HETATM   30  N5  UNL     1      27.597  -0.597  52.686  1.00  0.00    -0.338 N 
HETATM   31  H14 UNL     1      27.269  -1.146  51.862  1.00  0.00     0.164 HD
ENDBRANCH  22  25
ENDBRANCH   9  22
TORSDOF 5
ENDMDL
MODEL 5
REMARK VINA RESULT:      -9.1      2.833      6.070
REMARK  5 active torsions:
REMARK  status: ('A' for Active; 'I' for Inactive)
REMARK    1  A    between atoms: C4_6  and  N3_7 
REMARK    2  A    between atoms: N3_7  and  C5_8 
REMARK    3  A    between atoms: C13_17  and  N4_18 
REMARK    4  A    between atoms: N4_18  and  O1_19 
REMARK    5  A    between atoms: N4_18  and  C14_20 
ROOT
HETATM    1  N1  UNL     1      28.031  -1.383  53.497  1.00  0.00    -0.191 NA
HETATM    2  C1  UNL     1      27.282  -0.619  53.055  1.00  0.00     0.102 C 
HETATM    3  C2  UNL     1      26.339   0.329  52.511  1.00  0.00     0.073 A 
HETATM    4  C3  UNL     1      26.719   1.318  51.623  1.00  0.00     0.142 A 
HETATM    5  N2  UNL     1      25.773   2.161  51.164  1.00  0.00    -0.241 NA
HETATM    6  C4  UNL     1      24.474   2.074  51.539  1.00  0.00     0.139 A 
HETATM    7  C11 UNL     1      24.100   1.092  52.420  1.00  0.00     0.024 A 
HETATM    8  C12 UNL     1      22.761   1.073  52.750  1.00  0.00     0.048 A 
HETATM    9  C13 UNL     1      22.304   0.106  53.638  1.00  0.00     0.060 A 
HETATM   10  C18 UNL     1      23.250  -0.791  54.141  1.00  0.00     0.032 A 
HETATM   11  C19 UNL     1      24.581  -0.759  53.802  1.00  0.00     0.016 A 
HETATM   12  C20 UNL     1      25.021   0.199  52.925  1.00  0.00     0.000 A 
ENDROOT
BRANCH   6  13
HETATM   13  N3  UNL     1      23.657   3.062  50.933  1.00  0.00    -0.340 N 
HETATM   14  H2  UNL     1      23.529   3.770  51.690  1.00  0.00     0.167 HD
BRANCH  13  15
HETATM   15  C5  UNL     1      23.076   3.208  49.644  1.00  0.00     0.035 A 
HETATM   16  C6  UNL     1      22.504   2.092  49.065  1.00  0.00     0.029 A 
HETATM   17  C7  UNL     1      21.957   2.290  47.820  1.00  0.00     0.004 A 
HETATM   18  C8  UNL     1      21.954   3.499  47.151  1.00  0.00     0.019 A 
HETATM   19  C9  UNL     1      22.544   4.572  47.788  1.00  0.00     0.013 A 
HETATM   20 BR1  UNL     1      22.530   6.239  46.846  1.00  0.00    -0.051 Br
HETATM   21  C10 UNL     1      23.118   4.449  49.050  1.00  0.00     0.048 A 
ENDBRANCH  13  15
ENDBRANCH   6  13
BRANCH   9  22
HETATM   22  N4  UNL     1      20.929   0.013  54.037  1.00  0.00    -0.237 N 
BRANCH  22  23
HETATM   23  O1  UNL     1      20.592   0.592  55.188  1.00  0.00    -0.285 OA
HETATM   24  H8  UNL     1      19.636   0.407  55.442  1.00  0.00     0.245 HD
ENDBRANCH  22  23
BRANCH  22  25
HETATM   25  C14 UNL     1      19.990  -0.694  53.184  1.00  0.00     0.215 C 
HETATM   26  C15 UNL     1      19.281   0.332  52.315  1.00  0.00     0.058 C 
HETATM   27  C16 UNL     1      17.941  -0.295  51.977  1.00  0.00     0.106 C 
HETATM   28  C17 UNL     1      17.857  -1.379  53.017  1.00  0.00     0.219 C 
HETATM   29  O2  UNL     1      16.828  -2.111  52.837  1.00  0.00    -0.274 OA
HETATM   30  N5  UNL     1      18.947  -1.336  53.962  1.00  0.00    -0.338 N 
HETATM   31  H14 UNL     1      18.622  -1.769  54.854  1.00  0.00     0.164 HD
ENDBRANCH  22  25
ENDBRANCH   9  22
TORSDOF 5
ENDMDL
MODEL 6
REMARK VINA RESULT:      -9.1      1.727      2.519
REMARK  5 active torsions:
REMARK  status: ('A' for Active; 'I' for Inactive)
REMARK    1  A    between atoms: C4_6  and  N3_7 
REMARK    2  A    between atoms: N3_7  and  C5_8 
REMARK    3  A    between atoms: C13_17  and  N4_18 
REMARK    4  A    between atoms: N4_18  and  O1_19 
REMARK    5  A    between atoms: N4_18  and  C14_20 
ROOT
HETATM    1  N1  UNL     1      18.662   0.369  50.287  1.00  0.00    -0.191 NA
HETATM    2  C1  UNL     1      19.599   1.033  50.434  1.00  0.00     0.102 C 
HETATM    3  C2  UNL     1      20.773   1.852  50.623  1.00  0.00     0.073 A 
HETATM    4  C3  UNL     1      20.903   3.097  50.039  1.00  0.00     0.142 A 
HETATM    5  N2  UNL     1      22.033   3.795  50.269  1.00  0.00    -0.241 NA
HETATM    6  C4  UNL     1      23.037   3.322  51.047  1.00  0.00     0.139 A 
HETATM    7  C11 UNL     1      22.905   2.086  51.626  1.00  0.00     0.024 A 
HETATM    8  C12 UNL     1      23.970   1.680  52.403  1.00  0.00     0.048 A 
HETATM    9  C13 UNL     1      23.910   0.438  53.024  1.00  0.00     0.060 A 
HETATM   10  C18 UNL     1      22.757  -0.322  52.813  1.00  0.00     0.032 A 
HETATM   11  C19 UNL     1      21.703   0.097  52.037  1.00  0.00     0.016 A 
HETATM   12  C20 UNL     1      21.772   1.325  51.429  1.00  0.00     0.000 A 
ENDROOT
BRANCH   6  13
HETATM   13  N3  UNL     1      24.127   4.223  51.150  1.00  0.00    -0.340 N 
HETATM   14  H2  UNL     1      24.021   4.624  52.109  1.00  0.00     0.167 HD
BRANCH  13  15
HETATM   15  C5  UNL     1      25.180   4.603  50.276  1.00  0.00     0.035 A 
HETATM   16  C6  UNL     1      26.157   3.666  49.998  1.00  0.00     0.029 A 
HETATM   17  C7  UNL     1      27.150   4.086  49.147  1.00  0.00     0.004 A 
HETATM   18  C8  UNL     1      27.215   5.346  48.582  1.00  0.00     0.019 A 
HETATM   19  C9  UNL     1      26.207   6.232  48.904  1.00  0.00     0.013 A 
HETATM   20 BR1  UNL     1      26.313   7.972  48.112  1.00  0.00    -0.051 Br
HETATM   21  C10 UNL     1      25.166   5.879  49.758  1.00  0.00     0.048 A 
ENDBRANCH  13  15
ENDBRANCH   6  13
BRANCH   9  22
HETATM   22  N4  UNL     1      24.972  -0.064  53.847  1.00  0.00    -0.237 N 
BRANCH  22  23
HETATM   23  O1  UNL     1      24.638  -0.924  54.809  1.00  0.00    -0.285 OA
HETATM   24  H8  UNL     1      23.670  -0.846  55.072  1.00  0.00     0.245 HD
ENDBRANCH  22  23
BRANCH  22  25
HETATM   25  C14 UNL     1      26.332   0.380  53.601  1.00  0.00     0.215 C 
HETATM   26  C15 UNL     1      27.179  -0.847  53.301  1.00  0.00     0.058 C 
HETATM   27  C16 UNL     1      28.590  -0.462  53.706  1.00  0.00     0.106 C 
HETATM   28  C17 UNL     1      28.325   0.741  54.573  1.00  0.00     0.219 C 
HETATM   29  O2  UNL     1      29.414   1.293  54.939  1.00  0.00    -0.274 OA
HETATM   30  N5  UNL     1      26.918   0.980  54.783  1.00  0.00    -0.338 N 
HETATM   31  H14 UNL     1      26.806   1.490  55.687  1.00  0.00     0.164 HD
ENDBRANCH  22  25
ENDBRANCH   9  22
TORSDOF 5
ENDMDL
MODEL 7
REMARK VINA RESULT:      -8.9      3.010      5.881
REMARK  5 active torsions:
REMARK  status: ('A' for Active; 'I' for Inactive)
REMARK    1  A    between atoms: C4_6  and  N3_7 
REMARK    2  A    between atoms: N3_7  and  C5_8 
REMARK    3  A    between atoms: C13_17  and  N4_18 
REMARK    4  A    between atoms: N4_18  and  O1_19 
REMARK    5  A    between atoms: N4_18  and  C14_20 
ROOT
HETATM    1  N1  UNL     1      22.838   6.974  47.191  1.00  0.00    -0.191 NA
HETATM    2  C1  UNL     1      22.642   5.930  47.651  1.00  0.00     0.102 C 
HETATM    3  C2  UNL     1      22.407   4.629  48.231  1.00  0.00     0.073 A 
HETATM    4  C3  UNL     1      21.255   3.909  47.980  1.00  0.00     0.142 A 
HETATM    5  N2  UNL     1      21.117   2.701  48.563  1.00  0.00    -0.241 NA
HETATM    6  C4  UNL     1      22.061   2.173  49.379  1.00  0.00     0.139 A 
HETATM    7  C11 UNL     1      23.204   2.890  49.626  1.00  0.00     0.024 A 
HETATM    8  C12 UNL     1      24.113   2.282  50.466  1.00  0.00     0.048 A 
HETATM    9  C13 UNL     1      25.297   2.947  50.764  1.00  0.00     0.060 A 
HETATM   10  C18 UNL     1      25.484   4.203  50.183  1.00  0.00     0.032 A 
HETATM   11  C19 UNL     1      24.568   4.796  49.347  1.00  0.00     0.016 A 
HETATM   12  C20 UNL     1      23.403   4.131  49.059  1.00  0.00     0.000 A 
ENDROOT
BRANCH   6  13
HETATM   13  N3  UNL     1      21.707   0.895  49.879  1.00  0.00    -0.340 N 
HETATM   14  H2  UNL     1      22.061   0.240  49.145  1.00  0.00     0.167 HD
BRANCH  13  15
HETATM   15  C5  UNL     1      21.043   0.442  51.051  1.00  0.00     0.035 A 
HETATM   16  C6  UNL     1      19.661   0.451  51.053  1.00  0.00     0.029 A 
HETATM   17  C7  UNL     1      19.072   0.002  52.210  1.00  0.00     0.004 A 
HETATM   18  C8  UNL     1      19.766  -0.437  53.321  1.00  0.00     0.019 A 
HETATM   19  C9  UNL     1      21.144  -0.418  53.250  1.00  0.00     0.013 A 
HETATM   20 BR1  UNL     1      22.088  -1.030  54.800  1.00  0.00    -0.051 Br
HETATM   21  C10 UNL     1      21.813   0.021  52.112  1.00  0.00     0.048 A 
ENDBRANCH  13  15
ENDBRANCH   6  13
BRANCH   9  22
HETATM   22  N4  UNL     1      26.298   2.389  51.628  1.00  0.00    -0.237 N 
BRANCH  22  23
HETATM   23  O1  UNL     1      27.473   3.015  51.676  1.00  0.00    -0.285 OA
HETATM   24  H8  UNL     1      27.591   3.540  52.526  1.00  0.00     0.245 HD
ENDBRANCH  22  23
BRANCH  22  25
HETATM   25  C14 UNL     1      25.989   1.195  52.394  1.00  0.00     0.215 C 
HETATM   26  C15 UNL     1      26.401   1.441  53.836  1.00  0.00     0.058 C 
HETATM   27  C16 UNL     1      26.692   0.065  54.405  1.00  0.00     0.106 C 
HETATM   28  C17 UNL     1      26.836  -0.746  53.145  1.00  0.00     0.219 C 
HETATM   29  O2  UNL     1      26.982  -1.984  53.409  1.00  0.00    -0.274 OA
HETATM   30  N5  UNL     1      26.777   0.061  51.950  1.00  0.00    -0.338 N 
HETATM   31  H14 UNL     1      27.304  -0.433  51.197  1.00  0.00     0.164 HD
ENDBRANCH  22  25
ENDBRANCH   9  22
TORSDOF 5
ENDMDL
MODEL 8
REMARK VINA RESULT:      -8.8      3.927      6.874
REMARK  5 active torsions:
REMARK  status: ('A' for Active; 'I' for Inactive)
REMARK    1  A    between atoms: C4_6  and  N3_7 
REMARK    2  A    between atoms: N3_7  and  C5_8 
REMARK    3  A    between atoms: C13_17  and  N4_18 
REMARK    4  A    between atoms: N4_18  and  O1_19 
REMARK    5  A    between atoms: N4_18  and  C14_20 
ROOT
HETATM    1  N1  UNL     1      19.635   3.534  52.336  1.00  0.00    -0.191 NA
HETATM    2  C1  UNL     1      20.691   3.063  52.256  1.00  0.00     0.102 C 
HETATM    3  C2  UNL     1      22.009   2.487  52.151  1.00  0.00     0.073 A 
HETATM    4  C3  UNL     1      22.327   1.268  52.719  1.00  0.00     0.142 A 
HETATM    5  N2  UNL     1      23.584   0.803  52.573  1.00  0.00    -0.241 NA
HETATM    6  C4  UNL     1      24.539   1.484  51.894  1.00  0.00     0.139 A 
HETATM    7  C11 UNL     1      24.221   2.694  51.332  1.00  0.00     0.024 A 
HETATM    8  C12 UNL     1      25.249   3.321  50.659  1.00  0.00     0.048 A 
HETATM    9  C13 UNL     1      25.005   4.552  50.061  1.00  0.00     0.060 A 
HETATM   10  C18 UNL     1      23.715   5.074  50.187  1.00  0.00     0.032 A 
HETATM   11  C19 UNL     1      22.701   4.436  50.861  1.00  0.00     0.016 A 
HETATM   12  C20 UNL     1      22.953   3.222  51.447  1.00  0.00     0.000 A 
ENDROOT
BRANCH   6  13
HETATM   13  N3  UNL     1      25.785   0.808  51.867  1.00  0.00    -0.340 N 
HETATM   14  H2  UNL     1      25.660   0.099  51.110  1.00  0.00     0.167 HD
BRANCH  13  15
HETATM   15  C5  UNL     1      26.993   0.933  52.604  1.00  0.00     0.035 A 
HETATM   16  C6  UNL     1      27.335   2.187  53.072  1.00  0.00     0.029 A 
HETATM   17  C7  UNL     1      28.512   2.251  53.778  1.00  0.00     0.004 A 
HETATM   18  C8  UNL     1      29.332   1.167  54.031  1.00  0.00     0.019 A 
HETATM   19  C9  UNL     1      28.929  -0.056  53.533  1.00  0.00     0.013 A 
HETATM   20 BR1  UNL     1      30.077  -1.545  53.893  1.00  0.00    -0.051 Br
HETATM   21  C10 UNL     1      27.749  -0.199  52.809  1.00  0.00     0.048 A 
ENDBRANCH  13  15
ENDBRANCH   6  13
BRANCH   9  22
HETATM   22  N4  UNL     1      26.014   5.274  49.343  1.00  0.00    -0.237 N 
BRANCH  22  23
HETATM   23  O1  UNL     1      26.987   4.557  48.779  1.00  0.00    -0.285 OA
HETATM   24  H8  UNL     1      26.633   3.755  48.286  1.00  0.00     0.245 HD
ENDBRANCH  22  23
BRANCH  22  25
HETATM   25  C14 UNL     1      25.932   6.722  49.265  1.00  0.00     0.215 C 
HETATM   26  C15 UNL     1      26.926   7.193  48.216  1.00  0.00     0.058 C 
HETATM   27  C16 UNL     1      27.287   8.610  48.621  1.00  0.00     0.106 C 
HETATM   28  C17 UNL     1      26.817   8.631  50.051  1.00  0.00     0.219 C 
HETATM   29  O2  UNL     1      26.935   9.796  50.556  1.00  0.00    -0.274 OA
HETATM   30  N5  UNL     1      26.349   7.345  50.506  1.00  0.00    -0.338 N 
HETATM   31  H14 UNL     1      26.467   7.304  51.543  1.00  0.00     0.164 HD
ENDBRANCH  22  25
ENDBRANCH   9  22
TORSDOF 5
ENDMDL
MODEL 9
REMARK VINA RESULT:      -8.5      2.884      5.718
REMARK  5 active torsions:
REMARK  status: ('A' for Active; 'I' for Inactive)
REMARK    1  A    between atoms: C4_6  and  N3_7 
REMARK    2  A    between atoms: N3_7  and  C5_8 
REMARK    3  A    between atoms: C13_17  and  N4_18 
REMARK    4  A    between atoms: N4_18  and  O1_19 
REMARK    5  A    between atoms: N4_18  and  C14_20 
ROOT
HETATM    1  N1  UNL     1      18.125  -0.143  52.348  1.00  0.00    -0.191 NA
HETATM    2  C1  UNL     1      19.210  -0.246  52.742  1.00  0.00     0.102 C 
HETATM    3  C2  UNL     1      20.564  -0.365  53.227  1.00  0.00     0.073 A 
HETATM    4  C3  UNL     1      20.960  -1.394  54.059  1.00  0.00     0.142 A 
HETATM    5  N2  UNL     1      22.244  -1.429  54.465  1.00  0.00    -0.241 NA
HETATM    6  C4  UNL     1      23.154  -0.497  54.089  1.00  0.00     0.139 A 
HETATM    7  C11 UNL     1      22.758   0.523  53.262  1.00  0.00     0.024 A 
HETATM    8  C12 UNL     1      23.744   1.428  52.927  1.00  0.00     0.048 A 
HETATM    9  C13 UNL     1      23.420   2.491  52.092  1.00  0.00     0.060 A 
HETATM   10  C18 UNL     1      22.098   2.568  51.646  1.00  0.00     0.032 A 
HETATM   11  C19 UNL     1      21.128   1.658  51.989  1.00  0.00     0.016 A 
HETATM   12  C20 UNL     1      21.458   0.613  52.813  1.00  0.00     0.000 A 
ENDROOT
BRANCH   6  13
HETATM   13  N3  UNL     1      24.442  -0.731  54.634  1.00  0.00    -0.340 N 
HETATM   14  H2  UNL     1      24.244  -0.968  55.632  1.00  0.00     0.167 HD
BRANCH  13  15
HETATM   15  C5  UNL     1      25.760  -0.696  54.103  1.00  0.00     0.035 A 
HETATM   16  C6  UNL     1      26.098  -1.642  53.155  1.00  0.00     0.029 A 
HETATM   17  C7  UNL     1      27.383  -1.562  52.676  1.00  0.00     0.004 A 
HETATM   18  C8  UNL     1      28.311  -0.622  53.082  1.00  0.00     0.019 A 
HETATM   19  C9  UNL     1      27.906   0.292  54.034  1.00  0.00     0.013 A 
HETATM   20 BR1  UNL     1      29.205   1.586  54.584  1.00  0.00    -0.051 Br
HETATM   21  C10 UNL     1      26.620   0.275  54.565  1.00  0.00     0.048 A 
ENDBRANCH  13  15
ENDBRANCH   6  13
BRANCH   9  22
HETATM   22  N4  UNL     1      24.382   3.478  51.692  1.00  0.00    -0.237 N 
BRANCH  22  23
HETATM   23  O1  UNL     1      25.659   3.232  51.982  1.00  0.00    -0.285 OA
HETATM   24  H8  UNL     1      25.975   3.749  52.784  1.00  0.00     0.245 HD
ENDBRANCH  22  23
BRANCH  22  25
HETATM   25  C14 UNL     1      23.927   4.675  51.007  1.00  0.00     0.215 C 
HETATM   26  C15 UNL     1      24.404   4.599  49.565  1.00  0.00     0.058 C 
HETATM   27  C16 UNL     1      24.513   6.042  49.109  1.00  0.00     0.106 C 
HETATM   28  C17 UNL     1      24.514   6.765  50.429  1.00  0.00     0.219 C 
HETATM   29  O2  UNL     1      24.492   8.029  50.261  1.00  0.00    -0.274 OA
HETATM   30  N5  UNL     1      24.539   5.868  51.559  1.00  0.00    -0.338 N 
HETATM   31  H14 UNL     1      24.975   6.370  52.363  1.00  0.00     0.164 HD
ENDBRANCH  22  25
ENDBRANCH   9  22
TORSDOF 5
ENDMDL
