MODEL 1
REMARK VINA RESULT:      -7.9      0.000      0.000
REMARK  4 active torsions:
REMARK  status: ('A' for Active; 'I' for Inactive)
REMARK    1  A    between atoms: C1_2  and  C2_3 
REMARK       I    between atoms: C1_2  and  N2_14 
REMARK    2  A    between atoms: C2_3  and  C3_4 
REMARK    3  A    between atoms: N2_14  and  C10_15 
REMARK    4  A    between atoms: C10_15  and  C11_16 
ROOT
HETATM    1  C2  UNL     1      24.189   2.515  52.999  1.00  0.00     0.119 C 
ENDROOT
BRANCH   1   2
HETATM    2  C1  UNL     1      23.756   3.334  51.866  1.00  0.00     0.218 C 
HETATM    3  O1  UNL     1      22.784   3.368  51.068  1.00  0.00    -0.274 OA
HETATM    4  N2  UNL     1      24.653   4.386  51.553  1.00  0.00    -0.357 N 
HETATM    5  H8  UNL     1      25.559   4.590  52.071  1.00  0.00     0.162 HD
BRANCH   4   6
HETATM    6  C10 UNL     1      24.508   5.348  50.509  1.00  0.00     0.161 C 
BRANCH   6   7
HETATM    7  C11 UNL     1      25.747   5.604  49.728  1.00  0.00    -0.041 A 
HETATM    8  C12 UNL     1      26.513   4.489  49.372  1.00  0.00     0.009 A 
HETATM    9  C13 UNL     1      27.666   4.705  48.647  1.00  0.00     0.001 A 
HETATM   10  C14 UNL     1      28.110   5.956  48.251  1.00  0.00     0.000 A 
HETATM   11  C15 UNL     1      27.331   7.050  48.618  1.00  0.00     0.001 A 
HETATM   12  C16 UNL     1      26.162   6.874  49.347  1.00  0.00     0.009 A 
ENDBRANCH   6   7
ENDBRANCH   4   6
ENDBRANCH   1   2
BRANCH   1  13
HETATM   13  C3  UNL     1      24.832   1.227  52.635  1.00  0.00     0.091 A 
HETATM   14  C4  UNL     1      24.324   0.045  53.363  1.00  0.00     0.087 A 
HETATM   15  S1  UNL     1      22.853  -0.656  53.331  1.00  0.00    -0.065 SA
HETATM   16  N1  UNL     1      25.338  -0.524  54.210  1.00  0.00    -0.348 N 
HETATM   17  C5  UNL     1      26.515   0.294  54.031  1.00  0.00     0.053 A 
HETATM   18  H4  UNL     1      25.316  -1.343  54.846  1.00  0.00     0.166 HD
HETATM   19  P1  UNL     1      28.106   0.172  54.755  1.00  0.00    -0.003 P 
HETATM   20  C9  UNL     1      26.257   1.322  53.121  1.00  0.00    -0.019 A 
HETATM   21  C6  UNL     1      29.177   1.442  54.179  1.00  0.00     0.018 A 
HETATM   22  C7  UNL     1      28.525   2.280  53.263  1.00  0.00     0.002 A 
HETATM   23  C8  UNL     1      27.243   2.230  52.796  1.00  0.00     0.010 A 
ENDBRANCH   1  13
TORSDOF 4
ENDMDL
MODEL 2
REMARK VINA RESULT:      -7.9      3.707      6.134
REMARK  4 active torsions:
REMARK  status: ('A' for Active; 'I' for Inactive)
REMARK    1  A    between atoms: C1_2  and  C2_3 
REMARK       I    between atoms: C1_2  and  N2_14 
REMARK    2  A    between atoms: C2_3  and  C3_4 
REMARK    3  A    between atoms: N2_14  and  C10_15 
REMARK    4  A    between atoms: C10_15  and  C11_16 
ROOT
HETATM    1  C2  UNL     1      24.435   2.666  52.155  1.00  0.00     0.119 C 
ENDROOT
BRANCH   1   2
HETATM    2  C1  UNL     1      25.879   2.488  52.008  1.00  0.00     0.218 C 
HETATM    3  O1  UNL     1      26.731   2.566  51.085  1.00  0.00    -0.274 OA
HETATM    4  N2  UNL     1      26.531   2.127  53.213  1.00  0.00    -0.357 N 
HETATM    5  H8  UNL     1      26.048   1.992  54.151  1.00  0.00     0.162 HD
BRANCH   4   6
HETATM    6  C10 UNL     1      27.926   1.885  53.390  1.00  0.00     0.161 C 
BRANCH   6   7
HETATM    7  C11 UNL     1      28.318   0.452  53.323  1.00  0.00    -0.041 A 
HETATM    8  C12 UNL     1      29.633   0.137  53.681  1.00  0.00     0.009 A 
HETATM    9  C13 UNL     1      30.016  -1.186  53.626  1.00  0.00     0.001 A 
HETATM   10  C14 UNL     1      29.180  -2.220  53.238  1.00  0.00     0.000 A 
HETATM   11  C15 UNL     1      27.876  -1.882  52.885  1.00  0.00     0.001 A 
HETATM   12  C16 UNL     1      27.451  -0.560  52.929  1.00  0.00     0.009 A 
ENDBRANCH   6   7
ENDBRANCH   4   6
ENDBRANCH   1   2
BRANCH   1  13
HETATM   13  C3  UNL     1      23.601   1.688  51.411  1.00  0.00     0.091 A 
HETATM   14  C4  UNL     1      22.438   2.265  50.703  1.00  0.00     0.087 A 
HETATM   15  S1  UNL     1      22.384   3.300  49.445  1.00  0.00    -0.065 SA
HETATM   16  N1  UNL     1      21.199   1.797  51.263  1.00  0.00    -0.348 N 
HETATM   17  C5  UNL     1      21.557   0.908  52.343  1.00  0.00     0.053 A 
HETATM   18  H4  UNL     1      20.215   2.002  51.008  1.00  0.00     0.166 HD
HETATM   19  P1  UNL     1      20.547  -0.007  53.445  1.00  0.00    -0.003 P 
HETATM   20  C9  UNL     1      22.947   0.820  52.458  1.00  0.00    -0.019 A 
HETATM   21  C6  UNL     1      21.513  -0.940  54.582  1.00  0.00     0.018 A 
HETATM   22  C7  UNL     1      22.885  -0.749  54.359  1.00  0.00     0.002 A 
HETATM   23  C8  UNL     1      23.518   0.023  53.428  1.00  0.00     0.010 A 
ENDBRANCH   1  13
TORSDOF 4
ENDMDL
MODEL 3
REMARK VINA RESULT:      -7.5      4.319      6.865
REMARK  4 active torsions:
REMARK  status: ('A' for Active; 'I' for Inactive)
REMARK    1  A    between atoms: C1_2  and  C2_3 
REMARK       I    between atoms: C1_2  and  N2_14 
REMARK    2  A    between atoms: C2_3  and  C3_4 
REMARK    3  A    between atoms: N2_14  and  C10_15 
REMARK    4  A    between atoms: C10_15  and  C11_16 
ROOT
HETATM    1  C2  UNL     1      22.462   0.103  52.155  1.00  0.00     0.119 C 
ENDROOT
BRANCH   1   2
HETATM    2  C1  UNL     1      23.544   1.080  52.036  1.00  0.00     0.218 C 
HETATM    3  O1  UNL     1      23.708   2.222  51.535  1.00  0.00    -0.274 OA
HETATM    4  N2  UNL     1      24.756   0.658  52.639  1.00  0.00    -0.357 N 
HETATM    5  H8  UNL     1      24.898  -0.271  53.138  1.00  0.00     0.162 HD
BRANCH   4   6
HETATM    6  C10 UNL     1      25.982   1.385  52.688  1.00  0.00     0.161 C 
BRANCH   6   7
HETATM    7  C11 UNL     1      27.180   0.558  52.989  1.00  0.00    -0.041 A 
HETATM    8  C12 UNL     1      28.296   1.223  53.509  1.00  0.00     0.009 A 
HETATM    9  C13 UNL     1      29.417   0.473  53.795  1.00  0.00     0.001 A 
HETATM   10  C14 UNL     1      29.505  -0.896  53.600  1.00  0.00     0.000 A 
HETATM   11  C15 UNL     1      28.382  -1.535  53.083  1.00  0.00     0.001 A 
HETATM   12  C16 UNL     1      27.233  -0.815  52.782  1.00  0.00     0.009 A 
ENDBRANCH   6   7
ENDBRANCH   4   6
ENDBRANCH   1   2
BRANCH   1  13
HETATM   13  C3  UNL     1      21.585   0.277  53.341  1.00  0.00     0.091 A 
HETATM   14  C4  UNL     1      21.662  -0.807  54.342  1.00  0.00     0.087 A 
HETATM   15  S1  UNL     1      22.899  -1.267  55.298  1.00  0.00    -0.065 SA
HETATM   16  N1  UNL     1      20.418  -1.524  54.435  1.00  0.00    -0.348 N 
HETATM   17  C5  UNL     1      19.525  -0.901  53.487  1.00  0.00     0.053 A 
HETATM   18  H4  UNL     1      20.136  -2.328  55.027  1.00  0.00     0.166 HD
HETATM   19  P1  UNL     1      17.859  -1.267  53.082  1.00  0.00    -0.003 P 
HETATM   20  C9  UNL     1      20.170   0.152  52.832  1.00  0.00    -0.019 A 
HETATM   21  C6  UNL     1      17.242  -0.182  51.844  1.00  0.00     0.018 A 
HETATM   22  C7  UNL     1      18.217   0.744  51.447  1.00  0.00     0.002 A 
HETATM   23  C8  UNL     1      19.504   0.893  51.879  1.00  0.00     0.010 A 
ENDBRANCH   1  13
TORSDOF 4
ENDMDL
MODEL 4
REMARK VINA RESULT:      -7.3      4.123      6.939
REMARK  4 active torsions:
REMARK  status: ('A' for Active; 'I' for Inactive)
REMARK    1  A    between atoms: C1_2  and  C2_3 
REMARK       I    between atoms: C1_2  and  N2_14 
REMARK    2  A    between atoms: C2_3  and  C3_4 
REMARK    3  A    between atoms: N2_14  and  C10_15 
REMARK    4  A    between atoms: C10_15  and  C11_16 
ROOT
HETATM    1  C2  UNL     1      23.981   0.294  52.740  1.00  0.00     0.119 C 
ENDROOT
BRANCH   1   2
HETATM    2  C1  UNL     1      22.970  -0.352  53.578  1.00  0.00     0.218 C 
HETATM    3  O1  UNL     1      22.948  -1.093  54.594  1.00  0.00    -0.274 OA
HETATM    4  N2  UNL     1      21.640  -0.094  53.160  1.00  0.00    -0.357 N 
HETATM    5  H8  UNL     1      21.368   0.506  52.325  1.00  0.00     0.162 HD
BRANCH   4   6
HETATM    6  C10 UNL     1      20.446  -0.580  53.771  1.00  0.00     0.161 C 
BRANCH   6   7
HETATM    7  C11 UNL     1      19.245  -0.543  52.895  1.00  0.00    -0.041 A 
HETATM    8  C12 UNL     1      18.133  -1.283  53.312  1.00  0.00     0.009 A 
HETATM    9  C13 UNL     1      17.009  -1.261  52.513  1.00  0.00     0.001 A 
HETATM   10  C14 UNL     1      16.914  -0.552  51.326  1.00  0.00     0.000 A 
HETATM   11  C15 UNL     1      18.033   0.177  50.933  1.00  0.00     0.001 A 
HETATM   12  C16 UNL     1      19.185   0.181  51.710  1.00  0.00     0.009 A 
ENDBRANCH   6   7
ENDBRANCH   4   6
ENDBRANCH   1   2
BRANCH   1  13
HETATM   13  C3  UNL     1      24.518   1.571  53.273  1.00  0.00     0.091 A 
HETATM   14  C4  UNL     1      24.731   2.632  52.266  1.00  0.00     0.087 A 
HETATM   15  S1  UNL     1      23.651   3.443  51.352  1.00  0.00    -0.065 SA
HETATM   16  N1  UNL     1      26.127   2.946  52.123  1.00  0.00    -0.348 N 
HETATM   17  C5  UNL     1      26.828   2.084  53.045  1.00  0.00     0.053 A 
HETATM   18  H4  UNL     1      26.614   3.630  51.514  1.00  0.00     0.166 HD
HETATM   19  P1  UNL     1      28.541   1.939  53.387  1.00  0.00    -0.003 P 
HETATM   20  C9  UNL     1      25.924   1.270  53.732  1.00  0.00    -0.019 A 
HETATM   21  C6  UNL     1      28.853   0.717  54.614  1.00  0.00     0.018 A 
HETATM   22  C7  UNL     1      27.661   0.123  55.054  1.00  0.00     0.002 A 
HETATM   23  C8  UNL     1      26.373   0.363  54.668  1.00  0.00     0.010 A 
ENDBRANCH   1  13
TORSDOF 4
ENDMDL
MODEL 5
REMARK VINA RESULT:      -7.2      1.621      1.836
REMARK  4 active torsions:
REMARK  status: ('A' for Active; 'I' for Inactive)
REMARK    1  A    between atoms: C1_2  and  C2_3 
REMARK       I    between atoms: C1_2  and  N2_14 
REMARK    2  A    between atoms: C2_3  and  C3_4 
REMARK    3  A    between atoms: N2_14  and  C10_15 
REMARK    4  A    between atoms: C10_15  and  C11_16 
ROOT
HETATM    1  C2  UNL     1      23.790   3.686  52.585  1.00  0.00     0.119 C 
ENDROOT
BRANCH   1   2
HETATM    2  C1  UNL     1      23.706   4.795  51.636  1.00  0.00     0.218 C 
HETATM    3  O1  UNL     1      23.180   5.937  51.592  1.00  0.00    -0.274 OA
HETATM    4  N2  UNL     1      24.395   4.554  50.421  1.00  0.00    -0.357 N 
HETATM    5  H8  UNL     1      24.931   3.664  50.189  1.00  0.00     0.162 HD
BRANCH   4   6
HETATM    6  C10 UNL     1      24.496   5.440  49.307  1.00  0.00     0.161 C 
BRANCH   6   7
HETATM    7  C11 UNL     1      25.888   5.728  48.871  1.00  0.00    -0.041 A 
HETATM    8  C12 UNL     1      26.815   4.686  48.979  1.00  0.00     0.009 A 
HETATM    9  C13 UNL     1      28.111   4.933  48.580  1.00  0.00     0.001 A 
HETATM   10  C14 UNL     1      28.551   6.148  48.079  1.00  0.00     0.000 A 
HETATM   11  C15 UNL     1      27.610   7.170  47.981  1.00  0.00     0.001 A 
HETATM   12  C16 UNL     1      26.294   6.960  48.372  1.00  0.00     0.009 A 
ENDBRANCH   6   7
ENDBRANCH   4   6
ENDBRANCH   1   2
BRANCH   1  13
HETATM   13  C3  UNL     1      23.603   2.337  51.995  1.00  0.00     0.091 A 
HETATM   14  C4  UNL     1      22.528   1.527  52.606  1.00  0.00     0.087 A 
HETATM   15  S1  UNL     1      20.915   1.766  52.624  1.00  0.00    -0.065 SA
HETATM   16  N1  UNL     1      23.059   0.366  53.269  1.00  0.00    -0.348 N 
HETATM   17  C5  UNL     1      24.490   0.420  53.087  1.00  0.00     0.053 A 
HETATM   18  H4  UNL     1      22.589  -0.397  53.791  1.00  0.00     0.166 HD
HETATM   19  P1  UNL     1      25.749  -0.672  53.632  1.00  0.00    -0.003 P 
HETATM   20  C9  UNL     1      24.843   1.553  52.349  1.00  0.00    -0.019 A 
HETATM   21  C6  UNL     1      27.342  -0.124  53.127  1.00  0.00     0.018 A 
HETATM   22  C7  UNL     1      27.261   1.070  52.396  1.00  0.00     0.002 A 
HETATM   23  C8  UNL     1      26.165   1.809  52.053  1.00  0.00     0.010 A 
ENDBRANCH   1  13
TORSDOF 4
ENDMDL
MODEL 6
REMARK VINA RESULT:      -7.1      2.024      2.885
REMARK  4 active torsions:
REMARK  status: ('A' for Active; 'I' for Inactive)
REMARK    1  A    between atoms: C1_2  and  C2_3 
REMARK       I    between atoms: C1_2  and  N2_14 
REMARK    2  A    between atoms: C2_3  and  C3_4 
REMARK    3  A    between atoms: N2_14  and  C10_15 
REMARK    4  A    between atoms: C10_15  and  C11_16 
ROOT
HETATM    1  C2  UNL     1      24.387   2.870  53.433  1.00  0.00     0.119 C 
ENDROOT
BRANCH   1   2
HETATM    2  C1  UNL     1      23.920   3.888  52.492  1.00  0.00     0.218 C 
HETATM    3  O1  UNL     1      23.031   4.778  52.459  1.00  0.00    -0.274 OA
HETATM    4  N2  UNL     1      24.645   3.909  51.274  1.00  0.00    -0.357 N 
HETATM    5  H8  UNL     1      25.454   3.262  51.035  1.00  0.00     0.162 HD
BRANCH   4   6
HETATM    6  C10 UNL     1      24.428   4.783  50.167  1.00  0.00     0.161 C 
BRANCH   6   7
HETATM    7  C11 UNL     1      23.599   4.205  49.077  1.00  0.00    -0.041 A 
HETATM    8  C12 UNL     1      23.059   5.102  48.148  1.00  0.00     0.009 A 
HETATM    9  C13 UNL     1      22.287   4.585  47.128  1.00  0.00     0.001 A 
HETATM   10  C14 UNL     1      22.016   3.236  46.968  1.00  0.00     0.000 A 
HETATM   11  C15 UNL     1      22.564   2.364  47.904  1.00  0.00     0.001 A 
HETATM   12  C16 UNL     1      23.348   2.845  48.946  1.00  0.00     0.009 A 
ENDBRANCH   6   7
ENDBRANCH   4   6
ENDBRANCH   1   2
BRANCH   1  13
HETATM   13  C3  UNL     1      24.952   1.648  52.807  1.00  0.00     0.091 A 
HETATM   14  C4  UNL     1      24.375   0.373  53.286  1.00  0.00     0.087 A 
HETATM   15  S1  UNL     1      22.864  -0.218  53.130  1.00  0.00    -0.065 SA
HETATM   16  N1  UNL     1      25.353  -0.414  53.989  1.00  0.00    -0.348 N 
HETATM   17  C5  UNL     1      26.576   0.353  53.966  1.00  0.00     0.053 A 
HETATM   18  H4  UNL     1      25.282  -1.342  54.445  1.00  0.00     0.166 HD
HETATM   19  P1  UNL     1      28.157  -0.007  54.631  1.00  0.00    -0.003 P 
HETATM   20  C9  UNL     1      26.380   1.558  53.286  1.00  0.00    -0.019 A 
HETATM   21  C6  UNL     1      29.302   1.290  54.311  1.00  0.00     0.018 A 
HETATM   22  C7  UNL     1      28.701   2.333  53.592  1.00  0.00     0.002 A 
HETATM   23  C8  UNL     1      27.418   2.454  53.141  1.00  0.00     0.010 A 
ENDBRANCH   1  13
TORSDOF 4
ENDMDL
MODEL 7
REMARK VINA RESULT:      -6.9      3.558      6.528
REMARK  4 active torsions:
REMARK  status: ('A' for Active; 'I' for Inactive)
REMARK    1  A    between atoms: C1_2  and  C2_3 
REMARK       I    between atoms: C1_2  and  N2_14 
REMARK    2  A    between atoms: C2_3  and  C3_4 
REMARK    3  A    between atoms: N2_14  and  C10_15 
REMARK    4  A    between atoms: C10_15  and  C11_16 
ROOT
HETATM    1  C2  UNL     1      24.795   2.861  50.537  1.00  0.00     0.119 C 
ENDROOT
BRANCH   1   2
HETATM    2  C1  UNL     1      25.011   2.364  51.896  1.00  0.00     0.218 C 
HETATM    3  O1  UNL     1      24.895   2.803  53.069  1.00  0.00    -0.274 OA
HETATM    4  N2  UNL     1      25.478   1.027  51.943  1.00  0.00    -0.357 N 
HETATM    5  H8  UNL     1      25.664   0.415  51.093  1.00  0.00     0.162 HD
BRANCH   4   6
HETATM    6  C10 UNL     1      25.779   0.269  53.114  1.00  0.00     0.161 C 
BRANCH   6   7
HETATM    7  C11 UNL     1      27.208  -0.115  53.251  1.00  0.00    -0.041 A 
HETATM    8  C12 UNL     1      28.103   0.894  53.623  1.00  0.00     0.009 A 
HETATM    9  C13 UNL     1      29.434   0.558  53.756  1.00  0.00     0.001 A 
HETATM   10  C14 UNL     1      29.937  -0.715  53.544  1.00  0.00     0.000 A 
HETATM   11  C15 UNL     1      29.028  -1.702  53.175  1.00  0.00     0.001 A 
HETATM   12  C16 UNL     1      27.679  -1.404  53.031  1.00  0.00     0.009 A 
ENDBRANCH   6   7
ENDBRANCH   4   6
ENDBRANCH   1   2
BRANCH   1  13
HETATM   13  C3  UNL     1      23.493   3.539  50.314  1.00  0.00     0.091 A 
HETATM   14  C4  UNL     1      23.226   4.692  51.199  1.00  0.00     0.087 A 
HETATM   15  S1  UNL     1      23.983   6.132  51.303  1.00  0.00    -0.065 SA
HETATM   16  N1  UNL     1      22.115   4.434  52.076  1.00  0.00    -0.348 N 
HETATM   17  C5  UNL     1      21.655   3.103  51.758  1.00  0.00     0.053 A 
HETATM   18  H4  UNL     1      21.673   5.020  52.808  1.00  0.00     0.166 HD
HETATM   19  P1  UNL     1      20.343   2.160  52.438  1.00  0.00    -0.003 P 
HETATM   20  C9  UNL     1      22.433   2.551  50.736  1.00  0.00    -0.019 A 
HETATM   21  C6  UNL     1      20.219   0.581  51.673  1.00  0.00     0.018 A 
HETATM   22  C7  UNL     1      21.199   0.417  50.683  1.00  0.00     0.002 A 
HETATM   23  C8  UNL     1      22.173   1.280  50.269  1.00  0.00     0.010 A 
ENDBRANCH   1  13
TORSDOF 4
ENDMDL
MODEL 8
REMARK VINA RESULT:      -6.9      4.159      6.886
REMARK  4 active torsions:
REMARK  status: ('A' for Active; 'I' for Inactive)
REMARK    1  A    between atoms: C1_2  and  C2_3 
REMARK       I    between atoms: C1_2  and  N2_14 
REMARK    2  A    between atoms: C2_3  and  C3_4 
REMARK    3  A    between atoms: N2_14  and  C10_15 
REMARK    4  A    between atoms: C10_15  and  C11_16 
ROOT
HETATM    1  C2  UNL     1      23.179   1.130  52.983  1.00  0.00     0.119 C 
ENDROOT
BRANCH   1   2
HETATM    2  C1  UNL     1      22.164   1.130  51.930  1.00  0.00     0.218 C 
HETATM    3  O1  UNL     1      22.135   1.182  50.673  1.00  0.00    -0.274 OA
HETATM    4  N2  UNL     1      20.837   1.049  52.423  1.00  0.00    -0.357 N 
HETATM    5  H8  UNL     1      20.571   0.993  53.452  1.00  0.00     0.162 HD
BRANCH   4   6
HETATM    6  C10 UNL     1      19.639   1.029  51.649  1.00  0.00     0.161 C 
BRANCH   6   7
HETATM    7  C11 UNL     1      18.654  -0.004  52.062  1.00  0.00    -0.041 A 
HETATM    8  C12 UNL     1      17.475  -0.091  51.314  1.00  0.00     0.009 A 
HETATM    9  C13 UNL     1      16.548  -1.044  51.681  1.00  0.00     0.001 A 
HETATM   10  C14 UNL     1      16.712  -1.917  52.744  1.00  0.00     0.000 A 
HETATM   11  C15 UNL     1      17.893  -1.812  53.473  1.00  0.00     0.001 A 
HETATM   12  C16 UNL     1      18.852  -0.866  53.134  1.00  0.00     0.009 A 
ENDBRANCH   6   7
ENDBRANCH   4   6
ENDBRANCH   1   2
BRANCH   1  13
HETATM   13  C3  UNL     1      23.967  -0.123  53.097  1.00  0.00     0.091 A 
HETATM   14  C4  UNL     1      23.813  -0.846  54.378  1.00  0.00     0.087 A 
HETATM   15  S1  UNL     1      22.507  -1.584  55.016  1.00  0.00    -0.065 SA
HETATM   16  N1  UNL     1      25.044  -0.863  55.122  1.00  0.00    -0.348 N 
HETATM   17  C5  UNL     1      26.007  -0.146  54.319  1.00  0.00     0.053 A 
HETATM   18  H4  UNL     1      25.280  -1.276  56.043  1.00  0.00     0.166 HD
HETATM   19  P1  UNL     1      27.697   0.212  54.619  1.00  0.00    -0.003 P 
HETATM   20  C9  UNL     1      25.415   0.299  53.134  1.00  0.00    -0.019 A 
HETATM   21  C6  UNL     1      28.407   1.126  53.295  1.00  0.00     0.018 A 
HETATM   22  C7  UNL     1      27.467   1.372  52.284  1.00  0.00     0.002 A 
HETATM   23  C8  UNL     1      26.152   1.010  52.210  1.00  0.00     0.010 A 
ENDBRANCH   1  13
TORSDOF 4
ENDMDL
MODEL 9
REMARK VINA RESULT:      -6.8      3.869      7.418
REMARK  4 active torsions:
REMARK  status: ('A' for Active; 'I' for Inactive)
REMARK    1  A    between atoms: C1_2  and  C2_3 
REMARK       I    between atoms: C1_2  and  N2_14 
REMARK    2  A    between atoms: C2_3  and  C3_4 
REMARK    3  A    between atoms: N2_14  and  C10_15 
REMARK    4  A    between atoms: C10_15  and  C11_16 
ROOT
HETATM    1  C2  UNL     1      26.866   4.842  48.811  1.00  0.00     0.119 C 
ENDROOT
BRANCH   1   2
HETATM    2  C1  UNL     1      26.013   4.237  49.834  1.00  0.00     0.218 C 
HETATM    3  O1  UNL     1      24.801   4.280  50.171  1.00  0.00    -0.274 OA
HETATM    4  N2  UNL     1      26.706   3.357  50.701  1.00  0.00    -0.357 N 
HETATM    5  H8  UNL     1      27.745   3.134  50.642  1.00  0.00     0.162 HD
BRANCH   4   6
HETATM    6  C10 UNL     1      26.152   2.620  51.791  1.00  0.00     0.161 C 
BRANCH   6   7
HETATM    7  C11 UNL     1      27.122   1.748  52.504  1.00  0.00    -0.041 A 
HETATM    8  C12 UNL     1      26.960   0.366  52.356  1.00  0.00     0.009 A 
HETATM    9  C13 UNL     1      27.849  -0.460  53.010  1.00  0.00     0.001 A 
HETATM   10  C14 UNL     1      28.892  -0.006  53.802  1.00  0.00     0.000 A 
HETATM   11  C15 UNL     1      29.033   1.373  53.933  1.00  0.00     0.001 A 
HETATM   12  C16 UNL     1      28.158   2.239  53.290  1.00  0.00     0.009 A 
ENDBRANCH   6   7
ENDBRANCH   4   6
ENDBRANCH   1   2
BRANCH   1  13
HETATM   13  C3  UNL     1      27.037   6.312  48.923  1.00  0.00     0.091 A 
HETATM   14  C4  UNL     1      26.023   7.119  48.212  1.00  0.00     0.087 A 
HETATM   15  S1  UNL     1      24.421   7.264  48.481  1.00  0.00    -0.065 SA
HETATM   16  N1  UNL     1      26.609   7.865  47.131  1.00  0.00    -0.348 N 
HETATM   17  C5  UNL     1      28.017   7.541  47.139  1.00  0.00     0.053 A 
HETATM   18  H4  UNL     1      26.188   8.517  46.444  1.00  0.00     0.166 HD
HETATM   19  P1  UNL     1      29.316   8.093  46.100  1.00  0.00    -0.003 P 
HETATM   20  C9  UNL     1      28.302   6.641  48.169  1.00  0.00    -0.019 A 
HETATM   21  C6  UNL     1      30.856   7.376  46.557  1.00  0.00     0.018 A 
HETATM   22  C7  UNL     1      30.711   6.517  47.656  1.00  0.00     0.002 A 
HETATM   23  C8  UNL     1      29.591   6.192  48.366  1.00  0.00     0.010 A 
ENDBRANCH   1  13
TORSDOF 4
ENDMDL
