MODEL 1
REMARK VINA RESULT:      -7.8      0.000      0.000
REMARK  3 active torsions:
REMARK  status: ('A' for Active; 'I' for Inactive)
REMARK    1  A    between atoms: O1_2  and  C2_3 
REMARK    2  A    between atoms: C6_7  and  N1_8 
REMARK    3  A    between atoms: N1_8  and  C7_9 
ROOT
HETATM    1  C2  UNL     1      26.951   1.983  52.361  1.00  0.00     0.070 A 
HETATM    2  C3  UNL     1      25.726   1.493  52.270  1.00  0.00     0.050 A 
HETATM    3  C4  UNL     1      25.254   0.612  53.332  1.00  0.00     0.019 A 
HETATM    4  C5  UNL     1      24.007   0.157  53.167  1.00  0.00     0.037 A 
HETATM    5  C6  UNL     1      23.122  -0.743  53.965  1.00  0.00     0.231 A 
HETATM    6  N2  UNL     1      23.688  -1.241  55.162  1.00  0.00    -0.253 NA
HETATM    7  C13 UNL     1      24.778  -1.148  55.789  1.00  0.00     0.232 A 
HETATM    8  N3  UNL     1      25.952  -0.412  55.450  1.00  0.00    -0.217 NA
HETATM    9  C14 UNL     1      26.162   0.340  54.405  1.00  0.00     0.176 A 
HETATM   10  O2  UNL     1      27.430   0.871  54.458  1.00  0.00    -0.327 OA
HETATM   11  C15 UNL     1      27.922   1.729  53.451  1.00  0.00     0.241 A 
ENDROOT
BRANCH   5  12
HETATM   12  N1  UNL     1      21.862  -0.066  54.200  1.00  0.00    -0.364 N 
HETATM   13  H7  UNL     1      21.879   0.617  55.002  1.00  0.00     0.162 HD
BRANCH  12  14
HETATM   14  C7  UNL     1      20.639  -0.205  53.499  1.00  0.00     0.031 A 
HETATM   15  C8  UNL     1      20.179   0.649  52.523  1.00  0.00     0.029 A 
HETATM   16  C9  UNL     1      18.983   0.511  51.854  1.00  0.00     0.004 A 
HETATM   17  C10 UNL     1      18.170  -0.547  52.161  1.00  0.00     0.019 A 
HETATM   18  C11 UNL     1      18.595  -1.421  53.127  1.00  0.00     0.013 A 
HETATM   19 BR1  UNL     1      17.511  -2.920  53.605  1.00  0.00    -0.051 Br
HETATM   20  C12 UNL     1      19.797  -1.257  53.780  1.00  0.00     0.048 A 
ENDBRANCH  12  14
ENDBRANCH   5  12
BRANCH   1  21
HETATM   21  O1  UNL     1      27.337   2.800  51.338  1.00  0.00    -0.358 OA
HETATM   22  C1  UNL     1      26.351   3.317  50.465  1.00  0.00     0.209 C 
ENDBRANCH   1  21
TORSDOF 3
ENDMDL
MODEL 2
REMARK VINA RESULT:      -7.7      4.191      7.347
REMARK  3 active torsions:
REMARK  status: ('A' for Active; 'I' for Inactive)
REMARK    1  A    between atoms: O1_2  and  C2_3 
REMARK    2  A    between atoms: C6_7  and  N1_8 
REMARK    3  A    between atoms: N1_8  and  C7_9 
ROOT
HETATM    1  C2  UNL     1      19.527   0.244  51.877  1.00  0.00     0.070 A 
HETATM    2  C3  UNL     1      20.824   0.504  51.878  1.00  0.00     0.050 A 
HETATM    3  C4  UNL     1      21.645  -0.084  52.930  1.00  0.00     0.019 A 
HETATM    4  C5  UNL     1      22.944   0.226  52.863  1.00  0.00     0.037 A 
HETATM    5  C6  UNL     1      24.135  -0.128  53.693  1.00  0.00     0.231 A 
HETATM    6  N2  UNL     1      23.872  -0.975  54.795  1.00  0.00    -0.253 NA
HETATM    7  C13 UNL     1      22.879  -1.549  55.316  1.00  0.00     0.232 A 
HETATM    8  N3  UNL     1      21.512  -1.530  54.908  1.00  0.00    -0.217 NA
HETATM    9  C14 UNL     1      20.979  -0.909  53.893  1.00  0.00     0.176 A 
HETATM   10  O2  UNL     1      19.625  -1.151  53.854  1.00  0.00    -0.327 OA
HETATM   11  C15 UNL     1      18.798  -0.601  52.852  1.00  0.00     0.241 A 
ENDROOT
BRANCH   5  12
HETATM   12  N1  UNL     1      25.162  -0.668  52.824  1.00  0.00    -0.364 N 
HETATM   13  H7  UNL     1      24.799  -1.075  51.923  1.00  0.00     0.162 HD
BRANCH  12  14
HETATM   14  C7  UNL     1      26.563  -0.712  53.032  1.00  0.00     0.031 A 
HETATM   15  C8  UNL     1      27.359  -1.820  52.856  1.00  0.00     0.029 A 
HETATM   16  C9  UNL     1      28.720  -1.855  53.071  1.00  0.00     0.004 A 
HETATM   17  C10 UNL     1      29.354  -0.718  53.491  1.00  0.00     0.019 A 
HETATM   18  C11 UNL     1      28.594   0.408  53.676  1.00  0.00     0.013 A 
HETATM   19 BR1  UNL     1      29.414   2.032  54.261  1.00  0.00    -0.051 Br
HETATM   20  C12 UNL     1      27.234   0.413  53.454  1.00  0.00     0.048 A 
ENDBRANCH  12  14
ENDBRANCH   5  12
BRANCH   1  21
HETATM   21  O1  UNL     1      18.811   0.822  50.870  1.00  0.00    -0.358 OA
HETATM   22  C1  UNL     1      17.748   0.099  50.281  1.00  0.00     0.209 C 
ENDBRANCH   1  21
TORSDOF 3
ENDMDL
MODEL 3
REMARK VINA RESULT:      -7.7      1.825      2.107
REMARK  3 active torsions:
REMARK  status: ('A' for Active; 'I' for Inactive)
REMARK    1  A    between atoms: O1_2  and  C2_3 
REMARK    2  A    between atoms: C6_7  and  N1_8 
REMARK    3  A    between atoms: N1_8  and  C7_9 
ROOT
HETATM    1  C2  UNL     1      26.754   1.166  52.741  1.00  0.00     0.070 A 
HETATM    2  C3  UNL     1      25.473   0.869  52.600  1.00  0.00     0.050 A 
HETATM    3  C4  UNL     1      24.835   0.056  53.629  1.00  0.00     0.019 A 
HETATM    4  C5  UNL     1      23.540  -0.201  53.414  1.00  0.00     0.037 A 
HETATM    5  C6  UNL     1      22.500  -0.966  54.166  1.00  0.00     0.231 A 
HETATM    6  N2  UNL     1      22.941  -1.560  55.371  1.00  0.00    -0.253 NA
HETATM    7  C13 UNL     1      24.009  -1.642  56.036  1.00  0.00     0.232 A 
HETATM    8  N3  UNL     1      25.293  -1.089  55.751  1.00  0.00    -0.217 NA
HETATM    9  C14 UNL     1      25.652  -0.364  54.727  1.00  0.00     0.176 A 
HETATM   10  O2  UNL     1      26.983  -0.033  54.833  1.00  0.00    -0.327 OA
HETATM   11  C15 UNL     1      27.635   0.753  53.858  1.00  0.00     0.241 A 
ENDROOT
BRANCH   5  12
HETATM   12  N1  UNL     1      21.350  -0.108  54.371  1.00  0.00    -0.364 N 
HETATM   13  H7  UNL     1      21.261   0.274  55.349  1.00  0.00     0.162 HD
BRANCH  12  14
HETATM   14  C7  UNL     1      20.353   0.272  53.438  1.00  0.00     0.031 A 
HETATM   15  C8  UNL     1      19.304  -0.518  53.027  1.00  0.00     0.029 A 
HETATM   16  C9  UNL     1      18.346  -0.142  52.112  1.00  0.00     0.004 A 
HETATM   17  C10 UNL     1      18.417   1.105  51.553  1.00  0.00     0.019 A 
HETATM   18  C11 UNL     1      19.447   1.922  51.938  1.00  0.00     0.013 A 
HETATM   19 BR1  UNL     1      19.607   3.677  51.198  1.00  0.00    -0.051 Br
HETATM   20  C12 UNL     1      20.392   1.519  52.856  1.00  0.00     0.048 A 
ENDBRANCH  12  14
ENDBRANCH   5  12
BRANCH   1  21
HETATM   21  O1  UNL     1      27.296   1.928  51.747  1.00  0.00    -0.358 OA
HETATM   22  C1  UNL     1      26.432   2.628  50.872  1.00  0.00     0.209 C 
ENDBRANCH   1  21
TORSDOF 3
ENDMDL
MODEL 4
REMARK VINA RESULT:      -7.5      5.124      7.914
REMARK  3 active torsions:
REMARK  status: ('A' for Active; 'I' for Inactive)
REMARK    1  A    between atoms: O1_2  and  C2_3 
REMARK    2  A    between atoms: C6_7  and  N1_8 
REMARK    3  A    between atoms: N1_8  and  C7_9 
ROOT
HETATM    1  C2  UNL     1      26.711  -0.018  53.787  1.00  0.00     0.070 A 
HETATM    2  C3  UNL     1      27.055   0.876  52.875  1.00  0.00     0.050 A 
HETATM    3  C4  UNL     1      26.006   1.445  52.036  1.00  0.00     0.019 A 
HETATM    4  C5  UNL     1      26.433   2.339  51.138  1.00  0.00     0.037 A 
HETATM    5  C6  UNL     1      25.750   3.161  50.094  1.00  0.00     0.231 A 
HETATM    6  N2  UNL     1      24.350   2.985  50.007  1.00  0.00    -0.253 NA
HETATM    7  C13 UNL     1      23.457   2.303  50.578  1.00  0.00     0.232 A 
HETATM    8  N3  UNL     1      23.586   1.359  51.640  1.00  0.00    -0.217 NA
HETATM    9  C14 UNL     1      24.668   0.988  52.266  1.00  0.00     0.176 A 
HETATM   10  O2  UNL     1      24.357   0.054  53.227  1.00  0.00    -0.327 OA
HETATM   11  C15 UNL     1      25.343  -0.518  54.058  1.00  0.00     0.241 A 
ENDROOT
BRANCH   5  12
HETATM   12  N1  UNL     1      26.114   4.551  50.287  1.00  0.00    -0.364 N 
HETATM   13  H7  UNL     1      26.375   4.798  51.278  1.00  0.00     0.162 HD
BRANCH  12  14
HETATM   14  C7  UNL     1      26.162   5.594  49.330  1.00  0.00     0.031 A 
HETATM   15  C8  UNL     1      25.077   6.313  48.880  1.00  0.00     0.029 A 
HETATM   16  C9  UNL     1      25.133   7.318  47.940  1.00  0.00     0.004 A 
HETATM   17  C10 UNL     1      26.344   7.650  47.396  1.00  0.00     0.019 A 
HETATM   18  C11 UNL     1      27.448   6.957  47.820  1.00  0.00     0.013 A 
HETATM   19 BR1  UNL     1      29.171   7.369  47.103  1.00  0.00    -0.051 Br
HETATM   20  C12 UNL     1      27.362   5.956  48.762  1.00  0.00     0.048 A 
ENDBRANCH  12  14
ENDBRANCH   5  12
BRANCH   1  21
HETATM   21  O1  UNL     1      27.735  -0.514  54.541  1.00  0.00    -0.358 OA
HETATM   22  C1  UNL     1      29.054  -0.079  54.276  1.00  0.00     0.209 C 
ENDBRANCH   1  21
TORSDOF 3
ENDMDL
MODEL 5
REMARK VINA RESULT:      -7.4      3.946      6.980
REMARK  3 active torsions:
REMARK  status: ('A' for Active; 'I' for Inactive)
REMARK    1  A    between atoms: O1_2  and  C2_3 
REMARK    2  A    between atoms: C6_7  and  N1_8 
REMARK    3  A    between atoms: N1_8  and  C7_9 
ROOT
HETATM    1  C2  UNL     1      20.676  -0.428  53.482  1.00  0.00     0.070 A 
HETATM    2  C3  UNL     1      21.372   0.555  52.936  1.00  0.00     0.050 A 
HETATM    3  C4  UNL     1      22.813   0.589  53.160  1.00  0.00     0.019 A 
HETATM    4  C5  UNL     1      23.445   1.613  52.576  1.00  0.00     0.037 A 
HETATM    5  C6  UNL     1      24.872   2.051  52.525  1.00  0.00     0.231 A 
HETATM    6  N2  UNL     1      25.782   1.232  53.233  1.00  0.00    -0.253 NA
HETATM    7  C13 UNL     1      25.745   0.185  53.934  1.00  0.00     0.232 A 
HETATM    8  N3  UNL     1      24.624  -0.622  54.290  1.00  0.00    -0.217 NA
HETATM    9  C14 UNL     1      23.372  -0.456  53.965  1.00  0.00     0.176 A 
HETATM   10  O2  UNL     1      22.608  -1.459  54.515  1.00  0.00    -0.327 OA
HETATM   11  C15 UNL     1      21.212  -1.526  54.319  1.00  0.00     0.241 A 
ENDROOT
BRANCH   5  12
HETATM   12  N1  UNL     1      25.256   2.219  51.137  1.00  0.00    -0.364 N 
HETATM   13  H7  UNL     1      25.269   1.325  50.579  1.00  0.00     0.162 HD
BRANCH  12  14
HETATM   14  C7  UNL     1      25.607   3.409  50.454  1.00  0.00     0.031 A 
HETATM   15  C8  UNL     1      26.648   3.539  49.563  1.00  0.00     0.029 A 
HETATM   16  C9  UNL     1      26.987   4.705  48.911  1.00  0.00     0.004 A 
HETATM   17  C10 UNL     1      26.252   5.834  49.148  1.00  0.00     0.019 A 
HETATM   18  C11 UNL     1      25.206   5.745  50.030  1.00  0.00     0.013 A 
HETATM   19 BR1  UNL     1      24.137   7.282  50.407  1.00  0.00    -0.051 Br
HETATM   20  C12 UNL     1      24.890   4.565  50.667  1.00  0.00     0.048 A 
ENDBRANCH  12  14
ENDBRANCH   5  12
BRANCH   1  21
HETATM   21  O1  UNL     1      19.333  -0.405  53.238  1.00  0.00    -0.358 OA
HETATM   22  C1  UNL     1      18.879  -0.086  51.937  1.00  0.00     0.209 C 
ENDBRANCH   1  21
TORSDOF 3
ENDMDL
MODEL 6
REMARK VINA RESULT:      -7.3      4.687      7.663
REMARK  3 active torsions:
REMARK  status: ('A' for Active; 'I' for Inactive)
REMARK    1  A    between atoms: O1_2  and  C2_3 
REMARK    2  A    between atoms: C6_7  and  N1_8 
REMARK    3  A    between atoms: N1_8  and  C7_9 
ROOT
HETATM    1  C2  UNL     1      22.185   0.430  53.219  1.00  0.00     0.070 A 
HETATM    2  C3  UNL     1      22.826   1.417  52.617  1.00  0.00     0.050 A 
HETATM    3  C4  UNL     1      24.272   1.307  52.459  1.00  0.00     0.019 A 
HETATM    4  C5  UNL     1      24.847   2.345  51.843  1.00  0.00     0.037 A 
HETATM    5  C6  UNL     1      26.256   2.672  51.467  1.00  0.00     0.231 A 
HETATM    6  N2  UNL     1      27.217   1.698  51.821  1.00  0.00    -0.253 NA
HETATM    7  C13 UNL     1      27.242   0.574  52.393  1.00  0.00     0.232 A 
HETATM    8  N3  UNL     1      26.163  -0.181  52.942  1.00  0.00    -0.217 NA
HETATM    9  C14 UNL     1      24.895   0.125  52.974  1.00  0.00     0.176 A 
HETATM   10  O2  UNL     1      24.187  -0.878  53.595  1.00  0.00    -0.327 OA
HETATM   11  C15 UNL     1      22.788  -0.808  53.765  1.00  0.00     0.241 A 
ENDROOT
BRANCH   5  12
HETATM   12  N1  UNL     1      26.297   2.989  50.053  1.00  0.00    -0.364 N 
HETATM   13  H7  UNL     1      26.303   2.148  49.420  1.00  0.00     0.162 HD
BRANCH  12  14
HETATM   14  C7  UNL     1      26.328   4.263  49.433  1.00  0.00     0.031 A 
HETATM   15  C8  UNL     1      25.243   5.091  49.261  1.00  0.00     0.029 A 
HETATM   16  C9  UNL     1      25.282   6.324  48.647  1.00  0.00     0.004 A 
HETATM   17  C10 UNL     1      26.476   6.785  48.162  1.00  0.00     0.019 A 
HETATM   18  C11 UNL     1      27.580   5.989  48.316  1.00  0.00     0.013 A 
HETATM   19 BR1  UNL     1      29.279   6.571  47.664  1.00  0.00    -0.051 Br
HETATM   20  C12 UNL     1      27.511   4.760  48.935  1.00  0.00     0.048 A 
ENDBRANCH  12  14
ENDBRANCH   5  12
BRANCH   1  21
HETATM   21  O1  UNL     1      20.834   0.590  53.337  1.00  0.00    -0.358 OA
HETATM   22  C1  UNL     1      20.039  -0.528  53.678  1.00  0.00     0.209 C 
ENDBRANCH   1  21
TORSDOF 3
ENDMDL
MODEL 7
REMARK VINA RESULT:      -7.3      3.512      5.300
REMARK  3 active torsions:
REMARK  status: ('A' for Active; 'I' for Inactive)
REMARK    1  A    between atoms: O1_2  and  C2_3 
REMARK    2  A    between atoms: C6_7  and  N1_8 
REMARK    3  A    between atoms: N1_8  and  C7_9 
ROOT
HETATM    1  C2  UNL     1      25.133  -0.835  54.598  1.00  0.00     0.070 A 
HETATM    2  C3  UNL     1      24.535  -0.382  53.509  1.00  0.00     0.050 A 
HETATM    3  C4  UNL     1      23.077  -0.416  53.458  1.00  0.00     0.019 A 
HETATM    4  C5  UNL     1      22.547   0.058  52.325  1.00  0.00     0.037 A 
HETATM    5  C6  UNL     1      21.148   0.220  51.829  1.00  0.00     0.231 A 
HETATM    6  N2  UNL     1      20.137  -0.206  52.721  1.00  0.00    -0.253 NA
HETATM    7  C13 UNL     1      20.061  -0.712  53.873  1.00  0.00     0.232 A 
HETATM    8  N3  UNL     1      21.110  -1.066  54.772  1.00  0.00    -0.217 NA
HETATM    9  C14 UNL     1      22.397  -0.943  54.603  1.00  0.00     0.176 A 
HETATM   10  O2  UNL     1      23.062  -1.406  55.715  1.00  0.00    -0.327 OA
HETATM   11  C15 UNL     1      24.471  -1.388  55.802  1.00  0.00     0.241 A 
ENDROOT
BRANCH   5  12
HETATM   12  N1  UNL     1      20.961   1.596  51.410  1.00  0.00    -0.364 N 
HETATM   13  H7  UNL     1      20.063   2.033  51.746  1.00  0.00     0.162 HD
BRANCH  12  14
HETATM   14  C7  UNL     1      21.817   2.406  50.625  1.00  0.00     0.031 A 
HETATM   15  C8  UNL     1      22.222   2.125  49.340  1.00  0.00     0.029 A 
HETATM   16  C9  UNL     1      23.064   2.914  48.588  1.00  0.00     0.004 A 
HETATM   17  C10 UNL     1      23.550   4.071  49.134  1.00  0.00     0.019 A 
HETATM   18  C11 UNL     1      23.169   4.386  50.412  1.00  0.00     0.013 A 
HETATM   19 BR1  UNL     1      23.810   5.987  51.236  1.00  0.00    -0.051 Br
HETATM   20  C12 UNL     1      22.325   3.577  51.141  1.00  0.00     0.048 A 
ENDBRANCH  12  14
ENDBRANCH   5  12
BRANCH   1  21
HETATM   21  O1  UNL     1      26.497  -0.778  54.587  1.00  0.00    -0.358 OA
HETATM   22  C1  UNL     1      27.131   0.486  54.610  1.00  0.00     0.209 C 
ENDBRANCH   1  21
TORSDOF 3
ENDMDL
MODEL 8
REMARK VINA RESULT:      -7.3      2.932      4.688
REMARK  3 active torsions:
REMARK  status: ('A' for Active; 'I' for Inactive)
REMARK    1  A    between atoms: O1_2  and  C2_3 
REMARK    2  A    between atoms: C6_7  and  N1_8 
REMARK    3  A    between atoms: N1_8  and  C7_9 
ROOT
HETATM    1  C2  UNL     1      26.967   4.688  49.072  1.00  0.00     0.070 A 
HETATM    2  C3  UNL     1      26.617   3.710  49.890  1.00  0.00     0.050 A 
HETATM    3  C4  UNL     1      25.371   3.846  50.636  1.00  0.00     0.019 A 
HETATM    4  C5  UNL     1      25.087   2.816  51.441  1.00  0.00     0.037 A 
HETATM    5  C6  UNL     1      23.958   2.514  52.372  1.00  0.00     0.231 A 
HETATM    6  N2  UNL     1      22.952   3.505  52.443  1.00  0.00    -0.253 NA
HETATM    7  C13 UNL     1      22.711   4.631  51.929  1.00  0.00     0.232 A 
HETATM    8  N3  UNL     1      23.478   5.370  50.980  1.00  0.00    -0.217 NA
HETATM    9  C14 UNL     1      24.612   5.042  50.424  1.00  0.00     0.176 A 
HETATM   10  O2  UNL     1      25.016   6.036  49.563  1.00  0.00    -0.327 OA
HETATM   11  C15 UNL     1      26.214   5.940  48.824  1.00  0.00     0.241 A 
ENDROOT
BRANCH   5  12
HETATM   12  N1  UNL     1      23.417   1.212  52.037  1.00  0.00    -0.364 N 
HETATM   13  H7  UNL     1      23.636   0.889  51.059  1.00  0.00     0.162 HD
BRANCH  12  14
HETATM   14  C7  UNL     1      22.648   0.339  52.846  1.00  0.00     0.031 A 
HETATM   15  C8  UNL     1      23.139  -0.433  53.874  1.00  0.00     0.029 A 
HETATM   16  C9  UNL     1      22.384  -1.286  54.649  1.00  0.00     0.004 A 
HETATM   17  C10 UNL     1      21.043  -1.395  54.401  1.00  0.00     0.019 A 
HETATM   18  C11 UNL     1      20.516  -0.640  53.385  1.00  0.00     0.013 A 
HETATM   19 BR1  UNL     1      18.651  -0.742  52.984  1.00  0.00    -0.051 Br
HETATM   20  C12 UNL     1      21.295   0.205  52.627  1.00  0.00     0.048 A 
ENDBRANCH  12  14
ENDBRANCH   5  12
BRANCH   1  21
HETATM   21  O1  UNL     1      28.142   4.504  48.402  1.00  0.00    -0.358 OA
HETATM   22  C1  UNL     1      29.040   5.590  48.282  1.00  0.00     0.209 C 
ENDBRANCH   1  21
TORSDOF 3
ENDMDL
MODEL 9
REMARK VINA RESULT:      -7.2      2.514      3.786
REMARK  3 active torsions:
REMARK  status: ('A' for Active; 'I' for Inactive)
REMARK    1  A    between atoms: O1_2  and  C2_3 
REMARK    2  A    between atoms: C6_7  and  N1_8 
REMARK    3  A    between atoms: N1_8  and  C7_9 
ROOT
HETATM    1  C2  UNL     1      26.918   1.366  53.798  1.00  0.00     0.070 A 
HETATM    2  C3  UNL     1      25.612   1.303  53.599  1.00  0.00     0.050 A 
HETATM    3  C4  UNL     1      25.068   1.902  52.385  1.00  0.00     0.019 A 
HETATM    4  C5  UNL     1      23.741   1.797  52.257  1.00  0.00     0.037 A 
HETATM    5  C6  UNL     1      22.766   2.244  51.217  1.00  0.00     0.231 A 
HETATM    6  N2  UNL     1      23.330   2.926  50.114  1.00  0.00    -0.253 NA
HETATM    7  C13 UNL     1      24.472   3.291  49.726  1.00  0.00     0.232 A 
HETATM    8  N3  UNL     1      25.738   3.112  50.358  1.00  0.00    -0.217 NA
HETATM    9  C14 UNL     1      26.000   2.521  51.491  1.00  0.00     0.176 A 
HETATM   10  O2  UNL     1      27.352   2.565  51.740  1.00  0.00    -0.327 OA
HETATM   11  C15 UNL     1      27.915   1.995  52.902  1.00  0.00     0.241 A 
ENDROOT
BRANCH   5  12
HETATM   12  N1  UNL     1      21.973   1.103  50.805  1.00  0.00    -0.364 N 
HETATM   13  H7  UNL     1      22.311   0.634  49.924  1.00  0.00     0.162 HD
BRANCH  12  14
HETATM   14  C7  UNL     1      20.826   0.552  51.427  1.00  0.00     0.031 A 
HETATM   15  C8  UNL     1      20.786   0.022  52.697  1.00  0.00     0.029 A 
HETATM   16  C9  UNL     1      19.667  -0.521  53.290  1.00  0.00     0.004 A 
HETATM   17  C10 UNL     1      18.493  -0.549  52.587  1.00  0.00     0.019 A 
HETATM   18  C11 UNL     1      18.493  -0.030  51.319  1.00  0.00     0.013 A 
HETATM   19 BR1  UNL     1      16.888  -0.037  50.282  1.00  0.00    -0.051 Br
HETATM   20  C12 UNL     1      19.627   0.507  50.751  1.00  0.00     0.048 A 
ENDBRANCH  12  14
ENDBRANCH   5  12
BRANCH   1  21
HETATM   21  O1  UNL     1      27.366   0.789  54.951  1.00  0.00    -0.358 OA
HETATM   22  C1  UNL     1      28.643   0.181  54.961  1.00  0.00     0.209 C 
ENDBRANCH   1  21
TORSDOF 3
ENDMDL
