MODEL 1
REMARK VINA RESULT:      -6.4      0.000      0.000
REMARK  9 active torsions:
REMARK  status: ('A' for Active; 'I' for Inactive)
REMARK    1  A    between atoms: O1_2  and  C2_3 
REMARK    2  A    between atoms: C2_3  and  C3_4 
REMARK    3  A    between atoms: C3_4  and  C4_5 
REMARK    4  A    between atoms: C4_5  and  C5_6 
REMARK    5  A    between atoms: C5_6  and  C6_7 
REMARK    6  A    between atoms: C6_7  and  C7_8 
REMARK    7  A    between atoms: C8_9  and  N1_10 
REMARK    8  A    between atoms: N1_10  and  C9_11 
REMARK    9  A    between atoms: C12_14  and  O2_15 
ROOT
HETATM    1  C9  UNL     1      25.497   2.001  53.512  1.00  0.00     0.100 C 
HETATM    2  C10 UNL     1      25.659   0.671  53.261  1.00  0.00     0.026 C 
HETATM    3  C11 UNL     1      26.528  -0.482  53.267  1.00  0.00     0.137 C 
HETATM    4  C12 UNL     1      27.826  -0.281  53.748  1.00  0.00     0.070 C 
HETATM    5  C14 UNL     1      29.096   0.309  54.314  1.00  0.00     0.039 C 
HETATM    6  C15 UNL     1      29.163   1.569  54.718  1.00  0.00     0.080 C 
HETATM    7  N2  UNL     1      28.622   2.469  53.951  1.00  0.00    -0.256 NA
HETATM    8  C16 UNL     1      27.777   1.994  52.917  1.00  0.00     0.277 C 
HETATM    9  N3  UNL     1      26.890   2.261  53.847  1.00  0.00    -0.246 NA
ENDROOT
BRANCH   1  10
HETATM   10  N1  UNL     1      24.757   3.186  53.557  1.00  0.00    -0.255 NA
HETATM   11  H16 UNL     1      24.638   2.664  52.626  1.00  0.00     0.134 HD
BRANCH  10  12
HETATM   12  C8  UNL     1      23.890   3.922  52.735  1.00  0.00     0.059 C 
HETATM   13  C7  UNL     1      23.089   4.906  52.337  1.00  0.00    -0.015 C 
BRANCH  13  14
HETATM   14  C6  UNL     1      22.395   4.945  51.030  1.00  0.00     0.028 C 
BRANCH  14  15
HETATM   15  C5  UNL     1      23.247   5.614  49.964  1.00  0.00     0.004 C 
BRANCH  15  16
HETATM   16  C4  UNL     1      23.568   4.643  48.865  1.00  0.00     0.002 C 
BRANCH  16  17
HETATM   17  C3  UNL     1      24.813   3.832  49.254  1.00  0.00     0.026 C 
BRANCH  17  18
HETATM   18  C2  UNL     1      25.981   4.719  49.594  1.00  0.00     0.167 C 
BRANCH  18  19
HETATM   19  O1  UNL     1      27.136   4.236  49.039  1.00  0.00    -0.396 OA
HETATM   20  C1  UNL     1      27.961   5.204  48.482  1.00  0.00     0.201 C 
ENDBRANCH  18  19
ENDBRANCH  17  18
ENDBRANCH  16  17
ENDBRANCH  15  16
ENDBRANCH  14  15
ENDBRANCH  13  14
ENDBRANCH  10  12
ENDBRANCH   1  10
BRANCH   4  21
HETATM   21  O2  UNL     1      28.046  -1.660  53.480  1.00  0.00    -0.386 OA
HETATM   22  C13 UNL     1      27.231  -2.275  52.519  1.00  0.00     0.202 C 
ENDBRANCH   4  21
TORSDOF 9
ENDMDL
MODEL 2
REMARK VINA RESULT:      -6.3      2.528      3.678
REMARK  9 active torsions:
REMARK  status: ('A' for Active; 'I' for Inactive)
REMARK    1  A    between atoms: O1_2  and  C2_3 
REMARK    2  A    between atoms: C2_3  and  C3_4 
REMARK    3  A    between atoms: C3_4  and  C4_5 
REMARK    4  A    between atoms: C4_5  and  C5_6 
REMARK    5  A    between atoms: C5_6  and  C6_7 
REMARK    6  A    between atoms: C6_7  and  C7_8 
REMARK    7  A    between atoms: C8_9  and  N1_10 
REMARK    8  A    between atoms: N1_10  and  C9_11 
REMARK    9  A    between atoms: C12_14  and  O2_15 
ROOT
HETATM    1  C9  UNL     1      25.607   2.100  53.289  1.00  0.00     0.100 C 
HETATM    2  C10 UNL     1      25.789   0.816  52.873  1.00  0.00     0.026 C 
HETATM    3  C11 UNL     1      26.655  -0.337  52.792  1.00  0.00     0.137 C 
HETATM    4  C12 UNL     1      27.909  -0.218  53.401  1.00  0.00     0.070 C 
HETATM    5  C14 UNL     1      29.128   0.275  54.145  1.00  0.00     0.039 C 
HETATM    6  C15 UNL     1      29.161   1.466  54.722  1.00  0.00     0.080 C 
HETATM    7  N2  UNL     1      28.685   2.469  54.044  1.00  0.00    -0.256 NA
HETATM    8  C16 UNL     1      27.929   2.149  52.889  1.00  0.00     0.277 C 
HETATM    9  N3  UNL     1      26.968   2.297  53.770  1.00  0.00    -0.246 NA
ENDROOT
BRANCH   1  10
HETATM   10  N1  UNL     1      24.866   3.277  53.436  1.00  0.00    -0.255 NA
HETATM   11  H16 UNL     1      24.471   2.636  52.670  1.00  0.00     0.134 HD
BRANCH  10  12
HETATM   12  C8  UNL     1      23.739   3.893  52.871  1.00  0.00     0.059 C 
HETATM   13  C7  UNL     1      22.864   4.846  52.566  1.00  0.00    -0.015 C 
BRANCH  13  14
HETATM   14  C6  UNL     1      21.664   4.645  51.722  1.00  0.00     0.028 C 
BRANCH  14  15
HETATM   15  C5  UNL     1      21.385   3.169  51.491  1.00  0.00     0.004 C 
BRANCH  15  16
HETATM   16  C4  UNL     1      20.212   2.722  52.315  1.00  0.00     0.002 C 
BRANCH  16  17
HETATM   17  C3  UNL     1      20.559   1.400  53.016  1.00  0.00     0.026 C 
BRANCH  17  18
HETATM   18  C2  UNL     1      21.838   0.803  52.492  1.00  0.00     0.167 C 
BRANCH  18  19
HETATM   19  O1  UNL     1      21.861  -0.551  52.694  1.00  0.00    -0.396 OA
HETATM   20  C1  UNL     1      22.621  -0.962  53.781  1.00  0.00     0.201 C 
ENDBRANCH  18  19
ENDBRANCH  17  18
ENDBRANCH  16  17
ENDBRANCH  15  16
ENDBRANCH  14  15
ENDBRANCH  13  14
ENDBRANCH  10  12
ENDBRANCH   1  10
BRANCH   4  21
HETATM   21  O2  UNL     1      28.151  -1.551  52.965  1.00  0.00    -0.386 OA
HETATM   22  C13 UNL     1      29.372  -2.140  53.319  1.00  0.00     0.202 C 
ENDBRANCH   4  21
TORSDOF 9
ENDMDL
MODEL 3
REMARK VINA RESULT:      -6.3      3.252      4.975
REMARK  9 active torsions:
REMARK  status: ('A' for Active; 'I' for Inactive)
REMARK    1  A    between atoms: O1_2  and  C2_3 
REMARK    2  A    between atoms: C2_3  and  C3_4 
REMARK    3  A    between atoms: C3_4  and  C4_5 
REMARK    4  A    between atoms: C4_5  and  C5_6 
REMARK    5  A    between atoms: C5_6  and  C6_7 
REMARK    6  A    between atoms: C6_7  and  C7_8 
REMARK    7  A    between atoms: C8_9  and  N1_10 
REMARK    8  A    between atoms: N1_10  and  C9_11 
REMARK    9  A    between atoms: C12_14  and  O2_15 
ROOT
HETATM    1  C9  UNL     1      24.873   1.183  52.846  1.00  0.00     0.100 C 
HETATM    2  C10 UNL     1      25.391  -0.059  53.053  1.00  0.00     0.026 C 
HETATM    3  C11 UNL     1      26.555  -0.878  53.302  1.00  0.00     0.137 C 
HETATM    4  C12 UNL     1      27.774  -0.204  53.432  1.00  0.00     0.070 C 
HETATM    5  C14 UNL     1      28.860   0.843  53.508  1.00  0.00     0.039 C 
HETATM    6  C15 UNL     1      28.593   2.137  53.424  1.00  0.00     0.080 C 
HETATM    7  N2  UNL     1      27.752   2.512  52.505  1.00  0.00    -0.256 NA
HETATM    8  C16 UNL     1      27.000   1.487  51.880  1.00  0.00     0.277 C 
HETATM    9  N3  UNL     1      26.153   1.876  52.803  1.00  0.00    -0.246 NA
ENDROOT
BRANCH   1  10
HETATM   10  N1  UNL     1      23.827   2.082  52.609  1.00  0.00    -0.255 NA
HETATM   11  H16 UNL     1      23.496   1.060  52.618  1.00  0.00     0.134 HD
BRANCH  10  12
HETATM   12  C8  UNL     1      22.445   2.053  52.369  1.00  0.00     0.059 C 
HETATM   13  C7  UNL     1      21.169   2.428  52.397  1.00  0.00    -0.015 C 
BRANCH  13  14
HETATM   14  C6  UNL     1      20.062   1.684  51.753  1.00  0.00     0.028 C 
BRANCH  14  15
HETATM   15  C5  UNL     1      20.220   0.183  51.930  1.00  0.00     0.004 C 
BRANCH  15  16
HETATM   16  C4  UNL     1      19.519  -0.274  53.177  1.00  0.00     0.002 C 
BRANCH  16  17
HETATM   17  C3  UNL     1      20.555  -0.491  54.289  1.00  0.00     0.026 C 
BRANCH  17  18
HETATM   18  C2  UNL     1      21.407  -1.706  54.038  1.00  0.00     0.167 C 
BRANCH  18  19
HETATM   19  O1  UNL     1      22.055  -2.092  55.181  1.00  0.00    -0.396 OA
HETATM   20  C1  UNL     1      23.164  -1.324  55.507  1.00  0.00     0.201 C 
ENDBRANCH  18  19
ENDBRANCH  17  18
ENDBRANCH  16  17
ENDBRANCH  15  16
ENDBRANCH  14  15
ENDBRANCH  13  14
ENDBRANCH  10  12
ENDBRANCH   1  10
BRANCH   4  21
HETATM   21  O2  UNL     1      28.361  -1.484  53.629  1.00  0.00    -0.386 OA
HETATM   22  C13 UNL     1      29.754  -1.587  53.505  1.00  0.00     0.202 C 
ENDBRANCH   4  21
TORSDOF 9
ENDMDL
MODEL 4
REMARK VINA RESULT:      -6.1      2.201      2.759
REMARK  9 active torsions:
REMARK  status: ('A' for Active; 'I' for Inactive)
REMARK    1  A    between atoms: O1_2  and  C2_3 
REMARK    2  A    between atoms: C2_3  and  C3_4 
REMARK    3  A    between atoms: C3_4  and  C4_5 
REMARK    4  A    between atoms: C4_5  and  C5_6 
REMARK    5  A    between atoms: C5_6  and  C6_7 
REMARK    6  A    between atoms: C6_7  and  C7_8 
REMARK    7  A    between atoms: C8_9  and  N1_10 
REMARK    8  A    between atoms: N1_10  and  C9_11 
REMARK    9  A    between atoms: C12_14  and  O2_15 
ROOT
HETATM    1  C9  UNL     1      24.673   0.522  52.684  1.00  0.00     0.100 C 
HETATM    2  C10 UNL     1      25.421  -0.527  53.125  1.00  0.00     0.026 C 
HETATM    3  C11 UNL     1      26.712  -1.028  53.536  1.00  0.00     0.137 C 
HETATM    4  C12 UNL     1      27.761  -0.103  53.552  1.00  0.00     0.070 C 
HETATM    5  C14 UNL     1      28.608   1.143  53.445  1.00  0.00     0.039 C 
HETATM    6  C15 UNL     1      28.089   2.317  53.119  1.00  0.00     0.080 C 
HETATM    7  N2  UNL     1      27.238   2.338  52.136  1.00  0.00    -0.256 NA
HETATM    8  C16 UNL     1      26.740   1.083  51.703  1.00  0.00     0.277 C 
HETATM    9  N3  UNL     1      25.787   1.447  52.529  1.00  0.00    -0.246 NA
ENDROOT
BRANCH   1  10
HETATM   10  N1  UNL     1      23.480   1.126  52.272  1.00  0.00    -0.255 NA
HETATM   11  H16 UNL     1      23.830   0.389  51.573  1.00  0.00     0.134 HD
BRANCH  10  12
HETATM   12  C8  UNL     1      22.582   1.063  51.195  1.00  0.00     0.059 C 
HETATM   13  C7  UNL     1      21.472   0.793  50.515  1.00  0.00    -0.015 C 
BRANCH  13  14
HETATM   14  C6  UNL     1      21.260   1.127  49.088  1.00  0.00     0.028 C 
BRANCH  14  15
HETATM   15  C5  UNL     1      21.395   2.620  48.837  1.00  0.00     0.004 C 
BRANCH  15  16
HETATM   16  C4  UNL     1      22.673   2.916  48.108  1.00  0.00     0.002 C 
BRANCH  16  17
HETATM   17  C3  UNL     1      23.350   4.137  48.747  1.00  0.00     0.026 C 
BRANCH  17  18
HETATM   18  C2  UNL     1      24.539   3.750  49.585  1.00  0.00     0.167 C 
BRANCH  18  19
HETATM   19  O1  UNL     1      24.264   3.896  50.917  1.00  0.00    -0.396 OA
HETATM   20  C1  UNL     1      23.472   4.993  51.230  1.00  0.00     0.201 C 
ENDBRANCH  18  19
ENDBRANCH  17  18
ENDBRANCH  16  17
ENDBRANCH  15  16
ENDBRANCH  14  15
ENDBRANCH  13  14
ENDBRANCH  10  12
ENDBRANCH   1  10
BRANCH   4  21
HETATM   21  O2  UNL     1      28.585  -1.177  53.991  1.00  0.00    -0.386 OA
HETATM   22  C13 UNL     1      29.943  -1.138  53.645  1.00  0.00     0.202 C 
ENDBRANCH   4  21
TORSDOF 9
ENDMDL
MODEL 5
REMARK VINA RESULT:      -6.0      2.529      3.904
REMARK  9 active torsions:
REMARK  status: ('A' for Active; 'I' for Inactive)
REMARK    1  A    between atoms: O1_2  and  C2_3 
REMARK    2  A    between atoms: C2_3  and  C3_4 
REMARK    3  A    between atoms: C3_4  and  C4_5 
REMARK    4  A    between atoms: C4_5  and  C5_6 
REMARK    5  A    between atoms: C5_6  and  C6_7 
REMARK    6  A    between atoms: C6_7  and  C7_8 
REMARK    7  A    between atoms: C8_9  and  N1_10 
REMARK    8  A    between atoms: N1_10  and  C9_11 
REMARK    9  A    between atoms: C12_14  and  O2_15 
ROOT
HETATM    1  C9  UNL     1      25.924   2.408  51.405  1.00  0.00     0.100 C 
HETATM    2  C10 UNL     1      24.694   1.875  51.647  1.00  0.00     0.026 C 
HETATM    3  C11 UNL     1      23.885   0.947  52.402  1.00  0.00     0.137 C 
HETATM    4  C12 UNL     1      24.546   0.202  53.385  1.00  0.00     0.070 C 
HETATM    5  C14 UNL     1      25.575  -0.396  54.316  1.00  0.00     0.039 C 
HETATM    6  C15 UNL     1      26.831   0.023  54.333  1.00  0.00     0.080 C 
HETATM    7  N2  UNL     1      27.409   0.216  53.184  1.00  0.00    -0.256 NA
HETATM    8  C16 UNL     1      26.564   0.233  52.046  1.00  0.00     0.277 C 
HETATM    9  N3  UNL     1      26.652   1.518  52.299  1.00  0.00    -0.246 NA
ENDROOT
BRANCH   1  10
HETATM   10  N1  UNL     1      26.810   3.267  50.748  1.00  0.00    -0.255 NA
HETATM   11  H16 UNL     1      25.785   3.466  50.498  1.00  0.00     0.134 HD
BRANCH  10  12
HETATM   12  C8  UNL     1      26.767   4.333  49.835  1.00  0.00     0.059 C 
HETATM   13  C7  UNL     1      27.122   5.119  48.824  1.00  0.00    -0.015 C 
BRANCH  13  14
HETATM   14  C6  UNL     1      26.376   6.326  48.399  1.00  0.00     0.028 C 
BRANCH  14  15
HETATM   15  C5  UNL     1      27.025   7.597  48.919  1.00  0.00     0.004 C 
BRANCH  15  16
HETATM   16  C4  UNL     1      26.309   8.087  50.145  1.00  0.00     0.002 C 
BRANCH  16  17
HETATM   17  C3  UNL     1      24.837   8.354  49.798  1.00  0.00     0.026 C 
BRANCH  17  18
HETATM   18  C2  UNL     1      23.901   7.766  50.821  1.00  0.00     0.167 C 
BRANCH  18  19
HETATM   19  O1  UNL     1      24.400   6.593  51.319  1.00  0.00    -0.396 OA
HETATM   20  C1  UNL     1      23.505   5.532  51.312  1.00  0.00     0.201 C 
ENDBRANCH  18  19
ENDBRANCH  17  18
ENDBRANCH  16  17
ENDBRANCH  15  16
ENDBRANCH  14  15
ENDBRANCH  13  14
ENDBRANCH  10  12
ENDBRANCH   1  10
BRANCH   4  21
HETATM   21  O2  UNL     1      23.285  -0.398  53.655  1.00  0.00    -0.386 OA
HETATM   22  C13 UNL     1      23.121  -1.039  54.891  1.00  0.00     0.202 C 
ENDBRANCH   4  21
TORSDOF 9
ENDMDL
MODEL 6
REMARK VINA RESULT:      -6.0      2.887      4.720
REMARK  9 active torsions:
REMARK  status: ('A' for Active; 'I' for Inactive)
REMARK    1  A    between atoms: O1_2  and  C2_3 
REMARK    2  A    between atoms: C2_3  and  C3_4 
REMARK    3  A    between atoms: C3_4  and  C4_5 
REMARK    4  A    between atoms: C4_5  and  C5_6 
REMARK    5  A    between atoms: C5_6  and  C6_7 
REMARK    6  A    between atoms: C6_7  and  C7_8 
REMARK    7  A    between atoms: C8_9  and  N1_10 
REMARK    8  A    between atoms: N1_10  and  C9_11 
REMARK    9  A    between atoms: C12_14  and  O2_15 
ROOT
HETATM    1  C9  UNL     1      25.603   1.043  52.206  1.00  0.00     0.100 C 
HETATM    2  C10 UNL     1      25.196   0.177  53.176  1.00  0.00     0.026 C 
HETATM    3  C11 UNL     1      24.117  -0.564  53.787  1.00  0.00     0.137 C 
HETATM    4  C12 UNL     1      22.858  -0.435  53.190  1.00  0.00     0.070 C 
HETATM    5  C14 UNL     1      21.699  -0.056  52.298  1.00  0.00     0.039 C 
HETATM    6  C15 UNL     1      21.859   0.709  51.229  1.00  0.00     0.080 C 
HETATM    7  N2  UNL     1      22.613   1.761  51.358  1.00  0.00    -0.256 NA
HETATM    8  C16 UNL     1      23.406   1.830  52.531  1.00  0.00     0.277 C 
HETATM    9  N3  UNL     1      24.272   1.322  51.685  1.00  0.00    -0.246 NA
ENDROOT
BRANCH   1  10
HETATM   10  N1  UNL     1      26.560   1.803  51.526  1.00  0.00    -0.255 NA
HETATM   11  H16 UNL     1      25.556   2.047  51.231  1.00  0.00     0.134 HD
BRANCH  10  12
HETATM   12  C8  UNL     1      26.609   2.809  50.548  1.00  0.00     0.059 C 
HETATM   13  C7  UNL     1      26.219   3.585  49.542  1.00  0.00    -0.015 C 
BRANCH  13  14
HETATM   14  C6  UNL     1      27.042   4.664  48.948  1.00  0.00     0.028 C 
BRANCH  14  15
HETATM   15  C5  UNL     1      26.286   5.982  48.901  1.00  0.00     0.004 C 
BRANCH  15  16
HETATM   16  C4  UNL     1      24.820   5.737  48.690  1.00  0.00     0.002 C 
BRANCH  16  17
HETATM   17  C3  UNL     1      24.013   6.683  49.592  1.00  0.00     0.026 C 
BRANCH  17  18
HETATM   18  C2  UNL     1      24.334   6.484  51.049  1.00  0.00     0.167 C 
BRANCH  18  19
HETATM   19  O1  UNL     1      23.750   5.340  51.524  1.00  0.00    -0.396 OA
HETATM   20  C1  UNL     1      22.364   5.385  51.599  1.00  0.00     0.201 C 
ENDBRANCH  18  19
ENDBRANCH  17  18
ENDBRANCH  16  17
ENDBRANCH  15  16
ENDBRANCH  14  15
ENDBRANCH  13  14
ENDBRANCH  10  12
ENDBRANCH   1  10
BRANCH   4  21
HETATM   21  O2  UNL     1      22.385  -1.318  54.200  1.00  0.00    -0.386 OA
HETATM   22  C13 UNL     1      21.000  -1.501  54.307  1.00  0.00     0.202 C 
ENDBRANCH   4  21
TORSDOF 9
ENDMDL
MODEL 7
REMARK VINA RESULT:      -6.0      2.595      4.434
REMARK  9 active torsions:
REMARK  status: ('A' for Active; 'I' for Inactive)
REMARK    1  A    between atoms: O1_2  and  C2_3 
REMARK    2  A    between atoms: C2_3  and  C3_4 
REMARK    3  A    between atoms: C3_4  and  C4_5 
REMARK    4  A    between atoms: C4_5  and  C5_6 
REMARK    5  A    between atoms: C5_6  and  C6_7 
REMARK    6  A    between atoms: C6_7  and  C7_8 
REMARK    7  A    between atoms: C8_9  and  N1_10 
REMARK    8  A    between atoms: N1_10  and  C9_11 
REMARK    9  A    between atoms: C12_14  and  O2_15 
ROOT
HETATM    1  C9  UNL     1      26.185   2.218  51.276  1.00  0.00     0.100 C 
HETATM    2  C10 UNL     1      27.151   1.649  52.050  1.00  0.00     0.026 C 
HETATM    3  C11 UNL     1      27.491   0.722  53.104  1.00  0.00     0.137 C 
HETATM    4  C12 UNL     1      26.433  -0.007  53.657  1.00  0.00     0.070 C 
HETATM    5  C14 UNL     1      25.078  -0.586  53.990  1.00  0.00     0.039 C 
HETATM    6  C15 UNL     1      23.989  -0.254  53.313  1.00  0.00     0.080 C 
HETATM    7  N2  UNL     1      23.820   1.006  53.040  1.00  0.00    -0.256 NA
HETATM    8  C16 UNL     1      24.938   1.853  53.241  1.00  0.00     0.277 C 
HETATM    9  N3  UNL     1      25.058   1.598  51.960  1.00  0.00    -0.246 NA
ENDROOT
BRANCH   1  10
HETATM   10  N1  UNL     1      25.729   3.076  50.270  1.00  0.00    -0.255 NA
HETATM   11  H16 UNL     1      26.668   3.393  50.684  1.00  0.00     0.134 HD
BRANCH  10  12
HETATM   12  C8  UNL     1      26.133   4.256  49.625  1.00  0.00     0.059 C 
HETATM   13  C7  UNL     1      26.042   5.438  49.023  1.00  0.00    -0.015 C 
BRANCH  13  14
HETATM   14  C6  UNL     1      27.199   6.213  48.520  1.00  0.00     0.028 C 
BRANCH  14  15
HETATM   15  C5  UNL     1      28.452   5.358  48.437  1.00  0.00     0.004 C 
BRANCH  15  16
HETATM   16  C4  UNL     1      29.546   6.100  47.725  1.00  0.00     0.002 C 
BRANCH  16  17
HETATM   17  C3  UNL     1      30.832   5.261  47.760  1.00  0.00     0.026 C 
BRANCH  17  18
HETATM   18  C2  UNL     1      31.824   5.791  48.761  1.00  0.00     0.167 C 
BRANCH  18  19
HETATM   19  O1  UNL     1      32.716   6.638  48.160  1.00  0.00    -0.396 OA
HETATM   20  C1  UNL     1      32.948   7.821  48.849  1.00  0.00     0.201 C 
ENDBRANCH  18  19
ENDBRANCH  17  18
ENDBRANCH  16  17
ENDBRANCH  15  16
ENDBRANCH  14  15
ENDBRANCH  13  14
ENDBRANCH  10  12
ENDBRANCH   1  10
BRANCH   4  21
HETATM   21  O2  UNL     1      27.405  -0.610  54.503  1.00  0.00    -0.386 OA
HETATM   22  C13 UNL     1      28.547   0.140  54.819  1.00  0.00     0.202 C 
ENDBRANCH   4  21
TORSDOF 9
ENDMDL
MODEL 8
REMARK VINA RESULT:      -5.9      2.489      3.143
REMARK  9 active torsions:
REMARK  status: ('A' for Active; 'I' for Inactive)
REMARK    1  A    between atoms: O1_2  and  C2_3 
REMARK    2  A    between atoms: C2_3  and  C3_4 
REMARK    3  A    between atoms: C3_4  and  C4_5 
REMARK    4  A    between atoms: C4_5  and  C5_6 
REMARK    5  A    between atoms: C5_6  and  C6_7 
REMARK    6  A    between atoms: C6_7  and  C7_8 
REMARK    7  A    between atoms: C8_9  and  N1_10 
REMARK    8  A    between atoms: N1_10  and  C9_11 
REMARK    9  A    between atoms: C12_14  and  O2_15 
ROOT
HETATM    1  C9  UNL     1      25.586   1.981  53.287  1.00  0.00     0.100 C 
HETATM    2  C10 UNL     1      25.709   0.671  52.933  1.00  0.00     0.026 C 
HETATM    3  C11 UNL     1      26.518  -0.526  52.919  1.00  0.00     0.137 C 
HETATM    4  C12 UNL     1      27.768  -0.441  53.541  1.00  0.00     0.070 C 
HETATM    5  C14 UNL     1      29.000   0.026  54.280  1.00  0.00     0.039 C 
HETATM    6  C15 UNL     1      29.085   1.241  54.802  1.00  0.00     0.080 C 
HETATM    7  N2  UNL     1      28.668   2.232  54.072  1.00  0.00    -0.256 NA
HETATM    8  C16 UNL     1      27.912   1.897  52.921  1.00  0.00     0.277 C 
HETATM    9  N3  UNL     1      26.949   2.133  53.780  1.00  0.00    -0.246 NA
ENDROOT
BRANCH   1  10
HETATM   10  N1  UNL     1      24.903   3.198  53.368  1.00  0.00    -0.255 NA
HETATM   11  H16 UNL     1      24.395   2.483  52.748  1.00  0.00     0.134 HD
BRANCH  10  12
HETATM   12  C8  UNL     1      23.729   3.786  52.871  1.00  0.00     0.059 C 
HETATM   13  C7  UNL     1      22.893   4.729  52.448  1.00  0.00    -0.015 C 
BRANCH  13  14
HETATM   14  C6  UNL     1      21.510   4.476  51.983  1.00  0.00     0.028 C 
BRANCH  14  15
HETATM   15  C5  UNL     1      21.049   3.072  52.338  1.00  0.00     0.004 C 
BRANCH  15  16
HETATM   16  C4  UNL     1      19.736   2.769  51.675  1.00  0.00     0.002 C 
BRANCH  16  17
HETATM   17  C3  UNL     1      19.902   2.876  50.151  1.00  0.00     0.026 C 
BRANCH  17  18
HETATM   18  C2  UNL     1      20.473   1.617  49.556  1.00  0.00     0.167 C 
BRANCH  18  19
HETATM   19  O1  UNL     1      20.812   1.810  48.244  1.00  0.00    -0.396 OA
HETATM   20  C1  UNL     1      22.177   1.896  48.003  1.00  0.00     0.201 C 
ENDBRANCH  18  19
ENDBRANCH  17  18
ENDBRANCH  16  17
ENDBRANCH  15  16
ENDBRANCH  14  15
ENDBRANCH  13  14
ENDBRANCH  10  12
ENDBRANCH   1  10
BRANCH   4  21
HETATM   21  O2  UNL     1      27.949  -1.802  53.170  1.00  0.00    -0.386 OA
HETATM   22  C13 UNL     1      29.241  -2.336  53.267  1.00  0.00     0.202 C 
ENDBRANCH   4  21
TORSDOF 9
ENDMDL
MODEL 9
REMARK VINA RESULT:      -5.9      2.700      4.604
REMARK  9 active torsions:
REMARK  status: ('A' for Active; 'I' for Inactive)
REMARK    1  A    between atoms: O1_2  and  C2_3 
REMARK    2  A    between atoms: C2_3  and  C3_4 
REMARK    3  A    between atoms: C3_4  and  C4_5 
REMARK    4  A    between atoms: C4_5  and  C5_6 
REMARK    5  A    between atoms: C5_6  and  C6_7 
REMARK    6  A    between atoms: C6_7  and  C7_8 
REMARK    7  A    between atoms: C8_9  and  N1_10 
REMARK    8  A    between atoms: N1_10  and  C9_11 
REMARK    9  A    between atoms: C12_14  and  O2_15 
ROOT
HETATM    1  C9  UNL     1      26.055   2.563  51.173  1.00  0.00     0.100 C 
HETATM    2  C10 UNL     1      26.981   1.801  51.818  1.00  0.00     0.026 C 
HETATM    3  C11 UNL     1      27.260   0.756  52.777  1.00  0.00     0.137 C 
HETATM    4  C12 UNL     1      26.151   0.152  53.379  1.00  0.00     0.070 C 
HETATM    5  C14 UNL     1      24.754  -0.243  53.799  1.00  0.00     0.039 C 
HETATM    6  C15 UNL     1      23.678   0.297  53.247  1.00  0.00     0.080 C 
HETATM    7  N2  UNL     1      23.684   1.585  53.069  1.00  0.00    -0.256 NA
HETATM    8  C16 UNL     1      24.932   2.239  53.219  1.00  0.00     0.277 C 
HETATM    9  N3  UNL     1      24.906   2.067  51.918  1.00  0.00    -0.246 NA
ENDROOT
BRANCH   1  10
HETATM   10  N1  UNL     1      25.656   3.552  50.269  1.00  0.00    -0.255 NA
HETATM   11  H16 UNL     1      26.709   3.587  50.476  1.00  0.00     0.134 HD
BRANCH  10  12
HETATM   12  C8  UNL     1      26.226   4.605  49.536  1.00  0.00     0.059 C 
HETATM   13  C7  UNL     1      26.304   5.719  48.814  1.00  0.00    -0.015 C 
BRANCH  13  14
HETATM   14  C6  UNL     1      27.567   6.304  48.309  1.00  0.00     0.028 C 
BRANCH  14  15
HETATM   15  C5  UNL     1      28.686   5.277  48.280  1.00  0.00     0.004 C 
BRANCH  15  16
HETATM   16  C4  UNL     1      30.024   5.959  48.309  1.00  0.00     0.002 C 
BRANCH  16  17
HETATM   17  C3  UNL     1      29.819   7.478  48.218  1.00  0.00     0.026 C 
BRANCH  17  18
HETATM   18  C2  UNL     1      31.116   8.231  48.350  1.00  0.00     0.167 C 
BRANCH  18  19
HETATM   19  O1  UNL     1      30.922   9.573  48.163  1.00  0.00    -0.396 OA
HETATM   20  C1  UNL     1      30.549  10.270  49.304  1.00  0.00     0.201 C 
ENDBRANCH  18  19
ENDBRANCH  17  18
ENDBRANCH  16  17
ENDBRANCH  15  16
ENDBRANCH  14  15
ENDBRANCH  13  14
ENDBRANCH  10  12
ENDBRANCH   1  10
BRANCH   4  21
HETATM   21  O2  UNL     1      27.084  -0.650  54.092  1.00  0.00    -0.386 OA
HETATM   22  C13 UNL     1      28.101   0.008  54.799  1.00  0.00     0.202 C 
ENDBRANCH   4  21
TORSDOF 9
ENDMDL
