MODEL 1
REMARK VINA RESULT:      -7.1      0.000      0.000
REMARK  9 active torsions:
REMARK  status: ('A' for Active; 'I' for Inactive)
REMARK    1  A    between atoms: C2_2  and  C3_3 
REMARK    2  A    between atoms: C3_3  and  C4_4 
REMARK    3  A    between atoms: C4_4  and  C5_5 
REMARK    4  A    between atoms: C5_5  and  N1_6 
REMARK    5  A    between atoms: N1_6  and  C6_7 
REMARK    6  A    between atoms: C9_10  and  N2_11 
REMARK    7  A    between atoms: N2_11  and  C10_12 
REMARK    8  A    between atoms: C10_12  and  C11_13 
REMARK    9  A    between atoms: C17_19  and  N3_20 
ROOT
HETATM    1  C6  UNL     1      22.469   2.459  51.136  1.00  0.00     0.021 C 
HETATM    2  C7  UNL     1      22.604   2.868  52.390  1.00  0.00     0.007 C 
HETATM    3  C8  UNL     1      23.879   3.598  52.716  1.00  0.00     0.106 C 
HETATM    4  C9  UNL     1      25.026   2.931  52.013  1.00  0.00     0.098 C 
HETATM    5  N4  UNL     1      24.816   2.550  50.818  1.00  0.00    -0.271 NA
HETATM    6  C18 UNL     1      23.550   2.728  50.123  1.00  0.00     0.207 C 
ENDROOT
BRANCH   4   7
HETATM    7  N2  UNL     1      26.309   2.698  52.575  1.00  0.00    -0.374 N 
HETATM    8  H12 UNL     1      27.111   3.169  52.051  1.00  0.00     0.161 HD
BRANCH   7   9
HETATM    9  C10 UNL     1      26.583   1.923  53.725  1.00  0.00     0.162 C 
BRANCH   9  10
HETATM   10  C11 UNL     1      27.586   0.862  53.611  1.00  0.00    -0.008 A 
HETATM   11  C12 UNL     1      27.193  -0.412  53.227  1.00  0.00    -0.052 A 
HETATM   12  C13 UNL     1      25.745  -0.639  52.956  1.00  0.00     0.049 C 
HETATM   13  C14 UNL     1      28.143  -1.432  53.107  1.00  0.00     0.007 A 
HETATM   14  C15 UNL     1      29.484  -1.247  53.352  1.00  0.00     0.003 A 
HETATM   15  C16 UNL     1      29.861   0.002  53.728  1.00  0.00     0.029 A 
HETATM   16  C17 UNL     1      28.936   1.014  53.849  1.00  0.00     0.034 A 
BRANCH  16  17
HETATM   17  N3  UNL     1      29.429   2.288  54.241  1.00  0.00    -0.399 N 
HETATM   18  H21 UNL     1      30.151   2.876  54.665  1.00  0.00     0.156 HD
HETATM   19  H22 UNL     1      28.921   3.209  54.097  1.00  0.00     0.156 HD
ENDBRANCH  16  17
ENDBRANCH   9  10
ENDBRANCH   7   9
ENDBRANCH   4   7
BRANCH   1  20
HETATM   20  N1  UNL     1      21.249   1.780  50.895  1.00  0.00    -0.391 N 
HETATM   21  H8  UNL     1      20.573   2.492  50.527  1.00  0.00     0.159 HD
BRANCH  20  22
HETATM   22  C5  UNL     1      21.030   0.357  51.135  1.00  0.00     0.137 C 
BRANCH  22  23
HETATM   23  C4  UNL     1      20.040   0.212  52.195  1.00  0.00     0.086 C 
BRANCH  23  24
HETATM   24  C3  UNL     1      20.467   0.197  53.451  1.00  0.00    -0.170 C 
BRANCH  24  25
HETATM   25  C2  UNL     1      21.089  -0.012  54.603  1.00  0.00     0.062 C 
HETATM   26  C1  UNL     1      21.881  -1.256  54.735  1.00  0.00     0.023 C 
ENDBRANCH  24  25
ENDBRANCH  23  24
ENDBRANCH  22  23
ENDBRANCH  20  22
ENDBRANCH   1  20
TORSDOF 9
ENDMDL
MODEL 2
REMARK VINA RESULT:      -7.1      2.325      4.628
REMARK  9 active torsions:
REMARK  status: ('A' for Active; 'I' for Inactive)
REMARK    1  A    between atoms: C2_2  and  C3_3 
REMARK    2  A    between atoms: C3_3  and  C4_4 
REMARK    3  A    between atoms: C4_4  and  C5_5 
REMARK    4  A    between atoms: C5_5  and  N1_6 
REMARK    5  A    between atoms: N1_6  and  C6_7 
REMARK    6  A    between atoms: C9_10  and  N2_11 
REMARK    7  A    between atoms: N2_11  and  C10_12 
REMARK    8  A    between atoms: C10_12  and  C11_13 
REMARK    9  A    between atoms: C17_19  and  N3_20 
ROOT
HETATM    1  C6  UNL     1      23.580   4.410  51.109  1.00  0.00     0.021 C 
HETATM    2  C7  UNL     1      23.368   3.467  50.201  1.00  0.00     0.007 C 
HETATM    3  C8  UNL     1      23.271   2.058  50.721  1.00  0.00     0.106 C 
HETATM    4  C9  UNL     1      24.299   1.853  51.795  1.00  0.00     0.098 C 
HETATM    5  N4  UNL     1      24.460   2.809  52.618  1.00  0.00    -0.271 NA
HETATM    6  C18 UNL     1      23.710   4.055  52.566  1.00  0.00     0.207 C 
ENDROOT
BRANCH   4   7
HETATM    7  N2  UNL     1      25.094   0.688  51.958  1.00  0.00    -0.374 N 
HETATM    8  H12 UNL     1      25.311   0.171  51.050  1.00  0.00     0.161 HD
BRANCH   7   9
HETATM    9  C10 UNL     1      25.596   0.191  53.184  1.00  0.00     0.162 C 
BRANCH   9  10
HETATM   10  C11 UNL     1      27.049   0.144  53.359  1.00  0.00    -0.008 A 
HETATM   11  C12 UNL     1      27.734  -1.031  53.084  1.00  0.00    -0.052 A 
HETATM   12  C13 UNL     1      26.939  -2.205  52.626  1.00  0.00     0.049 C 
HETATM   13  C14 UNL     1      29.123  -1.085  53.239  1.00  0.00     0.007 A 
HETATM   14  C15 UNL     1      29.878  -0.014  53.661  1.00  0.00     0.003 A 
HETATM   15  C16 UNL     1      29.201   1.131  53.929  1.00  0.00     0.029 A 
HETATM   16  C17 UNL     1      27.834   1.197  53.778  1.00  0.00     0.034 A 
BRANCH  16  17
HETATM   17  N3  UNL     1      27.218   2.443  54.076  1.00  0.00    -0.399 N 
HETATM   18  H21 UNL     1      27.257   3.461  54.171  1.00  0.00     0.156 HD
HETATM   19  H22 UNL     1      26.204   2.567  54.366  1.00  0.00     0.156 HD
ENDBRANCH  16  17
ENDBRANCH   9  10
ENDBRANCH   7   9
ENDBRANCH   4   7
BRANCH   1  20
HETATM   20  N1  UNL     1      23.662   5.712  50.555  1.00  0.00    -0.391 N 
HETATM   21  H8  UNL     1      22.984   5.745  49.755  1.00  0.00     0.159 HD
BRANCH  20  22
HETATM   22  C5  UNL     1      24.542   6.769  51.044  1.00  0.00     0.137 C 
BRANCH  22  23
HETATM   23  C4  UNL     1      25.408   7.194  49.952  1.00  0.00     0.086 C 
BRANCH  23  24
HETATM   24  C3  UNL     1      26.023   6.258  49.240  1.00  0.00    -0.170 C 
BRANCH  24  25
HETATM   25  C2  UNL     1      26.748   5.243  48.789  1.00  0.00     0.062 C 
HETATM   26  C1  UNL     1      26.775   4.009  49.607  1.00  0.00     0.023 C 
ENDBRANCH  24  25
ENDBRANCH  23  24
ENDBRANCH  22  23
ENDBRANCH  20  22
ENDBRANCH   1  20
TORSDOF 9
ENDMDL
MODEL 3
REMARK VINA RESULT:      -6.9      2.493      4.822
REMARK  9 active torsions:
REMARK  status: ('A' for Active; 'I' for Inactive)
REMARK    1  A    between atoms: C2_2  and  C3_3 
REMARK    2  A    between atoms: C3_3  and  C4_4 
REMARK    3  A    between atoms: C4_4  and  C5_5 
REMARK    4  A    between atoms: C5_5  and  N1_6 
REMARK    5  A    between atoms: N1_6  and  C6_7 
REMARK    6  A    between atoms: C9_10  and  N2_11 
REMARK    7  A    between atoms: N2_11  and  C10_12 
REMARK    8  A    between atoms: C10_12  and  C11_13 
REMARK    9  A    between atoms: C17_19  and  N3_20 
ROOT
HETATM    1  C6  UNL     1      24.428   3.448  49.744  1.00  0.00     0.021 C 
HETATM    2  C7  UNL     1      25.752   3.410  49.689  1.00  0.00     0.007 C 
HETATM    3  C8  UNL     1      26.431   2.505  50.682  1.00  0.00     0.106 C 
HETATM    4  C9  UNL     1      25.734   2.611  52.007  1.00  0.00     0.098 C 
HETATM    5  N4  UNL     1      24.463   2.661  51.979  1.00  0.00    -0.271 NA
HETATM    6  C18 UNL     1      23.680   2.619  50.754  1.00  0.00     0.207 C 
ENDROOT
BRANCH   4   7
HETATM    7  N2  UNL     1      26.378   2.658  53.271  1.00  0.00    -0.374 N 
HETATM    8  H12 UNL     1      26.752   3.621  53.540  1.00  0.00     0.161 HD
BRANCH   7   9
HETATM    9  C10 UNL     1      26.549   1.569  54.157  1.00  0.00     0.162 C 
BRANCH   9  10
HETATM   10  C11 UNL     1      27.615   0.609  53.862  1.00  0.00    -0.008 A 
HETATM   11  C12 UNL     1      27.288  -0.638  53.348  1.00  0.00    -0.052 A 
HETATM   12  C13 UNL     1      25.845  -0.942  53.129  1.00  0.00     0.049 C 
HETATM   13  C14 UNL     1      28.298  -1.561  53.054  1.00  0.00     0.007 A 
HETATM   14  C15 UNL     1      29.635  -1.304  53.248  1.00  0.00     0.003 A 
HETATM   15  C16 UNL     1      29.946  -0.083  53.751  1.00  0.00     0.029 A 
HETATM   16  C17 UNL     1      28.962   0.834  54.044  1.00  0.00     0.034 A 
BRANCH  16  17
HETATM   17  N3  UNL     1      29.390   2.088  54.560  1.00  0.00    -0.399 N 
HETATM   18  H21 UNL     1      29.247   2.906  55.158  1.00  0.00     0.156 HD
HETATM   19  H22 UNL     1      30.297   2.575  54.301  1.00  0.00     0.156 HD
ENDBRANCH  16  17
ENDBRANCH   9  10
ENDBRANCH   7   9
ENDBRANCH   4   7
BRANCH   1  20
HETATM   20  N1  UNL     1      23.852   4.319  48.785  1.00  0.00    -0.391 N 
HETATM   21  H8  UNL     1      23.732   3.762  47.904  1.00  0.00     0.159 HD
BRANCH  20  22
HETATM   22  C5  UNL     1      23.512   5.717  49.031  1.00  0.00     0.137 C 
BRANCH  22  23
HETATM   23  C4  UNL     1      24.236   6.544  48.074  1.00  0.00     0.086 C 
BRANCH  23  24
HETATM   24  C3  UNL     1      25.530   6.751  48.277  1.00  0.00    -0.170 C 
BRANCH  24  25
HETATM   25  C2  UNL     1      26.744   6.973  48.763  1.00  0.00     0.062 C 
HETATM   26  C1  UNL     1      27.825   6.052  48.343  1.00  0.00     0.023 C 
ENDBRANCH  24  25
ENDBRANCH  23  24
ENDBRANCH  22  23
ENDBRANCH  20  22
ENDBRANCH   1  20
TORSDOF 9
ENDMDL
MODEL 4
REMARK VINA RESULT:      -6.8      2.220      3.719
REMARK  9 active torsions:
REMARK  status: ('A' for Active; 'I' for Inactive)
REMARK    1  A    between atoms: C2_2  and  C3_3 
REMARK    2  A    between atoms: C3_3  and  C4_4 
REMARK    3  A    between atoms: C4_4  and  C5_5 
REMARK    4  A    between atoms: C5_5  and  N1_6 
REMARK    5  A    between atoms: N1_6  and  C6_7 
REMARK    6  A    between atoms: C9_10  and  N2_11 
REMARK    7  A    between atoms: N2_11  and  C10_12 
REMARK    8  A    between atoms: C10_12  and  C11_13 
REMARK    9  A    between atoms: C17_19  and  N3_20 
ROOT
HETATM    1  C6  UNL     1      20.978  -0.109  53.249  1.00  0.00     0.021 C 
HETATM    2  C7  UNL     1      21.292  -1.183  53.961  1.00  0.00     0.007 C 
HETATM    3  C8  UNL     1      22.566  -1.100  54.759  1.00  0.00     0.106 C 
HETATM    4  C9  UNL     1      23.616  -0.400  53.945  1.00  0.00     0.098 C 
HETATM    5  N4  UNL     1      23.236   0.612  53.275  1.00  0.00    -0.271 NA
HETATM    6  C18 UNL     1      21.868   1.106  53.264  1.00  0.00     0.207 C 
ENDROOT
BRANCH   4   7
HETATM    7  N2  UNL     1      24.983  -0.778  53.871  1.00  0.00    -0.374 N 
HETATM    8  H12 UNL     1      25.342  -1.304  54.727  1.00  0.00     0.161 HD
BRANCH   7   9
HETATM    9  C10 UNL     1      25.858  -0.517  52.791  1.00  0.00     0.162 C 
BRANCH   9  10
HETATM   10  C11 UNL     1      27.293  -0.446  53.076  1.00  0.00    -0.008 A 
HETATM   11  C12 UNL     1      27.881   0.786  53.323  1.00  0.00    -0.052 A 
HETATM   12  C13 UNL     1      27.008   1.993  53.274  1.00  0.00     0.049 C 
HETATM   13  C14 UNL     1      29.249   0.866  53.605  1.00  0.00     0.007 A 
HETATM   14  C15 UNL     1      30.075  -0.234  53.654  1.00  0.00     0.003 A 
HETATM   15  C16 UNL     1      29.492  -1.435  53.412  1.00  0.00     0.029 A 
HETATM   16  C17 UNL     1      28.147  -1.527  53.134  1.00  0.00     0.034 A 
BRANCH  16  17
HETATM   17  N3  UNL     1      27.630  -2.830  52.901  1.00  0.00    -0.399 N 
HETATM   18  H21 UNL     1      27.569  -3.824  53.136  1.00  0.00     0.156 HD
HETATM   19  H22 UNL     1      26.944  -3.085  52.132  1.00  0.00     0.156 HD
ENDBRANCH  16  17
ENDBRANCH   9  10
ENDBRANCH   7   9
ENDBRANCH   4   7
BRANCH   1  20
HETATM   20  N1  UNL     1      19.770  -0.252  52.522  1.00  0.00    -0.391 N 
HETATM   21  H8  UNL     1      19.557  -1.279  52.488  1.00  0.00     0.159 HD
BRANCH  20  22
HETATM   22  C5  UNL     1      19.010   0.854  51.950  1.00  0.00     0.137 C 
BRANCH  22  23
HETATM   23  C4  UNL     1      19.173   0.829  50.502  1.00  0.00     0.086 C 
BRANCH  23  24
HETATM   24  C3  UNL     1      20.400   0.930  50.009  1.00  0.00    -0.170 C 
BRANCH  24  25
HETATM   25  C2  UNL     1      21.507   0.906  49.278  1.00  0.00     0.062 C 
HETATM   26  C1  UNL     1      21.571   1.814  48.110  1.00  0.00     0.023 C 
ENDBRANCH  24  25
ENDBRANCH  23  24
ENDBRANCH  22  23
ENDBRANCH  20  22
ENDBRANCH   1  20
TORSDOF 9
ENDMDL
MODEL 5
REMARK VINA RESULT:      -6.8      1.435      7.357
REMARK  9 active torsions:
REMARK  status: ('A' for Active; 'I' for Inactive)
REMARK    1  A    between atoms: C2_2  and  C3_3 
REMARK    2  A    between atoms: C3_3  and  C4_4 
REMARK    3  A    between atoms: C4_4  and  C5_5 
REMARK    4  A    between atoms: C5_5  and  N1_6 
REMARK    5  A    between atoms: N1_6  and  C6_7 
REMARK    6  A    between atoms: C9_10  and  N2_11 
REMARK    7  A    between atoms: N2_11  and  C10_12 
REMARK    8  A    between atoms: C10_12  and  C11_13 
REMARK    9  A    between atoms: C17_19  and  N3_20 
ROOT
HETATM    1  C6  UNL     1      26.515   1.882  53.104  1.00  0.00     0.021 C 
HETATM    2  C7  UNL     1      25.671   1.204  53.869  1.00  0.00     0.007 C 
HETATM    3  C8  UNL     1      24.611   0.415  53.148  1.00  0.00     0.106 C 
HETATM    4  C9  UNL     1      24.099   1.218  51.987  1.00  0.00     0.098 C 
HETATM    5  N4  UNL     1      24.966   1.857  51.311  1.00  0.00    -0.271 NA
HETATM    6  C18 UNL     1      26.391   1.842  51.604  1.00  0.00     0.207 C 
ENDROOT
BRANCH   4   7
HETATM    7  N2  UNL     1      22.738   1.315  51.594  1.00  0.00    -0.374 N 
HETATM    8  H12 UNL     1      22.561   1.102  50.563  1.00  0.00     0.161 HD
BRANCH   7   9
HETATM    9  C10 UNL     1      21.653   1.659  52.433  1.00  0.00     0.162 C 
BRANCH   9  10
HETATM   10  C11 UNL     1      20.463   0.807  52.395  1.00  0.00    -0.008 A 
HETATM   11  C12 UNL     1      20.230  -0.089  53.427  1.00  0.00    -0.052 A 
HETATM   12  C13 UNL     1      21.225  -0.145  54.536  1.00  0.00     0.049 C 
HETATM   13  C14 UNL     1      19.091  -0.902  53.406  1.00  0.00     0.007 A 
HETATM   14  C15 UNL     1      18.159  -0.870  52.394  1.00  0.00     0.003 A 
HETATM   15  C16 UNL     1      18.395   0.009  51.387  1.00  0.00     0.029 A 
HETATM   16  C17 UNL     1      19.510   0.816  51.398  1.00  0.00     0.034 A 
BRANCH  16  17
HETATM   17  N3  UNL     1      19.664   1.708  50.302  1.00  0.00    -0.399 N 
HETATM   18  H21 UNL     1      19.270   2.337  49.597  1.00  0.00     0.156 HD
HETATM   19  H22 UNL     1      20.592   1.974  49.859  1.00  0.00     0.156 HD
ENDBRANCH  16  17
ENDBRANCH   9  10
ENDBRANCH   7   9
ENDBRANCH   4   7
BRANCH   1  20
HETATM   20  N1  UNL     1      27.487   2.602  53.843  1.00  0.00    -0.391 N 
HETATM   21  H8  UNL     1      26.963   3.218  54.512  1.00  0.00     0.159 HD
BRANCH  20  22
HETATM   22  C5  UNL     1      28.929   2.473  53.665  1.00  0.00     0.137 C 
BRANCH  22  23
HETATM   23  C4  UNL     1      29.407   1.392  54.518  1.00  0.00     0.086 C 
BRANCH  23  24
HETATM   24  C3  UNL     1      29.311   0.149  54.065  1.00  0.00    -0.170 C 
BRANCH  24  25
HETATM   25  C2  UNL     1      29.415  -1.003  53.416  1.00  0.00     0.062 C 
HETATM   26  C1  UNL     1      28.158  -1.674  53.013  1.00  0.00     0.023 C 
ENDBRANCH  24  25
ENDBRANCH  23  24
ENDBRANCH  22  23
ENDBRANCH  20  22
ENDBRANCH   1  20
TORSDOF 9
ENDMDL
MODEL 6
REMARK VINA RESULT:      -6.7      2.321      3.526
REMARK  9 active torsions:
REMARK  status: ('A' for Active; 'I' for Inactive)
REMARK    1  A    between atoms: C2_2  and  C3_3 
REMARK    2  A    between atoms: C3_3  and  C4_4 
REMARK    3  A    between atoms: C4_4  and  C5_5 
REMARK    4  A    between atoms: C5_5  and  N1_6 
REMARK    5  A    between atoms: N1_6  and  C6_7 
REMARK    6  A    between atoms: C9_10  and  N2_11 
REMARK    7  A    between atoms: N2_11  and  C10_12 
REMARK    8  A    between atoms: C10_12  and  C11_13 
REMARK    9  A    between atoms: C17_19  and  N3_20 
ROOT
HETATM    1  C6  UNL     1      24.805   3.405  50.032  1.00  0.00     0.021 C 
HETATM    2  C7  UNL     1      26.126   3.349  50.124  1.00  0.00     0.007 C 
HETATM    3  C8  UNL     1      26.678   2.434  51.184  1.00  0.00     0.106 C 
HETATM    4  C9  UNL     1      25.840   2.547  52.424  1.00  0.00     0.098 C 
HETATM    5  N4  UNL     1      24.581   2.614  52.255  1.00  0.00    -0.271 NA
HETATM    6  C18 UNL     1      23.938   2.585  50.950  1.00  0.00     0.207 C 
ENDROOT
BRANCH   4   7
HETATM    7  N2  UNL     1      26.340   2.585  53.752  1.00  0.00    -0.374 N 
HETATM    8  H12 UNL     1      26.486   3.568  54.140  1.00  0.00     0.161 HD
BRANCH   7   9
HETATM    9  C10 UNL     1      26.643   1.462  54.557  1.00  0.00     0.162 C 
BRANCH   9  10
HETATM   10  C11 UNL     1      27.693   0.552  54.093  1.00  0.00    -0.008 A 
HETATM   11  C12 UNL     1      27.342  -0.665  53.529  1.00  0.00    -0.052 A 
HETATM   12  C13 UNL     1      25.891  -0.992  53.430  1.00  0.00     0.049 C 
HETATM   13  C14 UNL     1      28.336  -1.539  53.074  1.00  0.00     0.007 A 
HETATM   14  C15 UNL     1      29.681  -1.261  53.155  1.00  0.00     0.003 A 
HETATM   15  C16 UNL     1      30.016  -0.068  53.709  1.00  0.00     0.029 A 
HETATM   16  C17 UNL     1      29.047   0.801  54.159  1.00  0.00     0.034 A 
BRANCH  16  17
HETATM   17  N3  UNL     1      29.499   2.028  54.717  1.00  0.00    -0.399 N 
HETATM   18  H21 UNL     1      29.320   2.906  55.211  1.00  0.00     0.156 HD
HETATM   19  H22 UNL     1      30.504   2.369  54.705  1.00  0.00     0.156 HD
ENDBRANCH  16  17
ENDBRANCH   9  10
ENDBRANCH   7   9
ENDBRANCH   4   7
BRANCH   1  20
HETATM   20  N1  UNL     1      24.351   4.284  49.017  1.00  0.00    -0.391 N 
HETATM   21  H8  UNL     1      25.137   4.387  48.330  1.00  0.00     0.159 HD
BRANCH  20  22
HETATM   22  C5  UNL     1      23.029   4.902  48.984  1.00  0.00     0.137 C 
BRANCH  22  23
HETATM   23  C4  UNL     1      22.305   4.387  47.829  1.00  0.00     0.086 C 
BRANCH  23  24
HETATM   24  C3  UNL     1      22.297   3.076  47.628  1.00  0.00    -0.170 C 
BRANCH  24  25
HETATM   25  C2  UNL     1      22.196   1.756  47.706  1.00  0.00     0.062 C 
HETATM   26  C1  UNL     1      21.414   1.198  48.833  1.00  0.00     0.023 C 
ENDBRANCH  24  25
ENDBRANCH  23  24
ENDBRANCH  22  23
ENDBRANCH  20  22
ENDBRANCH   1  20
TORSDOF 9
ENDMDL
MODEL 7
REMARK VINA RESULT:      -6.7      1.844      2.522
REMARK  9 active torsions:
REMARK  status: ('A' for Active; 'I' for Inactive)
REMARK    1  A    between atoms: C2_2  and  C3_3 
REMARK    2  A    between atoms: C3_3  and  C4_4 
REMARK    3  A    between atoms: C4_4  and  C5_5 
REMARK    4  A    between atoms: C5_5  and  N1_6 
REMARK    5  A    between atoms: N1_6  and  C6_7 
REMARK    6  A    between atoms: C9_10  and  N2_11 
REMARK    7  A    between atoms: N2_11  and  C10_12 
REMARK    8  A    between atoms: C10_12  and  C11_13 
REMARK    9  A    between atoms: C17_19  and  N3_20 
ROOT
HETATM    1  C6  UNL     1      21.237   0.714  51.815  1.00  0.00     0.021 C 
HETATM    2  C7  UNL     1      21.590  -0.349  52.524  1.00  0.00     0.007 C 
HETATM    3  C8  UNL     1      22.546  -0.101  53.660  1.00  0.00     0.106 C 
HETATM    4  C9  UNL     1      23.582   0.895  53.228  1.00  0.00     0.098 C 
HETATM    5  N4  UNL     1      23.171   1.880  52.536  1.00  0.00    -0.271 NA
HETATM    6  C18 UNL     1      21.780   2.076  52.157  1.00  0.00     0.207 C 
ENDROOT
BRANCH   4   7
HETATM    7  N2  UNL     1      24.967   0.822  53.531  1.00  0.00    -0.374 N 
HETATM    8  H12 UNL     1      25.186   0.707  54.569  1.00  0.00     0.161 HD
BRANCH   7   9
HETATM    9  C10 UNL     1      26.026   0.888  52.596  1.00  0.00     0.162 C 
BRANCH   9  10
HETATM   10  C11 UNL     1      27.345   0.413  53.022  1.00  0.00    -0.008 A 
HETATM   11  C12 UNL     1      27.668  -0.928  52.876  1.00  0.00    -0.052 A 
HETATM   12  C13 UNL     1      26.636  -1.831  52.293  1.00  0.00     0.049 C 
HETATM   13  C14 UNL     1      28.927  -1.392  53.272  1.00  0.00     0.007 A 
HETATM   14  C15 UNL     1      29.896  -0.579  53.814  1.00  0.00     0.003 A 
HETATM   15  C16 UNL     1      29.571   0.731  53.953  1.00  0.00     0.029 A 
HETATM   16  C17 UNL     1      28.336   1.201  53.567  1.00  0.00     0.034 A 
BRANCH  16  17
HETATM   17  N3  UNL     1      28.095   2.590  53.746  1.00  0.00    -0.399 N 
HETATM   18  H21 UNL     1      28.039   3.543  53.379  1.00  0.00     0.156 HD
HETATM   19  H22 UNL     1      27.824   3.047  54.665  1.00  0.00     0.156 HD
ENDBRANCH  16  17
ENDBRANCH   9  10
ENDBRANCH   7   9
ENDBRANCH   4   7
BRANCH   1  20
HETATM   20  N1  UNL     1      20.338   0.413  50.762  1.00  0.00    -0.391 N 
HETATM   21  H8  UNL     1      20.555  -0.565  50.449  1.00  0.00     0.159 HD
BRANCH  20  22
HETATM   22  C5  UNL     1      19.323   1.328  50.249  1.00  0.00     0.137 C 
BRANCH  22  23
HETATM   23  C4  UNL     1      18.051   0.620  50.184  1.00  0.00     0.086 C 
BRANCH  23  24
HETATM   24  C3  UNL     1      17.744  -0.208  51.174  1.00  0.00    -0.170 C 
BRANCH  24  25
HETATM   25  C2  UNL     1      17.162  -0.949  52.107  1.00  0.00     0.062 C 
HETATM   26  C1  UNL     1      17.967  -1.300  53.299  1.00  0.00     0.023 C 
ENDBRANCH  24  25
ENDBRANCH  23  24
ENDBRANCH  22  23
ENDBRANCH  20  22
ENDBRANCH   1  20
TORSDOF 9
ENDMDL
MODEL 8
REMARK VINA RESULT:      -6.7      2.514      3.758
REMARK  9 active torsions:
REMARK  status: ('A' for Active; 'I' for Inactive)
REMARK    1  A    between atoms: C2_2  and  C3_3 
REMARK    2  A    between atoms: C3_3  and  C4_4 
REMARK    3  A    between atoms: C4_4  and  C5_5 
REMARK    4  A    between atoms: C5_5  and  N1_6 
REMARK    5  A    between atoms: N1_6  and  C6_7 
REMARK    6  A    between atoms: C9_10  and  N2_11 
REMARK    7  A    between atoms: N2_11  and  C10_12 
REMARK    8  A    between atoms: C10_12  and  C11_13 
REMARK    9  A    between atoms: C17_19  and  N3_20 
ROOT
HETATM    1  C6  UNL     1      20.957  -0.190  53.402  1.00  0.00     0.021 C 
HETATM    2  C7  UNL     1      21.298  -1.209  54.178  1.00  0.00     0.007 C 
HETATM    3  C8  UNL     1      22.610  -1.078  54.905  1.00  0.00     0.106 C 
HETATM    4  C9  UNL     1      23.624  -0.454  53.991  1.00  0.00     0.098 C 
HETATM    5  N4  UNL     1      23.218   0.507  53.263  1.00  0.00    -0.271 NA
HETATM    6  C18 UNL     1      21.854   1.013  53.280  1.00  0.00     0.207 C 
ENDROOT
BRANCH   4   7
HETATM    7  N2  UNL     1      24.982  -0.851  53.879  1.00  0.00    -0.374 N 
HETATM    8  H12 UNL     1      25.345  -1.417  54.708  1.00  0.00     0.161 HD
BRANCH   7   9
HETATM    9  C10 UNL     1      25.846  -0.561  52.798  1.00  0.00     0.162 C 
BRANCH   9  10
HETATM   10  C11 UNL     1      27.279  -0.452  53.078  1.00  0.00    -0.008 A 
HETATM   11  C12 UNL     1      27.836   0.797  53.314  1.00  0.00    -0.052 A 
HETATM   12  C13 UNL     1      26.932   1.981  53.261  1.00  0.00     0.049 C 
HETATM   13  C14 UNL     1      29.203   0.913  53.591  1.00  0.00     0.007 A 
HETATM   14  C15 UNL     1      30.057  -0.164  53.645  1.00  0.00     0.003 A 
HETATM   15  C16 UNL     1      29.504  -1.382  53.412  1.00  0.00     0.029 A 
HETATM   16  C17 UNL     1      28.161  -1.510  53.140  1.00  0.00     0.034 A 
BRANCH  16  17
HETATM   17  N3  UNL     1      27.676  -2.827  52.917  1.00  0.00    -0.399 N 
HETATM   18  H21 UNL     1      27.641  -3.821  53.159  1.00  0.00     0.156 HD
HETATM   19  H22 UNL     1      26.995  -3.104  52.152  1.00  0.00     0.156 HD
ENDBRANCH  16  17
ENDBRANCH   9  10
ENDBRANCH   7   9
ENDBRANCH   4   7
BRANCH   1  20
HETATM   20  N1  UNL     1      19.714  -0.376  52.747  1.00  0.00    -0.391 N 
HETATM   21  H8  UNL     1      19.219  -1.153  53.249  1.00  0.00     0.159 HD
BRANCH  20  22
HETATM   22  C5  UNL     1      19.259   0.395  51.594  1.00  0.00     0.137 C 
BRANCH  22  23
HETATM   23  C4  UNL     1      17.808   0.288  51.508  1.00  0.00     0.086 C 
BRANCH  23  24
HETATM   24  C3  UNL     1      17.230  -0.797  52.007  1.00  0.00    -0.170 C 
BRANCH  24  25
HETATM   25  C2  UNL     1      16.426  -1.698  52.556  1.00  0.00     0.062 C 
HETATM   26  C1  UNL     1      15.152  -1.989  51.859  1.00  0.00     0.023 C 
ENDBRANCH  24  25
ENDBRANCH  23  24
ENDBRANCH  22  23
ENDBRANCH  20  22
ENDBRANCH   1  20
TORSDOF 9
ENDMDL
MODEL 9
REMARK VINA RESULT:      -6.6      3.034      6.180
REMARK  9 active torsions:
REMARK  status: ('A' for Active; 'I' for Inactive)
REMARK    1  A    between atoms: C2_2  and  C3_3 
REMARK    2  A    between atoms: C3_3  and  C4_4 
REMARK    3  A    between atoms: C4_4  and  C5_5 
REMARK    4  A    between atoms: C5_5  and  N1_6 
REMARK    5  A    between atoms: N1_6  and  C6_7 
REMARK    6  A    between atoms: C9_10  and  N2_11 
REMARK    7  A    between atoms: N2_11  and  C10_12 
REMARK    8  A    between atoms: C10_12  and  C11_13 
REMARK    9  A    between atoms: C17_19  and  N3_20 
ROOT
HETATM    1  C6  UNL     1      23.779   1.102  53.006  1.00  0.00     0.021 C 
HETATM    2  C7  UNL     1      24.768   1.960  53.218  1.00  0.00     0.007 C 
HETATM    3  C8  UNL     1      24.437   3.415  53.021  1.00  0.00     0.106 C 
HETATM    4  C9  UNL     1      23.555   3.565  51.817  1.00  0.00     0.098 C 
HETATM    5  N4  UNL     1      22.639   2.694  51.671  1.00  0.00    -0.271 NA
HETATM    6  C18 UNL     1      22.417   1.593  52.595  1.00  0.00     0.207 C 
ENDROOT
BRANCH   4   7
HETATM    7  N2  UNL     1      23.664   4.592  50.842  1.00  0.00    -0.374 N 
HETATM    8  H12 UNL     1      23.402   5.564  51.196  1.00  0.00     0.161 HD
BRANCH   7   9
HETATM    9  C10 UNL     1      24.076   4.422  49.500  1.00  0.00     0.162 C 
BRANCH   9  10
HETATM   10  C11 UNL     1      25.309   5.089  49.075  1.00  0.00    -0.008 A 
HETATM   11  C12 UNL     1      26.514   4.407  49.147  1.00  0.00    -0.052 A 
HETATM   12  C13 UNL     1      26.492   3.012  49.671  1.00  0.00     0.049 C 
HETATM   13  C14 UNL     1      27.698   5.031  48.735  1.00  0.00     0.007 A 
HETATM   14  C15 UNL     1      27.744   6.317  48.249  1.00  0.00     0.003 A 
HETATM   15  C16 UNL     1      26.560   6.977  48.182  1.00  0.00     0.029 A 
HETATM   16  C17 UNL     1      25.389   6.375  48.583  1.00  0.00     0.034 A 
BRANCH  16  17
HETATM   17  N3  UNL     1      24.200   7.146  48.467  1.00  0.00    -0.399 N 
HETATM   18  H21 UNL     1      23.701   7.978  48.142  1.00  0.00     0.156 HD
HETATM   19  H22 UNL     1      23.254   6.869  48.860  1.00  0.00     0.156 HD
ENDBRANCH  16  17
ENDBRANCH   9  10
ENDBRANCH   7   9
ENDBRANCH   4   7
BRANCH   1  20
HETATM   20  N1  UNL     1      24.156  -0.249  53.207  1.00  0.00    -0.391 N 
HETATM   21  H8  UNL     1      23.437  -0.840  52.723  1.00  0.00     0.159 HD
BRANCH  20  22
HETATM   22  C5  UNL     1      25.333  -0.681  53.955  1.00  0.00     0.137 C 
BRANCH  22  23
HETATM   23  C4  UNL     1      26.339  -1.147  53.008  1.00  0.00     0.086 C 
BRANCH  23  24
HETATM   24  C3  UNL     1      27.603  -0.809  53.222  1.00  0.00    -0.170 C 
BRANCH  24  25
HETATM   25  C2  UNL     1      28.755  -0.204  53.482  1.00  0.00     0.062 C 
HETATM   26  C1  UNL     1      29.953  -1.059  53.642  1.00  0.00     0.023 C 
ENDBRANCH  24  25
ENDBRANCH  23  24
ENDBRANCH  22  23
ENDBRANCH  20  22
ENDBRANCH   1  20
TORSDOF 9
ENDMDL
