MODEL 1
REMARK VINA RESULT:      -7.0      0.000      0.000
REMARK  6 active torsions:
REMARK  status: ('A' for Active; 'I' for Inactive)
REMARK    1  A    between atoms: C3_3  and  C4_4 
REMARK    2  A    between atoms: C9_9  and  P1_10 
REMARK    3  A    between atoms: P1_10  and  C10_11 
REMARK    4  A    between atoms: C10_11  and  C11_12 
REMARK    5  A    between atoms: C16_19  and  S1_20 
REMARK    6  A    between atoms: S1_20  and  C17_21 
ROOT
HETATM    1  C4  UNL     1      24.799   2.438  52.901  1.00  0.00     0.102 C 
HETATM    2  C5  UNL     1      24.105   3.072  51.713  1.00  0.00    -0.042 C 
HETATM    3  C6  UNL     1      24.294   2.732  50.383  1.00  0.00     0.039 C 
HETATM    4  C7  UNL     1      25.462   3.715  50.244  1.00  0.00     0.051 C 
HETATM    5  C8  UNL     1      25.696   5.015  49.860  1.00  0.00     0.039 C 
HETATM    6  C9  UNL     1      24.720   6.107  50.175  1.00  0.00    -0.042 C 
HETATM    7  C13 UNL     1      23.475   6.345  50.947  1.00  0.00     0.067 C 
HETATM    8  C14 UNL     1      23.223   5.377  52.045  1.00  0.00    -0.021 C 
HETATM    9  C15 UNL     1      23.341   4.098  52.506  1.00  0.00     0.004 C 
HETATM   10  N1  UNL     1      26.860   3.405  50.636  1.00  0.00    -0.278 N 
HETATM   11  N2  UNL     1      27.201   2.527  51.734  1.00  0.00    -0.171 NA
HETATM   12  C16 UNL     1      26.274   2.187  52.629  1.00  0.00     0.103 C 
HETATM   13  H20 UNL     1      27.521   3.937  49.994  1.00  0.00     0.189 HD
ENDROOT
BRANCH   6  14
HETATM   14  P1  UNL     1      25.350   7.391  49.353  1.00  0.00    -0.054 P 
BRANCH  14  15
HETATM   15  C10 UNL     1      27.145   7.744  49.222  1.00  0.00     0.043 C 
BRANCH  15  16
HETATM   16  C11 UNL     1      27.683   7.274  47.873  1.00  0.00     0.001 C 
HETATM   17  C12 UNL     1      28.687   6.158  48.042  1.00  0.00     0.005 C 
ENDBRANCH  15  16
ENDBRANCH  14  15
ENDBRANCH   6  14
BRANCH   1  18
HETATM   18  C3  UNL     1      24.093   1.243  53.301  1.00  0.00    -0.015 C 
HETATM   19  C2  UNL     1      23.254   0.248  52.973  1.00  0.00    -0.034 C 
HETATM   20  C1  UNL     1      22.714  -0.918  53.763  1.00  0.00     0.036 C 
ENDBRANCH   1  18
BRANCH  12  21
HETATM   21  S1  UNL     1      26.976   1.123  53.880  1.00  0.00    -0.112 SA
BRANCH  21  22
HETATM   22  C17 UNL     1      27.741  -0.352  53.158  1.00  0.00     0.076 C 
HETATM   23  C18 UNL     1      26.743  -1.168  52.369  1.00  0.00     0.016 C 
ENDBRANCH  21  22
ENDBRANCH  12  21
TORSDOF 6
ENDMDL
MODEL 2
REMARK VINA RESULT:      -6.2      2.870      4.061
REMARK  6 active torsions:
REMARK  status: ('A' for Active; 'I' for Inactive)
REMARK    1  A    between atoms: C3_3  and  C4_4 
REMARK    2  A    between atoms: C9_9  and  P1_10 
REMARK    3  A    between atoms: P1_10  and  C10_11 
REMARK    4  A    between atoms: C10_11  and  C11_12 
REMARK    5  A    between atoms: C16_19  and  S1_20 
REMARK    6  A    between atoms: S1_20  and  C17_21 
ROOT
HETATM    1  C4  UNL     1      22.519   2.200  52.056  1.00  0.00     0.102 C 
HETATM    2  C5  UNL     1      23.808   2.977  52.223  1.00  0.00    -0.042 C 
HETATM    3  C6  UNL     1      24.030   4.000  53.132  1.00  0.00     0.039 C 
HETATM    4  C7  UNL     1      23.505   5.055  52.152  1.00  0.00     0.051 C 
HETATM    5  C8  UNL     1      23.976   5.917  51.190  1.00  0.00     0.039 C 
HETATM    6  C9  UNL     1      25.102   5.527  50.280  1.00  0.00    -0.042 C 
HETATM    7  C13 UNL     1      25.933   4.351  49.923  1.00  0.00     0.067 C 
HETATM    8  C14 UNL     1      25.332   3.035  50.255  1.00  0.00    -0.021 C 
HETATM    9  C15 UNL     1      24.545   2.304  51.097  1.00  0.00     0.004 C 
HETATM   10  N1  UNL     1      22.066   5.378  51.971  1.00  0.00    -0.278 N 
HETATM   11  N2  UNL     1      21.008   4.404  52.119  1.00  0.00    -0.171 NA
HETATM   12  C16 UNL     1      21.297   3.102  52.138  1.00  0.00     0.103 C 
HETATM   13  H20 UNL     1      21.977   6.407  51.714  1.00  0.00     0.189 HD
ENDROOT
BRANCH   6  14
HETATM   14  P1  UNL     1      25.408   6.935  49.475  1.00  0.00    -0.054 P 
BRANCH  14  15
HETATM   15  C10 UNL     1      27.091   7.563  49.111  1.00  0.00     0.043 C 
BRANCH  15  16
HETATM   16  C11 UNL     1      27.645   6.905  47.849  1.00  0.00     0.001 C 
HETATM   17  C12 UNL     1      28.811   6.000  48.169  1.00  0.00     0.005 C 
ENDBRANCH  15  16
ENDBRANCH  14  15
ENDBRANCH   6  14
BRANCH   1  18
HETATM   18  C3  UNL     1      22.475   1.113  53.006  1.00  0.00    -0.015 C 
HETATM   19  C2  UNL     1      22.609  -0.200  53.246  1.00  0.00    -0.034 C 
HETATM   20  C1  UNL     1      22.461  -1.016  54.507  1.00  0.00     0.036 C 
ENDBRANCH   1  18
BRANCH  12  21
HETATM   21  S1  UNL     1      19.806   2.135  52.304  1.00  0.00    -0.112 SA
BRANCH  21  22
HETATM   22  C17 UNL     1      19.517   1.088  50.853  1.00  0.00     0.076 C 
HETATM   23  C18 UNL     1      18.536  -0.022  51.153  1.00  0.00     0.016 C 
ENDBRANCH  21  22
ENDBRANCH  12  21
TORSDOF 6
ENDMDL
MODEL 3
REMARK VINA RESULT:      -6.1      1.579      1.815
REMARK  6 active torsions:
REMARK  status: ('A' for Active; 'I' for Inactive)
REMARK    1  A    between atoms: C3_3  and  C4_4 
REMARK    2  A    between atoms: C9_9  and  P1_10 
REMARK    3  A    between atoms: P1_10  and  C10_11 
REMARK    4  A    between atoms: C10_11  and  C11_12 
REMARK    5  A    between atoms: C16_19  and  S1_20 
REMARK    6  A    between atoms: S1_20  and  C17_21 
ROOT
HETATM    1  C4  UNL     1      24.065   2.510  52.419  1.00  0.00     0.102 C 
HETATM    2  C5  UNL     1      23.089   2.899  51.327  1.00  0.00    -0.042 C 
HETATM    3  C6  UNL     1      23.079   2.408  50.031  1.00  0.00     0.039 C 
HETATM    4  C7  UNL     1      24.059   3.489  49.559  1.00  0.00     0.051 C 
HETATM    5  C8  UNL     1      24.041   4.745  48.998  1.00  0.00     0.039 C 
HETATM    6  C9  UNL     1      22.998   5.752  49.377  1.00  0.00    -0.042 C 
HETATM    7  C13 UNL     1      21.892   5.948  50.347  1.00  0.00     0.067 C 
HETATM    8  C14 UNL     1      21.976   5.113  51.571  1.00  0.00    -0.021 C 
HETATM    9  C15 UNL     1      22.349   3.928  52.138  1.00  0.00     0.004 C 
HETATM   10  N1  UNL     1      25.534   3.394  49.703  1.00  0.00    -0.278 N 
HETATM   11  N2  UNL     1      26.184   2.714  50.801  1.00  0.00    -0.171 NA
HETATM   12  C16 UNL     1      25.487   2.393  51.892  1.00  0.00     0.103 C 
HETATM   13  H20 UNL     1      25.990   3.907  48.889  1.00  0.00     0.189 HD
ENDROOT
BRANCH   6  14
HETATM   14  P1  UNL     1      23.289   6.979  48.312  1.00  0.00    -0.054 P 
BRANCH  14  15
HETATM   15  C10 UNL     1      24.153   8.535  48.753  1.00  0.00     0.043 C 
BRANCH  15  16
HETATM   16  C11 UNL     1      24.743   8.438  50.158  1.00  0.00     0.001 C 
HETATM   17  C12 UNL     1      26.087   7.748  50.141  1.00  0.00     0.005 C 
ENDBRANCH  15  16
ENDBRANCH  14  15
ENDBRANCH   6  14
BRANCH   1  18
HETATM   18  C3  UNL     1      23.612   1.307  53.076  1.00  0.00    -0.015 C 
HETATM   19  C2  UNL     1      22.750   0.279  53.111  1.00  0.00    -0.034 C 
HETATM   20  C1  UNL     1      22.598  -0.880  54.064  1.00  0.00     0.036 C 
ENDBRANCH   1  18
BRANCH  12  21
HETATM   21  S1  UNL     1      26.541   1.591  53.090  1.00  0.00    -0.112 SA
BRANCH  21  22
HETATM   22  C17 UNL     1      27.202   0.024  52.464  1.00  0.00     0.076 C 
HETATM   23  C18 UNL     1      26.339  -1.147  52.875  1.00  0.00     0.016 C 
ENDBRANCH  21  22
ENDBRANCH  12  21
TORSDOF 6
ENDMDL
MODEL 4
REMARK VINA RESULT:      -6.1      3.341      8.015
REMARK  6 active torsions:
REMARK  status: ('A' for Active; 'I' for Inactive)
REMARK    1  A    between atoms: C3_3  and  C4_4 
REMARK    2  A    between atoms: C9_9  and  P1_10 
REMARK    3  A    between atoms: P1_10  and  C10_11 
REMARK    4  A    between atoms: C10_11  and  C11_12 
REMARK    5  A    between atoms: C16_19  and  S1_20 
REMARK    6  A    between atoms: S1_20  and  C17_21 
ROOT
HETATM    1  C4  UNL     1      28.257   7.419  48.545  1.00  0.00     0.102 C 
HETATM    2  C5  UNL     1      27.023   6.589  48.256  1.00  0.00    -0.042 C 
HETATM    3  C6  UNL     1      25.758   7.080  47.974  1.00  0.00     0.039 C 
HETATM    4  C7  UNL     1      25.391   7.134  49.462  1.00  0.00     0.051 C 
HETATM    5  C8  UNL     1      24.786   6.353  50.419  1.00  0.00     0.039 C 
HETATM    6  C9  UNL     1      24.974   4.867  50.445  1.00  0.00    -0.042 C 
HETATM    7  C13 UNL     1      25.768   3.800  49.786  1.00  0.00     0.067 C 
HETATM    8  C14 UNL     1      27.022   4.260  49.139  1.00  0.00    -0.021 C 
HETATM    9  C15 UNL     1      27.680   5.251  48.471  1.00  0.00     0.004 C 
HETATM   10  N1  UNL     1      25.747   8.257  50.366  1.00  0.00    -0.278 N 
HETATM   11  N2  UNL     1      26.952   9.043  50.220  1.00  0.00    -0.171 NA
HETATM   12  C16 UNL     1      27.943   8.606  49.443  1.00  0.00     0.103 C 
HETATM   13  H20 UNL     1      24.988   8.353  51.106  1.00  0.00     0.189 HD
ENDROOT
BRANCH   6  14
HETATM   14  P1  UNL     1      23.916   4.398  51.622  1.00  0.00    -0.054 P 
BRANCH  14  15
HETATM   15  C10 UNL     1      23.154   2.733  51.711  1.00  0.00     0.043 C 
BRANCH  15  16
HETATM   16  C11 UNL     1      23.694   1.963  52.914  1.00  0.00     0.001 C 
HETATM   17  C12 UNL     1      25.124   2.347  53.214  1.00  0.00     0.005 C 
ENDBRANCH  15  16
ENDBRANCH  14  15
ENDBRANCH   6  14
BRANCH   1  18
HETATM   18  C3  UNL     1      28.887   7.807  47.305  1.00  0.00    -0.015 C 
HETATM   19  C2  UNL     1      29.802   7.547  46.358  1.00  0.00    -0.034 C 
HETATM   20  C1  UNL     1      30.185   8.280  45.097  1.00  0.00     0.036 C 
ENDBRANCH   1  18
BRANCH  12  21
HETATM   21  S1  UNL     1      29.309   9.756  49.470  1.00  0.00    -0.112 SA
BRANCH  21  22
HETATM   22  C17 UNL     1      28.836  11.378  48.814  1.00  0.00     0.076 C 
HETATM   23  C18 UNL     1      28.307  11.275  47.402  1.00  0.00     0.016 C 
ENDBRANCH  21  22
ENDBRANCH  12  21
TORSDOF 6
ENDMDL
MODEL 5
REMARK VINA RESULT:      -6.1      3.334      6.347
REMARK  6 active torsions:
REMARK  status: ('A' for Active; 'I' for Inactive)
REMARK    1  A    between atoms: C3_3  and  C4_4 
REMARK    2  A    between atoms: C9_9  and  P1_10 
REMARK    3  A    between atoms: P1_10  and  C10_11 
REMARK    4  A    between atoms: C10_11  and  C11_12 
REMARK    5  A    between atoms: C16_19  and  S1_20 
REMARK    6  A    between atoms: S1_20  and  C17_21 
ROOT
HETATM    1  C4  UNL     1      25.243   2.899  50.340  1.00  0.00     0.102 C 
HETATM    2  C5  UNL     1      23.905   3.563  50.094  1.00  0.00    -0.042 C 
HETATM    3  C6  UNL     1      23.345   4.577  50.857  1.00  0.00     0.039 C 
HETATM    4  C7  UNL     1      22.686   3.569  51.806  1.00  0.00     0.051 C 
HETATM    5  C8  UNL     1      21.493   2.903  51.961  1.00  0.00     0.039 C 
HETATM    6  C9  UNL     1      20.720   2.405  50.777  1.00  0.00    -0.042 C 
HETATM    7  C13 UNL     1      20.844   2.257  49.306  1.00  0.00     0.067 C 
HETATM    8  C14 UNL     1      22.237   2.250  48.792  1.00  0.00    -0.021 C 
HETATM    9  C15 UNL     1      23.517   2.706  48.919  1.00  0.00     0.004 C 
HETATM   10  N1  UNL     1      23.379   2.933  52.956  1.00  0.00    -0.278 N 
HETATM   11  N2  UNL     1      24.792   2.627  52.961  1.00  0.00    -0.171 NA
HETATM   12  C16 UNL     1      25.481   2.633  51.819  1.00  0.00     0.103 C 
HETATM   13  H20 UNL     1      22.667   2.749  53.724  1.00  0.00     0.189 HD
ENDROOT
BRANCH   6  14
HETATM   14  P1  UNL     1      19.318   1.876  51.469  1.00  0.00    -0.054 P 
BRANCH  14  15
HETATM   15  C10 UNL     1      19.015   0.139  51.973  1.00  0.00     0.043 C 
BRANCH  15  16
HETATM   16  C11 UNL     1      17.612  -0.298  51.559  1.00  0.00     0.001 C 
HETATM   17  C12 UNL     1      17.355  -0.009  50.099  1.00  0.00     0.005 C 
ENDBRANCH  15  16
ENDBRANCH  14  15
ENDBRANCH   6  14
BRANCH   1  18
HETATM   18  C3  UNL     1      26.297   3.681  49.737  1.00  0.00    -0.015 C 
HETATM   19  C2  UNL     1      26.652   4.750  49.009  1.00  0.00    -0.034 C 
HETATM   20  C1  UNL     1      27.997   5.260  48.553  1.00  0.00     0.036 C 
ENDBRANCH   1  18
BRANCH  12  21
HETATM   21  S1  UNL     1      27.186   2.195  52.117  1.00  0.00    -0.112 SA
BRANCH  21  22
HETATM   22  C17 UNL     1      27.331   0.631  53.020  1.00  0.00     0.076 C 
HETATM   23  C18 UNL     1      26.693  -0.511  52.263  1.00  0.00     0.016 C 
ENDBRANCH  21  22
ENDBRANCH  12  21
TORSDOF 6
ENDMDL
MODEL 6
REMARK VINA RESULT:      -6.1      2.585      3.718
REMARK  6 active torsions:
REMARK  status: ('A' for Active; 'I' for Inactive)
REMARK    1  A    between atoms: C3_3  and  C4_4 
REMARK    2  A    between atoms: C9_9  and  P1_10 
REMARK    3  A    between atoms: P1_10  and  C10_11 
REMARK    4  A    between atoms: C10_11  and  C11_12 
REMARK    5  A    between atoms: C16_19  and  S1_20 
REMARK    6  A    between atoms: S1_20  and  C17_21 
ROOT
HETATM    1  C4  UNL     1      23.756   1.538  51.837  1.00  0.00     0.102 C 
HETATM    2  C5  UNL     1      24.425   2.896  51.871  1.00  0.00    -0.042 C 
HETATM    3  C6  UNL     1      23.981   4.006  52.574  1.00  0.00     0.039 C 
HETATM    4  C7  UNL     1      23.095   4.456  51.407  1.00  0.00     0.051 C 
HETATM    5  C8  UNL     1      23.153   5.278  50.306  1.00  0.00     0.039 C 
HETATM    6  C9  UNL     1      24.410   5.412  49.500  1.00  0.00    -0.042 C 
HETATM    7  C13 UNL     1      25.765   4.820  49.381  1.00  0.00     0.067 C 
HETATM    8  C14 UNL     1      25.903   3.454  49.947  1.00  0.00    -0.021 C 
HETATM    9  C15 UNL     1      25.524   2.555  50.901  1.00  0.00     0.004 C 
HETATM   10  N1  UNL     1      21.729   3.933  51.150  1.00  0.00    -0.278 N 
HETATM   11  N2  UNL     1      21.323   2.582  51.465  1.00  0.00    -0.171 NA
HETATM   12  C16 UNL     1      22.243   1.654  51.732  1.00  0.00     0.103 C 
HETATM   13  H20 UNL     1      21.147   4.704  50.703  1.00  0.00     0.189 HD
ENDROOT
BRANCH   6  14
HETATM   14  P1  UNL     1      24.026   6.625  48.448  1.00  0.00    -0.054 P 
BRANCH  14  15
HETATM   15  C10 UNL     1      24.749   8.308  48.516  1.00  0.00     0.043 C 
BRANCH  15  16
HETATM   16  C11 UNL     1      25.199   8.638  49.938  1.00  0.00     0.001 C 
HETATM   17  C12 UNL     1      26.696   8.505  50.083  1.00  0.00     0.005 C 
ENDBRANCH  15  16
ENDBRANCH  14  15
ENDBRANCH   6  14
BRANCH   1  18
HETATM   18  C3  UNL     1      24.179   0.754  52.974  1.00  0.00    -0.015 C 
HETATM   19  C2  UNL     1      25.026  -0.152  53.485  1.00  0.00    -0.034 C 
HETATM   20  C1  UNL     1      25.139  -0.767  54.858  1.00  0.00     0.036 C 
ENDBRANCH   1  18
BRANCH  12  21
HETATM   21  S1  UNL     1      21.464   0.080  52.058  1.00  0.00    -0.112 SA
BRANCH  21  22
HETATM   22  C17 UNL     1      20.738   0.019  53.717  1.00  0.00     0.076 C 
HETATM   23  C18 UNL     1      21.305  -1.120  54.532  1.00  0.00     0.016 C 
ENDBRANCH  21  22
ENDBRANCH  12  21
TORSDOF 6
ENDMDL
MODEL 7
REMARK VINA RESULT:      -6.0      3.656      6.179
REMARK  6 active torsions:
REMARK  status: ('A' for Active; 'I' for Inactive)
REMARK    1  A    between atoms: C3_3  and  C4_4 
REMARK    2  A    between atoms: C9_9  and  P1_10 
REMARK    3  A    between atoms: P1_10  and  C10_11 
REMARK    4  A    between atoms: C10_11  and  C11_12 
REMARK    5  A    between atoms: C16_19  and  S1_20 
REMARK    6  A    between atoms: S1_20  and  C17_21 
ROOT
HETATM    1  C4  UNL     1      22.225   2.264  50.659  1.00  0.00     0.102 C 
HETATM    2  C5  UNL     1      22.803   2.106  52.049  1.00  0.00    -0.042 C 
HETATM    3  C6  UNL     1      23.618   3.019  52.701  1.00  0.00     0.039 C 
HETATM    4  C7  UNL     1      24.883   2.405  52.090  1.00  0.00     0.051 C 
HETATM    5  C8  UNL     1      25.838   1.462  52.388  1.00  0.00     0.039 C 
HETATM    6  C9  UNL     1      25.483   0.196  53.108  1.00  0.00    -0.042 C 
HETATM    7  C13 UNL     1      24.298  -0.558  53.585  1.00  0.00     0.067 C 
HETATM    8  C14 UNL     1      23.024  -0.224  52.900  1.00  0.00    -0.021 C 
HETATM    9  C15 UNL     1      22.255   0.725  52.292  1.00  0.00     0.004 C 
HETATM   10  N1  UNL     1      25.400   2.740  50.738  1.00  0.00    -0.278 N 
HETATM   11  N2  UNL     1      24.546   3.095  49.626  1.00  0.00    -0.171 NA
HETATM   12  C16 UNL     1      23.237   2.851  49.686  1.00  0.00     0.103 C 
HETATM   13  H20 UNL     1      26.461   2.660  50.749  1.00  0.00     0.189 HD
ENDROOT
BRANCH   6  14
HETATM   14  P1  UNL     1      26.964  -0.476  53.389  1.00  0.00    -0.054 P 
BRANCH  14  15
HETATM   15  C10 UNL     1      28.158   0.153  54.630  1.00  0.00     0.043 C 
BRANCH  15  16
HETATM   16  C11 UNL     1      29.262   0.957  53.948  1.00  0.00     0.001 C 
HETATM   17  C12 UNL     1      28.896   2.419  53.851  1.00  0.00     0.005 C 
ENDBRANCH  15  16
ENDBRANCH  14  15
ENDBRANCH   6  14
BRANCH   1  18
HETATM   18  C3  UNL     1      21.001   3.029  50.721  1.00  0.00    -0.015 C 
HETATM   19  C2  UNL     1      19.681   3.055  50.959  1.00  0.00    -0.034 C 
HETATM   20  C1  UNL     1      18.667   4.171  50.905  1.00  0.00     0.036 C 
ENDBRANCH   1  18
BRANCH  12  21
HETATM   21  S1  UNL     1      22.437   3.363  48.174  1.00  0.00    -0.112 SA
BRANCH  21  22
HETATM   22  C17 UNL     1      22.768   5.103  47.793  1.00  0.00     0.076 C 
HETATM   23  C18 UNL     1      22.076   6.028  48.768  1.00  0.00     0.016 C 
ENDBRANCH  21  22
ENDBRANCH  12  21
TORSDOF 6
ENDMDL
MODEL 8
REMARK VINA RESULT:      -6.0      4.962      7.906
REMARK  6 active torsions:
REMARK  status: ('A' for Active; 'I' for Inactive)
REMARK    1  A    between atoms: C3_3  and  C4_4 
REMARK    2  A    between atoms: C9_9  and  P1_10 
REMARK    3  A    between atoms: P1_10  and  C10_11 
REMARK    4  A    between atoms: C10_11  and  C11_12 
REMARK    5  A    between atoms: C16_19  and  S1_20 
REMARK    6  A    between atoms: S1_20  and  C17_21 
ROOT
HETATM    1  C4  UNL     1      22.652   1.538  52.395  1.00  0.00     0.102 C 
HETATM    2  C5  UNL     1      21.741   0.470  51.826  1.00  0.00    -0.042 C 
HETATM    3  C6  UNL     1      21.418   0.301  50.489  1.00  0.00     0.039 C 
HETATM    4  C7  UNL     1      20.237   1.271  50.598  1.00  0.00     0.051 C 
HETATM    5  C8  UNL     1      18.884   1.249  50.843  1.00  0.00     0.039 C 
HETATM    6  C9  UNL     1      18.288   0.297  51.835  1.00  0.00    -0.042 C 
HETATM    7  C13 UNL     1      18.696  -0.690  52.865  1.00  0.00     0.067 C 
HETATM    8  C14 UNL     1      20.073  -0.513  53.392  1.00  0.00    -0.021 C 
HETATM    9  C15 UNL     1      21.362  -0.135  53.152  1.00  0.00     0.004 C 
HETATM   10  N1  UNL     1      20.361   2.748  50.496  1.00  0.00    -0.278 N 
HETATM   11  N2  UNL     1      21.525   3.479  50.944  1.00  0.00    -0.171 NA
HETATM   12  C16 UNL     1      22.420   2.890  51.737  1.00  0.00     0.103 C 
HETATM   13  H20 UNL     1      19.469   3.137  50.065  1.00  0.00     0.189 HD
ENDROOT
BRANCH   6  14
HETATM   14  P1  UNL     1      16.668   0.528  51.616  1.00  0.00    -0.054 P 
BRANCH  14  15
HETATM   15  C10 UNL     1      15.375  -0.181  52.706  1.00  0.00     0.043 C 
BRANCH  15  16
HETATM   16  C11 UNL     1      14.385   0.901  53.132  1.00  0.00     0.001 C 
HETATM   17  C12 UNL     1      14.778   2.251  52.579  1.00  0.00     0.005 C 
ENDBRANCH  15  16
ENDBRANCH  14  15
ENDBRANCH   6  14
BRANCH   1  18
HETATM   18  C3  UNL     1      24.027   1.104  52.311  1.00  0.00    -0.015 C 
HETATM   19  C2  UNL     1      25.014   0.336  52.796  1.00  0.00    -0.034 C 
HETATM   20  C1  UNL     1      26.454   0.160  52.380  1.00  0.00     0.036 C 
ENDBRANCH   1  18
BRANCH  12  21
HETATM   21  S1  UNL     1      23.731   4.028  52.152  1.00  0.00    -0.112 SA
BRANCH  21  22
HETATM   22  C17 UNL     1      24.541   4.692  50.673  1.00  0.00     0.076 C 
HETATM   23  C18 UNL     1      25.060   3.588  49.780  1.00  0.00     0.016 C 
ENDBRANCH  21  22
ENDBRANCH  12  21
TORSDOF 6
ENDMDL
MODEL 9
REMARK VINA RESULT:      -6.0      3.429      7.490
REMARK  6 active torsions:
REMARK  status: ('A' for Active; 'I' for Inactive)
REMARK    1  A    between atoms: C3_3  and  C4_4 
REMARK    2  A    between atoms: C9_9  and  P1_10 
REMARK    3  A    between atoms: P1_10  and  C10_11 
REMARK    4  A    between atoms: C10_11  and  C11_12 
REMARK    5  A    between atoms: C16_19  and  S1_20 
REMARK    6  A    between atoms: S1_20  and  C17_21 
ROOT
HETATM    1  C4  UNL     1      24.740   5.014  50.593  1.00  0.00     0.102 C 
HETATM    2  C5  UNL     1      24.498   3.566  50.222  1.00  0.00    -0.042 C 
HETATM    3  C6  UNL     1      23.735   3.114  49.157  1.00  0.00     0.039 C 
HETATM    4  C7  UNL     1      22.456   3.125  50.002  1.00  0.00     0.051 C 
HETATM    5  C8  UNL     1      21.714   2.275  50.789  1.00  0.00     0.039 C 
HETATM    6  C9  UNL     1      22.372   1.253  51.665  1.00  0.00    -0.042 C 
HETATM    7  C13 UNL     1      23.718   0.841  52.135  1.00  0.00     0.067 C 
HETATM    8  C14 UNL     1      24.762   1.893  52.048  1.00  0.00    -0.021 C 
HETATM    9  C15 UNL     1      25.256   2.977  51.382  1.00  0.00     0.004 C 
HETATM   10  N1  UNL     1      21.622   4.332  50.233  1.00  0.00    -0.278 N 
HETATM   11  N2  UNL     1      22.165   5.671  50.306  1.00  0.00    -0.171 NA
HETATM   12  C16 UNL     1      23.477   5.851  50.463  1.00  0.00     0.103 C 
HETATM   13  H20 UNL     1      20.607   4.031  50.338  1.00  0.00     0.189 HD
ENDROOT
BRANCH   6  14
HETATM   14  P1  UNL     1      21.083   0.389  52.227  1.00  0.00    -0.054 P 
BRANCH  14  15
HETATM   15  C10 UNL     1      20.736   0.104  54.005  1.00  0.00     0.043 C 
BRANCH  15  16
HETATM   16  C11 UNL     1      21.205  -1.288  54.423  1.00  0.00     0.001 C 
HETATM   17  C12 UNL     1      22.575  -1.237  55.057  1.00  0.00     0.005 C 
ENDBRANCH  15  16
ENDBRANCH  14  15
ENDBRANCH   6  14
BRANCH   1  18
HETATM   18  C3  UNL     1      25.842   5.541  49.822  1.00  0.00    -0.015 C 
HETATM   19  C2  UNL     1      26.571   5.500  48.697  1.00  0.00    -0.034 C 
HETATM   20  C1  UNL     1      27.762   6.303  48.237  1.00  0.00     0.036 C 
ENDBRANCH   1  18
BRANCH  12  21
HETATM   21  S1  UNL     1      23.861   7.593  50.548  1.00  0.00    -0.112 SA
BRANCH  21  22
HETATM   22  C17 UNL     1      23.594   8.420  48.958  1.00  0.00     0.076 C 
HETATM   23  C18 UNL     1      22.261   9.132  48.918  1.00  0.00     0.016 C 
ENDBRANCH  21  22
ENDBRANCH  12  21
TORSDOF 6
ENDMDL
