MODEL 1
REMARK VINA RESULT:      -9.1      0.000      0.000
REMARK  5 active torsions:
REMARK  status: ('A' for Active; 'I' for Inactive)
REMARK       I    between atoms: C2_2  and  N1_4 
REMARK    1  A    between atoms: N1_4  and  C3_5 
REMARK    2  A    between atoms: C7_9  and  O2_10 
REMARK    3  A    between atoms: O2_10  and  C8_11 
REMARK    4  A    between atoms: C10_13  and  N2_14 
REMARK    5  A    between atoms: N2_14  and  C11_15 
ROOT
HETATM    1  C8  UNL     1      29.608   6.344  48.158  1.00  0.00     0.174 A 
HETATM    2  C9  UNL     1      30.771   5.619  48.029  1.00  0.00     0.108 A 
HETATM    3  C10 UNL     1      31.939   6.210  48.464  1.00  0.00     0.133 A 
HETATM    4  N3  UNL     1      31.942   7.445  48.992  1.00  0.00    -0.224 NA
HETATM    5  C21 UNL     1      30.789   8.161  49.118  1.00  0.00     0.238 A 
HETATM    6  N4  UNL     1      29.641   7.579  48.691  1.00  0.00    -0.217 NA
ENDROOT
BRANCH   3   7
HETATM    7  N2  UNL     1      33.158   5.519  48.373  1.00  0.00    -0.343 N 
HETATM    8  H9  UNL     1      33.911   5.176  49.036  1.00  0.00     0.167 HD
BRANCH   7   9
HETATM    9  C11 UNL     1      33.517   5.158  47.022  1.00  0.00     0.029 C 
HETATM   10  C12 UNL     1      33.506   6.100  46.066  1.00  0.00     0.028 C 
HETATM   11  C13 UNL     1      33.817   6.049  44.618  1.00  0.00     0.026 C 
HETATM   12  C14 UNL     1      34.538   5.115  44.009  1.00  0.00     0.134 C 
HETATM   13  O3  UNL     1      35.140   3.997  44.627  1.00  0.00    -0.361 OA
HETATM   14  C15 UNL     1      35.149   3.571  45.957  1.00  0.00     0.198 C 
HETATM   15  C16 UNL     1      33.888   3.766  46.715  1.00  0.00     0.062 A 
HETATM   16  C17 UNL     1      33.991   3.021  47.996  1.00  0.00    -0.002 A 
HETATM   17  C20 UNL     1      32.777   3.033  46.023  1.00  0.00     0.037 A 
HETATM   18  C18 UNL     1      33.108   2.059  48.015  1.00  0.00     0.039 A 
HETATM   19  C19 UNL     1      32.324   2.038  46.784  1.00  0.00     0.113 A 
HETATM   20  F1  UNL     1      31.318   1.304  46.267  1.00  0.00    -0.206 F 
ENDBRANCH   7   9
ENDBRANCH   3   7
BRANCH   1  21
HETATM   21  O2  UNL     1      28.316   5.999  47.810  1.00  0.00    -0.292 OA
BRANCH  21  22
HETATM   22  C7  UNL     1      27.305   5.607  48.632  1.00  0.00     0.080 A 
HETATM   23  C6  UNL     1      26.407   6.623  48.979  1.00  0.00     0.037 A 
HETATM   24  C5  UNL     1      25.344   6.316  49.811  1.00  0.00     0.005 A 
HETATM   25  C4  UNL     1      25.241   5.014  50.248  1.00  0.00     0.029 A 
HETATM   26  C3  UNL     1      26.093   3.990  49.936  1.00  0.00     0.037 A 
HETATM   27  C22 UNL     1      27.125   4.333  49.116  1.00  0.00     0.066 A 
BRANCH  26  28
HETATM   28  N1  UNL     1      26.004   2.657  50.362  1.00  0.00    -0.327 N 
HETATM   29  C2  UNL     1      26.728   1.997  51.361  1.00  0.00     0.218 C 
HETATM   30  C1  UNL     1      26.674   0.605  51.848  1.00  0.00     0.117 C 
HETATM   31  O1  UNL     1      27.609   2.619  52.019  1.00  0.00    -0.274 OA
HETATM   32  H4  UNL     1      25.335   1.991  49.938  1.00  0.00     0.169 HD
ENDBRANCH  26  28
ENDBRANCH  21  22
ENDBRANCH   1  21
TORSDOF 5
ENDMDL
MODEL 2
REMARK VINA RESULT:      -8.9      2.875      7.978
REMARK  5 active torsions:
REMARK  status: ('A' for Active; 'I' for Inactive)
REMARK       I    between atoms: C2_2  and  N1_4 
REMARK    1  A    between atoms: N1_4  and  C3_5 
REMARK    2  A    between atoms: C7_9  and  O2_10 
REMARK    3  A    between atoms: O2_10  and  C8_11 
REMARK    4  A    between atoms: C10_13  and  N2_14 
REMARK    5  A    between atoms: N2_14  and  C11_15 
ROOT
HETATM    1  C8  UNL     1      25.747   4.364  49.780  1.00  0.00     0.174 A 
HETATM    2  C9  UNL     1      26.333   3.138  49.999  1.00  0.00     0.108 A 
HETATM    3  C10 UNL     1      25.873   2.397  51.068  1.00  0.00     0.133 A 
HETATM    4  N3  UNL     1      24.892   2.854  51.864  1.00  0.00    -0.224 NA
HETATM    5  C21 UNL     1      24.314   4.069  51.645  1.00  0.00     0.238 A 
HETATM    6  N4  UNL     1      24.766   4.796  50.594  1.00  0.00    -0.217 NA
ENDROOT
BRANCH   3   7
HETATM    7  N2  UNL     1      26.419   1.132  51.339  1.00  0.00    -0.343 N 
HETATM    8  H9  UNL     1      26.374   0.158  50.923  1.00  0.00     0.167 HD
BRANCH   7   9
HETATM    9  C11 UNL     1      27.287   1.113  52.492  1.00  0.00     0.029 C 
HETATM   10  C12 UNL     1      28.117   2.147  52.706  1.00  0.00     0.028 C 
HETATM   11  C13 UNL     1      29.108   2.420  53.773  1.00  0.00     0.026 C 
HETATM   12  C14 UNL     1      29.135   1.854  54.974  1.00  0.00     0.134 C 
HETATM   13  O3  UNL     1      28.226   0.887  55.456  1.00  0.00    -0.361 OA
HETATM   14  C15 UNL     1      27.120   0.280  54.857  1.00  0.00     0.198 C 
HETATM   15  C16 UNL     1      27.250  -0.036  53.412  1.00  0.00     0.062 A 
HETATM   16  C17 UNL     1      26.112  -0.907  53.019  1.00  0.00    -0.002 A 
HETATM   17  C20 UNL     1      28.421  -0.951  53.210  1.00  0.00     0.037 A 
HETATM   18  C18 UNL     1      26.563  -2.081  52.665  1.00  0.00     0.039 A 
HETATM   19  C19 UNL     1      28.017  -2.143  52.773  1.00  0.00     0.113 A 
HETATM   20  F1  UNL     1      28.985  -3.055  52.552  1.00  0.00    -0.206 F 
ENDBRANCH   7   9
ENDBRANCH   3   7
BRANCH   1  21
HETATM   21  O2  UNL     1      26.009   5.299  48.796  1.00  0.00    -0.292 OA
BRANCH  21  22
HETATM   22  C7  UNL     1      27.111   6.085  48.660  1.00  0.00     0.080 A 
HETATM   23  C6  UNL     1      26.909   7.433  48.977  1.00  0.00     0.037 A 
HETATM   24  C5  UNL     1      27.975   8.309  48.869  1.00  0.00     0.005 A 
HETATM   25  C4  UNL     1      29.179   7.787  48.453  1.00  0.00     0.029 A 
HETATM   26  C3  UNL     1      29.423   6.480  48.134  1.00  0.00     0.037 A 
HETATM   27  C22 UNL     1      28.349   5.651  48.252  1.00  0.00     0.066 A 
BRANCH  26  28
HETATM   28  N1  UNL     1      30.642   5.925  47.715  1.00  0.00    -0.327 N 
HETATM   29  C2  UNL     1      31.693   5.415  48.484  1.00  0.00     0.218 C 
HETATM   30  C1  UNL     1      32.988   4.822  48.097  1.00  0.00     0.117 C 
HETATM   31  O1  UNL     1      31.614   5.418  49.745  1.00  0.00    -0.274 OA
HETATM   32  H4  UNL     1      30.886   5.838  46.713  1.00  0.00     0.169 HD
ENDBRANCH  26  28
ENDBRANCH  21  22
ENDBRANCH   1  21
TORSDOF 5
ENDMDL
MODEL 3
REMARK VINA RESULT:      -8.9      7.769     10.840
REMARK  5 active torsions:
REMARK  status: ('A' for Active; 'I' for Inactive)
REMARK       I    between atoms: C2_2  and  N1_4 
REMARK    1  A    between atoms: N1_4  and  C3_5 
REMARK    2  A    between atoms: C7_9  and  O2_10 
REMARK    3  A    between atoms: O2_10  and  C8_11 
REMARK    4  A    between atoms: C10_13  and  N2_14 
REMARK    5  A    between atoms: N2_14  and  C11_15 
ROOT
HETATM    1  C8  UNL     1      22.930  -0.499  54.260  1.00  0.00     0.174 A 
HETATM    2  C9  UNL     1      22.579   0.630  53.553  1.00  0.00     0.108 A 
HETATM    3  C10 UNL     1      21.264   0.745  53.154  1.00  0.00     0.133 A 
HETATM    4  N3  UNL     1      20.361  -0.207  53.443  1.00  0.00    -0.224 NA
HETATM    5  C21 UNL     1      20.711  -1.323  54.142  1.00  0.00     0.238 A 
HETATM    6  N4  UNL     1      22.004  -1.435  54.535  1.00  0.00    -0.217 NA
ENDROOT
BRANCH   3   7
HETATM    7  N2  UNL     1      20.838   1.877  52.442  1.00  0.00    -0.343 N 
HETATM    8  H9  UNL     1      20.180   2.695  52.597  1.00  0.00     0.167 HD
BRANCH   7   9
HETATM    9  C11 UNL     1      21.440   1.998  51.135  1.00  0.00     0.029 C 
HETATM   10  C12 UNL     1      21.124   1.106  50.182  1.00  0.00     0.028 C 
HETATM   11  C13 UNL     1      21.562   0.961  48.774  1.00  0.00     0.026 C 
HETATM   12  C14 UNL     1      22.099   1.915  48.024  1.00  0.00     0.134 C 
HETATM   13  O3  UNL     1      22.355   3.244  48.428  1.00  0.00    -0.361 OA
HETATM   14  C15 UNL     1      22.143   3.896  49.645  1.00  0.00     0.198 C 
HETATM   15  C16 UNL     1      22.389   3.092  50.869  1.00  0.00     0.062 A 
HETATM   16  C17 UNL     1      22.380   4.007  52.039  1.00  0.00    -0.002 A 
HETATM   17  C20 UNL     1      23.809   2.611  50.866  1.00  0.00     0.037 A 
HETATM   18  C18 UNL     1      23.567   4.031  52.584  1.00  0.00     0.039 A 
HETATM   19  C19 UNL     1      24.494   3.160  51.869  1.00  0.00     0.113 A 
HETATM   20  F1  UNL     1      25.789   2.800  51.972  1.00  0.00    -0.206 F 
ENDBRANCH   7   9
ENDBRANCH   3   7
BRANCH   1  21
HETATM   21  O2  UNL     1      24.159  -0.864  54.775  1.00  0.00    -0.292 OA
BRANCH  21  22
HETATM   22  C7  UNL     1      25.385  -0.708  54.206  1.00  0.00     0.080 A 
HETATM   23  C6  UNL     1      25.499  -1.231  52.913  1.00  0.00     0.037 A 
HETATM   24  C5  UNL     1      26.711  -1.117  52.254  1.00  0.00     0.005 A 
HETATM   25  C4  UNL     1      27.736  -0.488  52.924  1.00  0.00     0.029 A 
HETATM   26  C3  UNL     1      27.671   0.036  54.186  1.00  0.00     0.037 A 
HETATM   27  C22 UNL     1      26.464  -0.097  54.800  1.00  0.00     0.066 A 
BRANCH  26  28
HETATM   28  N1  UNL     1      28.699   0.686  54.885  1.00  0.00    -0.327 N 
HETATM   29  C2  UNL     1      29.377   1.867  54.566  1.00  0.00     0.218 C 
HETATM   30  C1  UNL     1      30.458   2.591  55.263  1.00  0.00     0.117 C 
HETATM   31  O1  UNL     1      29.083   2.501  53.514  1.00  0.00    -0.274 OA
HETATM   32  H4  UNL     1      29.075   0.314  55.775  1.00  0.00     0.169 HD
ENDBRANCH  26  28
ENDBRANCH  21  22
ENDBRANCH   1  21
TORSDOF 5
ENDMDL
MODEL 4
REMARK VINA RESULT:      -8.7      4.053     10.207
REMARK  5 active torsions:
REMARK  status: ('A' for Active; 'I' for Inactive)
REMARK       I    between atoms: C2_2  and  N1_4 
REMARK    1  A    between atoms: N1_4  and  C3_5 
REMARK    2  A    between atoms: C7_9  and  O2_10 
REMARK    3  A    between atoms: O2_10  and  C8_11 
REMARK    4  A    between atoms: C10_13  and  N2_14 
REMARK    5  A    between atoms: N2_14  and  C11_15 
ROOT
HETATM    1  C8  UNL     1      26.110   3.065  50.549  1.00  0.00     0.174 A 
HETATM    2  C9  UNL     1      24.833   3.119  51.061  1.00  0.00     0.108 A 
HETATM    3  C10 UNL     1      24.650   2.685  52.358  1.00  0.00     0.133 A 
HETATM    4  N3  UNL     1      25.678   2.229  53.092  1.00  0.00    -0.224 NA
HETATM    5  C21 UNL     1      26.942   2.177  52.583  1.00  0.00     0.238 A 
HETATM    6  N4  UNL     1      27.120   2.604  51.309  1.00  0.00    -0.217 NA
ENDROOT
BRANCH   3   7
HETATM    7  N2  UNL     1      23.376   2.726  52.944  1.00  0.00    -0.343 N 
HETATM    8  H9  UNL     1      22.747   3.452  53.395  1.00  0.00     0.167 HD
BRANCH   7   9
HETATM    9  C11 UNL     1      22.704   1.448  52.955  1.00  0.00     0.029 C 
HETATM   10  C12 UNL     1      23.228   0.437  53.666  1.00  0.00     0.028 C 
HETATM   11  C13 UNL     1      22.789  -0.962  53.875  1.00  0.00     0.026 C 
HETATM   12  C14 UNL     1      21.560  -1.429  53.688  1.00  0.00     0.134 C 
HETATM   13  O3  UNL     1      20.445  -0.678  53.255  1.00  0.00    -0.361 OA
HETATM   14  C15 UNL     1      20.315   0.670  52.914  1.00  0.00     0.198 C 
HETATM   15  C16 UNL     1      21.460   1.273  52.186  1.00  0.00     0.062 A 
HETATM   16  C17 UNL     1      21.041   2.603  51.675  1.00  0.00    -0.002 A 
HETATM   17  C20 UNL     1      21.692   0.514  50.914  1.00  0.00     0.037 A 
HETATM   18  C18 UNL     1      21.041   2.589  50.369  1.00  0.00     0.039 A 
HETATM   19  C19 UNL     1      21.447   1.285  49.855  1.00  0.00     0.113 A 
HETATM   20  F1  UNL     1      21.624   0.711  48.648  1.00  0.00    -0.206 F 
ENDBRANCH   7   9
ENDBRANCH   3   7
BRANCH   1  21
HETATM   21  O2  UNL     1      26.570   3.431  49.298  1.00  0.00    -0.292 OA
BRANCH  21  22
HETATM   22  C7  UNL     1      27.091   4.628  48.916  1.00  0.00     0.080 A 
HETATM   23  C6  UNL     1      26.193   5.700  48.973  1.00  0.00     0.037 A 
HETATM   24  C5  UNL     1      26.635   6.959  48.603  1.00  0.00     0.005 A 
HETATM   25  C4  UNL     1      27.947   7.073  48.199  1.00  0.00     0.029 A 
HETATM   26  C3  UNL     1      28.858   6.055  48.127  1.00  0.00     0.037 A 
HETATM   27  C22 UNL     1      28.384   4.834  48.498  1.00  0.00     0.066 A 
BRANCH  26  28
HETATM   28  N1  UNL     1      30.199   6.149  47.726  1.00  0.00    -0.327 N 
HETATM   29  C2  UNL     1      31.362   5.903  48.461  1.00  0.00     0.218 C 
HETATM   30  C1  UNL     1      32.788   5.984  48.089  1.00  0.00     0.117 C 
HETATM   31  O1  UNL     1      31.283   5.542  49.670  1.00  0.00    -0.274 OA
HETATM   32  H4  UNL     1      30.463   6.431  46.765  1.00  0.00     0.169 HD
ENDBRANCH  26  28
ENDBRANCH  21  22
ENDBRANCH   1  21
TORSDOF 5
ENDMDL
MODEL 5
REMARK VINA RESULT:      -8.7      1.704      2.568
REMARK  5 active torsions:
REMARK  status: ('A' for Active; 'I' for Inactive)
REMARK       I    between atoms: C2_2  and  N1_4 
REMARK    1  A    between atoms: N1_4  and  C3_5 
REMARK    2  A    between atoms: C7_9  and  O2_10 
REMARK    3  A    between atoms: O2_10  and  C8_11 
REMARK    4  A    between atoms: C10_13  and  N2_14 
REMARK    5  A    between atoms: N2_14  and  C11_15 
ROOT
HETATM    1  C8  UNL     1      29.828   6.983  48.200  1.00  0.00     0.174 A 
HETATM    2  C9  UNL     1      30.935   6.194  47.978  1.00  0.00     0.108 A 
HETATM    3  C10 UNL     1      32.147   6.654  48.447  1.00  0.00     0.133 A 
HETATM    4  N3  UNL     1      32.245   7.827  49.095  1.00  0.00    -0.224 NA
HETATM    5  C21 UNL     1      31.149   8.607  49.313  1.00  0.00     0.238 A 
HETATM    6  N4  UNL     1      29.957   8.153  48.852  1.00  0.00    -0.217 NA
ENDROOT
BRANCH   3   7
HETATM    7  N2  UNL     1      33.311   5.891  48.266  1.00  0.00    -0.343 N 
HETATM    8  H9  UNL     1      34.081   5.485  48.873  1.00  0.00     0.167 HD
BRANCH   7   9
HETATM    9  C11 UNL     1      33.564   5.542  46.888  1.00  0.00     0.029 C 
HETATM   10  C12 UNL     1      33.536   6.503  45.952  1.00  0.00     0.028 C 
HETATM   11  C13 UNL     1      33.748   6.468  44.486  1.00  0.00     0.026 C 
HETATM   12  C14 UNL     1      34.382   5.514  43.814  1.00  0.00     0.134 C 
HETATM   13  O3  UNL     1      34.969   4.357  44.370  1.00  0.00    -0.361 OA
HETATM   14  C15 UNL     1      35.044   3.903  45.689  1.00  0.00     0.198 C 
HETATM   15  C16 UNL     1      33.846   4.140  46.532  1.00  0.00     0.062 A 
HETATM   16  C17 UNL     1      33.997   3.365  47.790  1.00  0.00    -0.002 A 
HETATM   17  C20 UNL     1      32.659   3.475  45.902  1.00  0.00     0.037 A 
HETATM   18  C18 UNL     1      33.072   2.445  47.850  1.00  0.00     0.039 A 
HETATM   19  C19 UNL     1      32.209   2.487  46.674  1.00  0.00     0.113 A 
HETATM   20  F1  UNL     1      31.137   1.812  46.212  1.00  0.00    -0.206 F 
ENDBRANCH   7   9
ENDBRANCH   3   7
BRANCH   1  21
HETATM   21  O2  UNL     1      28.511   6.767  47.844  1.00  0.00    -0.292 OA
BRANCH  21  22
HETATM   22  C7  UNL     1      27.550   6.113  48.550  1.00  0.00     0.080 A 
HETATM   23  C6  UNL     1      27.742   4.730  48.653  1.00  0.00     0.037 A 
HETATM   24  C5  UNL     1      26.814   3.980  49.356  1.00  0.00     0.005 A 
HETATM   25  C4  UNL     1      25.751   4.654  49.913  1.00  0.00     0.029 A 
HETATM   26  C3  UNL     1      25.523   6.001  49.838  1.00  0.00     0.037 A 
HETATM   27  C22 UNL     1      26.456   6.702  49.138  1.00  0.00     0.066 A 
BRANCH  26  28
HETATM   28  N1  UNL     1      24.452   6.709  50.403  1.00  0.00    -0.327 N 
HETATM   29  C2  UNL     1      23.089   6.649  50.093  1.00  0.00     0.218 C 
HETATM   30  C1  UNL     1      21.928   7.367  50.654  1.00  0.00     0.117 C 
HETATM   31  O1  UNL     1      22.680   5.871  49.185  1.00  0.00    -0.274 OA
HETATM   32  H4  UNL     1      24.593   7.396  51.164  1.00  0.00     0.169 HD
ENDBRANCH  26  28
ENDBRANCH  21  22
ENDBRANCH   1  21
TORSDOF 5
ENDMDL
MODEL 6
REMARK VINA RESULT:      -8.7      2.823      8.594
REMARK  5 active torsions:
REMARK  status: ('A' for Active; 'I' for Inactive)
REMARK       I    between atoms: C2_2  and  N1_4 
REMARK    1  A    between atoms: N1_4  and  C3_5 
REMARK    2  A    between atoms: C7_9  and  O2_10 
REMARK    3  A    between atoms: O2_10  and  C8_11 
REMARK    4  A    between atoms: C10_13  and  N2_14 
REMARK    5  A    between atoms: N2_14  and  C11_15 
ROOT
HETATM    1  C8  UNL     1      27.388   6.407  48.631  1.00  0.00     0.174 A 
HETATM    2  C9  UNL     1      26.836   5.147  48.691  1.00  0.00     0.108 A 
HETATM    3  C10 UNL     1      25.720   4.980  49.484  1.00  0.00     0.133 A 
HETATM    4  N3  UNL     1      25.192   6.006  50.170  1.00  0.00    -0.224 NA
HETATM    5  C21 UNL     1      25.740   7.253  50.109  1.00  0.00     0.238 A 
HETATM    6  N4  UNL     1      26.837   7.416  49.329  1.00  0.00    -0.217 NA
ENDROOT
BRANCH   3   7
HETATM    7  N2  UNL     1      25.101   3.723  49.578  1.00  0.00    -0.343 N 
HETATM    8  H9  UNL     1      24.489   3.107  48.969  1.00  0.00     0.167 HD
BRANCH   7   9
HETATM    9  C11 UNL     1      25.341   3.055  50.835  1.00  0.00     0.029 C 
HETATM   10  C12 UNL     1      26.587   2.657  51.139  1.00  0.00     0.028 C 
HETATM   11  C13 UNL     1      27.146   1.961  52.322  1.00  0.00     0.026 C 
HETATM   12  C14 UNL     1      26.586   1.898  53.524  1.00  0.00     0.134 C 
HETATM   13  O3  UNL     1      25.356   2.481  53.899  1.00  0.00    -0.361 OA
HETATM   14  C15 UNL     1      24.430   3.231  53.170  1.00  0.00     0.198 C 
HETATM   15  C16 UNL     1      24.219   2.818  51.760  1.00  0.00     0.062 A 
HETATM   16  C17 UNL     1      23.028   3.535  51.235  1.00  0.00    -0.002 A 
HETATM   17  C20 UNL     1      23.759   1.392  51.725  1.00  0.00     0.037 A 
HETATM   18  C18 UNL     1      22.086   2.673  50.960  1.00  0.00     0.039 A 
HETATM   19  C19 UNL     1      22.514   1.310  51.258  1.00  0.00     0.113 A 
HETATM   20  F1  UNL     1      21.989   0.071  51.178  1.00  0.00    -0.206 F 
ENDBRANCH   7   9
ENDBRANCH   3   7
BRANCH   1  21
HETATM   21  O2  UNL     1      28.491   6.849  47.925  1.00  0.00    -0.292 OA
BRANCH  21  22
HETATM   22  C7  UNL     1      29.785   6.898  48.340  1.00  0.00     0.080 A 
HETATM   23  C6  UNL     1      30.203   8.150  48.804  1.00  0.00     0.037 A 
HETATM   24  C5  UNL     1      31.506   8.295  49.249  1.00  0.00     0.005 A 
HETATM   25  C4  UNL     1      32.314   7.181  49.203  1.00  0.00     0.029 A 
HETATM   26  C3  UNL     1      31.950   5.940  48.758  1.00  0.00     0.037 A 
HETATM   27  C22 UNL     1      30.662   5.839  48.329  1.00  0.00     0.066 A 
BRANCH  26  28
HETATM   28  N1  UNL     1      32.754   4.791  48.708  1.00  0.00    -0.327 N 
HETATM   29  C2  UNL     1      33.836   4.503  47.871  1.00  0.00     0.218 C 
HETATM   30  C1  UNL     1      34.711   3.318  47.779  1.00  0.00     0.117 C 
HETATM   31  O1  UNL     1      34.207   5.344  47.005  1.00  0.00    -0.274 OA
HETATM   32  H4  UNL     1      32.600   3.989  49.345  1.00  0.00     0.169 HD
ENDBRANCH  26  28
ENDBRANCH  21  22
ENDBRANCH   1  21
TORSDOF 5
ENDMDL
MODEL 7
REMARK VINA RESULT:      -8.7      6.249      9.342
REMARK  5 active torsions:
REMARK  status: ('A' for Active; 'I' for Inactive)
REMARK       I    between atoms: C2_2  and  N1_4 
REMARK    1  A    between atoms: N1_4  and  C3_5 
REMARK    2  A    between atoms: C7_9  and  O2_10 
REMARK    3  A    between atoms: O2_10  and  C8_11 
REMARK    4  A    between atoms: C10_13  and  N2_14 
REMARK    5  A    between atoms: N2_14  and  C11_15 
ROOT
HETATM    1  C8  UNL     1      21.778   1.372  51.377  1.00  0.00     0.174 A 
HETATM    2  C9  UNL     1      22.742   2.139  50.761  1.00  0.00     0.108 A 
HETATM    3  C10 UNL     1      22.639   2.314  49.397  1.00  0.00     0.133 A 
HETATM    4  N3  UNL     1      21.638   1.757  48.696  1.00  0.00    -0.224 NA
HETATM    5  C21 UNL     1      20.685   0.997  49.307  1.00  0.00     0.238 A 
HETATM    6  N4  UNL     1      20.787   0.827  50.648  1.00  0.00    -0.217 NA
ENDROOT
BRANCH   3   7
HETATM    7  N2  UNL     1      23.581   3.096  48.711  1.00  0.00    -0.343 N 
HETATM    8  H9  UNL     1      24.296   2.959  47.940  1.00  0.00     0.167 HD
BRANCH   7   9
HETATM    9  C11 UNL     1      23.614   4.472  49.146  1.00  0.00     0.029 C 
HETATM   10  C12 UNL     1      22.548   5.258  48.920  1.00  0.00     0.028 C 
HETATM   11  C13 UNL     1      22.279   6.679  49.236  1.00  0.00     0.026 C 
HETATM   12  C14 UNL     1      22.907   7.406  50.153  1.00  0.00     0.134 C 
HETATM   13  O3  UNL     1      23.949   6.959  50.995  1.00  0.00    -0.361 OA
HETATM   14  C15 UNL     1      24.584   5.720  51.100  1.00  0.00     0.198 C 
HETATM   15  C16 UNL     1      24.813   4.992  49.826  1.00  0.00     0.062 A 
HETATM   16  C17 UNL     1      25.723   3.850  50.096  1.00  0.00    -0.002 A 
HETATM   17  C20 UNL     1      25.647   5.842  48.915  1.00  0.00     0.037 A 
HETATM   18  C18 UNL     1      26.849   4.029  49.458  1.00  0.00     0.039 A 
HETATM   19  C19 UNL     1      26.834   5.277  48.701  1.00  0.00     0.113 A 
HETATM   20  F1  UNL     1      27.676   5.950  47.891  1.00  0.00    -0.206 F 
ENDBRANCH   7   9
ENDBRANCH   3   7
BRANCH   1  21
HETATM   21  O2  UNL     1      21.641   1.040  52.711  1.00  0.00    -0.292 OA
BRANCH  21  22
HETATM   22  C7  UNL     1      22.471   0.278  53.474  1.00  0.00     0.080 A 
HETATM   23  C6  UNL     1      21.837  -0.420  54.508  1.00  0.00     0.037 A 
HETATM   24  C5  UNL     1      22.602  -1.222  55.336  1.00  0.00     0.005 A 
HETATM   25  C4  UNL     1      23.954  -1.281  55.083  1.00  0.00     0.029 A 
HETATM   26  C3  UNL     1      24.616  -0.619  54.086  1.00  0.00     0.037 A 
HETATM   27  C22 UNL     1      23.828   0.160  53.294  1.00  0.00     0.066 A 
BRANCH  26  28
HETATM   28  N1  UNL     1      25.989  -0.669  53.805  1.00  0.00    -0.327 N 
HETATM   29  C2  UNL     1      27.036   0.065  54.371  1.00  0.00     0.218 C 
HETATM   30  C1  UNL     1      28.490   0.050  54.115  1.00  0.00     0.117 C 
HETATM   31  O1  UNL     1      26.796   0.918  55.272  1.00  0.00    -0.274 OA
HETATM   32  H4  UNL     1      26.378  -1.311  53.092  1.00  0.00     0.169 HD
ENDBRANCH  26  28
ENDBRANCH  21  22
ENDBRANCH   1  21
TORSDOF 5
ENDMDL
MODEL 8
REMARK VINA RESULT:      -8.7      8.152     11.281
REMARK  5 active torsions:
REMARK  status: ('A' for Active; 'I' for Inactive)
REMARK       I    between atoms: C2_2  and  N1_4 
REMARK    1  A    between atoms: N1_4  and  C3_5 
REMARK    2  A    between atoms: C7_9  and  O2_10 
REMARK    3  A    between atoms: O2_10  and  C8_11 
REMARK    4  A    between atoms: C10_13  and  N2_14 
REMARK    5  A    between atoms: N2_14  and  C11_15 
ROOT
HETATM    1  C8  UNL     1      21.810  -0.304  52.655  1.00  0.00     0.174 A 
HETATM    2  C9  UNL     1      21.396   0.170  51.430  1.00  0.00     0.108 A 
HETATM    3  C10 UNL     1      20.040   0.329  51.236  1.00  0.00     0.133 A 
HETATM    4  N3  UNL     1      19.157   0.033  52.203  1.00  0.00    -0.224 NA
HETATM    5  C21 UNL     1      19.568  -0.436  53.415  1.00  0.00     0.238 A 
HETATM    6  N4  UNL     1      20.901  -0.591  53.606  1.00  0.00    -0.217 NA
ENDROOT
BRANCH   3   7
HETATM    7  N2  UNL     1      19.554   0.821  50.014  1.00  0.00    -0.343 N 
HETATM    8  H9  UNL     1      18.691   0.695  49.410  1.00  0.00     0.167 HD
BRANCH   7   9
HETATM    9  C11 UNL     1      20.444   1.760  49.375  1.00  0.00     0.029 C 
HETATM   10  C12 UNL     1      21.364   1.307  48.507  1.00  0.00     0.028 C 
HETATM   11  C13 UNL     1      22.399   2.000  47.706  1.00  0.00     0.026 C 
HETATM   12  C14 UNL     1      22.407   3.290  47.392  1.00  0.00     0.134 C 
HETATM   13  O3  UNL     1      21.431   4.241  47.765  1.00  0.00    -0.361 OA
HETATM   14  C15 UNL     1      20.264   4.118  48.523  1.00  0.00     0.198 C 
HETATM   15  C16 UNL     1      20.333   3.196  49.685  1.00  0.00     0.062 A 
HETATM   16  C17 UNL     1      19.117   3.397  50.514  1.00  0.00    -0.002 A 
HETATM   17  C20 UNL     1      21.417   3.652  50.614  1.00  0.00     0.037 A 
HETATM   18  C18 UNL     1      19.458   3.873  51.681  1.00  0.00     0.039 A 
HETATM   19  C19 UNL     1      20.904   4.046  51.779  1.00  0.00     0.113 A 
HETATM   20  F1  UNL     1      21.787   4.479  52.702  1.00  0.00    -0.206 F 
ENDBRANCH   7   9
ENDBRANCH   3   7
BRANCH   1  21
HETATM   21  O2  UNL     1      23.089  -0.553  53.114  1.00  0.00    -0.292 OA
BRANCH  21  22
HETATM   22  C7  UNL     1      24.165   0.280  53.086  1.00  0.00     0.080 A 
HETATM   23  C6  UNL     1      23.852   1.641  53.188  1.00  0.00     0.037 A 
HETATM   24  C5  UNL     1      24.883   2.564  53.170  1.00  0.00     0.005 A 
HETATM   25  C4  UNL     1      26.165   2.074  53.050  1.00  0.00     0.029 A 
HETATM   26  C3  UNL     1      26.517   0.756  52.947  1.00  0.00     0.037 A 
HETATM   27  C22 UNL     1      25.475  -0.119  52.968  1.00  0.00     0.066 A 
BRANCH  26  28
HETATM   28  N1  UNL     1      27.814   0.235  52.832  1.00  0.00    -0.327 N 
HETATM   29  C2  UNL     1      28.646  -0.297  53.822  1.00  0.00     0.218 C 
HETATM   30  C1  UNL     1      30.010  -0.857  53.755  1.00  0.00     0.117 C 
HETATM   31  O1  UNL     1      28.248  -0.351  55.020  1.00  0.00    -0.274 OA
HETATM   32  H4  UNL     1      28.308   0.196  51.923  1.00  0.00     0.169 HD
ENDBRANCH  26  28
ENDBRANCH  21  22
ENDBRANCH   1  21
TORSDOF 5
ENDMDL
MODEL 9
REMARK VINA RESULT:      -8.6      6.045      9.162
REMARK  5 active torsions:
REMARK  status: ('A' for Active; 'I' for Inactive)
REMARK       I    between atoms: C2_2  and  N1_4 
REMARK    1  A    between atoms: N1_4  and  C3_5 
REMARK    2  A    between atoms: C7_9  and  O2_10 
REMARK    3  A    between atoms: O2_10  and  C8_11 
REMARK    4  A    between atoms: C10_13  and  N2_14 
REMARK    5  A    between atoms: N2_14  and  C11_15 
ROOT
HETATM    1  C8  UNL     1      22.126   1.572  51.609  1.00  0.00     0.174 A 
HETATM    2  C9  UNL     1      22.599   2.026  50.398  1.00  0.00     0.108 A 
HETATM    3  C10 UNL     1      22.505   3.379  50.146  1.00  0.00     0.133 A 
HETATM    4  N3  UNL     1      21.973   4.221  51.047  1.00  0.00    -0.224 NA
HETATM    5  C21 UNL     1      21.505   3.770  52.245  1.00  0.00     0.238 A 
HETATM    6  N4  UNL     1      21.598   2.440  52.492  1.00  0.00    -0.217 NA
ENDROOT
BRANCH   3   7
HETATM    7  N2  UNL     1      22.982   3.908  48.936  1.00  0.00    -0.343 N 
HETATM    8  H9  UNL     1      22.633   4.015  47.940  1.00  0.00     0.167 HD
BRANCH   7   9
HETATM    9  C11 UNL     1      24.307   4.472  49.035  1.00  0.00     0.029 C 
HETATM   10  C12 UNL     1      25.354   3.656  49.243  1.00  0.00     0.028 C 
HETATM   11  C13 UNL     1      26.804   3.919  49.388  1.00  0.00     0.026 C 
HETATM   12  C14 UNL     1      27.443   5.008  48.976  1.00  0.00     0.134 C 
HETATM   13  O3  UNL     1      26.858   6.117  48.326  1.00  0.00    -0.361 OA
HETATM   14  C15 UNL     1      25.537   6.381  47.959  1.00  0.00     0.198 C 
HETATM   15  C16 UNL     1      24.491   5.928  48.910  1.00  0.00     0.062 A 
HETATM   16  C17 UNL     1      23.194   6.523  48.498  1.00  0.00    -0.002 A 
HETATM   17  C20 UNL     1      24.719   6.578  50.241  1.00  0.00     0.037 A 
HETATM   18  C18 UNL     1      22.778   7.347  49.423  1.00  0.00     0.039 A 
HETATM   19  C19 UNL     1      23.717   7.405  50.538  1.00  0.00     0.113 A 
HETATM   20  F1  UNL     1      23.809   8.051  51.719  1.00  0.00    -0.206 F 
ENDBRANCH   7   9
ENDBRANCH   3   7
BRANCH   1  21
HETATM   21  O2  UNL     1      22.097   0.286  52.114  1.00  0.00    -0.292 OA
BRANCH  21  22
HETATM   22  C7  UNL     1      22.809  -0.218  53.158  1.00  0.00     0.080 A 
HETATM   23  C6  UNL     1      22.029  -0.716  54.209  1.00  0.00     0.037 A 
HETATM   24  C5  UNL     1      22.667  -1.251  55.315  1.00  0.00     0.005 A 
HETATM   25  C4  UNL     1      24.044  -1.257  55.306  1.00  0.00     0.029 A 
HETATM   26  C3  UNL     1      24.845  -0.783  54.304  1.00  0.00     0.037 A 
HETATM   27  C22 UNL     1      24.180  -0.265  53.235  1.00  0.00     0.066 A 
BRANCH  26  28
HETATM   28  N1  UNL     1      26.248  -0.786  54.270  1.00  0.00    -0.327 N 
HETATM   29  C2  UNL     1      27.143   0.238  54.593  1.00  0.00     0.218 C 
HETATM   30  C1  UNL     1      28.618   0.288  54.576  1.00  0.00     0.117 C 
HETATM   31  O1  UNL     1      26.708   1.361  54.977  1.00  0.00    -0.274 OA
HETATM   32  H4  UNL     1      26.785  -1.622  53.979  1.00  0.00     0.169 HD
ENDBRANCH  26  28
ENDBRANCH  21  22
ENDBRANCH   1  21
TORSDOF 5
ENDMDL
