MODEL 1
REMARK VINA RESULT:      -8.4      0.000      0.000
REMARK  5 active torsions:
REMARK  status: ('A' for Active; 'I' for Inactive)
REMARK    1  A    between atoms: C7_9  and  N3_10 
REMARK    2  A    between atoms: N3_10  and  C8_11 
REMARK    3  A    between atoms: C11_14  and  O1_15 
REMARK    4  A    between atoms: O1_15  and  C12_16 
REMARK    5  A    between atoms: C12_16  and  C13_17 
ROOT
HETATM    1  N1  UNL     1      28.075  -3.154  52.963  1.00  0.00    -0.170 NA
HETATM    2  C1  UNL     1      27.787  -2.047  52.773  1.00  0.00     0.206 C 
HETATM    3  N2  UNL     1      27.461  -0.724  52.560  1.00  0.00    -0.178 NA
HETATM    4  C2  UNL     1      27.815   0.267  53.285  1.00  0.00     0.054 C 
HETATM    5  C3  UNL     1      28.655   0.310  54.538  1.00  0.00     0.061 C 
HETATM    6  C4  UNL     1      29.455   1.567  54.264  1.00  0.00     0.011 C 
HETATM    7  C5  UNL     1      28.489   2.532  53.648  1.00  0.00     0.042 C 
HETATM    8  C6  UNL     1      27.459   1.655  53.037  1.00  0.00    -0.017 C 
HETATM    9  C7  UNL     1      26.435   2.155  52.402  1.00  0.00     0.097 C 
ENDROOT
BRANCH   9  10
HETATM   10  N3  UNL     1      25.315   1.610  51.732  1.00  0.00    -0.365 N 
HETATM   11  H8  UNL     1      25.199   1.374  50.706  1.00  0.00     0.165 HD
BRANCH  10  12
HETATM   12  C8  UNL     1      24.039   1.232  52.258  1.00  0.00     0.033 A 
HETATM   13  C9  UNL     1      23.000   1.848  51.637  1.00  0.00     0.032 A 
HETATM   14  C10 UNL     1      21.721   1.565  52.056  1.00  0.00     0.041 A 
HETATM   15  C11 UNL     1      21.423   0.691  53.076  1.00  0.00     0.091 A 
HETATM   16  C19 UNL     1      22.518   0.069  53.700  1.00  0.00     0.069 A 
HETATM   17 CL1  UNL     1      22.509  -1.089  55.019  1.00  0.00    -0.081 Cl
HETATM   18  C20 UNL     1      23.833   0.341  53.288  1.00  0.00     0.056 A 
BRANCH  15  19
HETATM   19  O1  UNL     1      20.316   0.233  53.681  1.00  0.00    -0.345 OA
BRANCH  19  20
HETATM   20  C12 UNL     1      19.556  -0.904  53.577  1.00  0.00     0.214 C 
BRANCH  20  21
HETATM   21  C13 UNL     1      18.452  -0.773  52.614  1.00  0.00    -0.031 A 
HETATM   22  C14 UNL     1      17.280  -1.403  53.058  1.00  0.00     0.009 A 
HETATM   23  C15 UNL     1      16.113  -1.434  52.335  1.00  0.00     0.004 A 
HETATM   24  C16 UNL     1      16.047  -0.824  51.100  1.00  0.00     0.042 A 
HETATM   25  C17 UNL     1      17.197  -0.196  50.646  1.00  0.00     0.117 A 
HETATM   26  F1  UNL     1      17.290   0.451  49.444  1.00  0.00    -0.206 F 
HETATM   27  C18 UNL     1      18.356  -0.174  51.379  1.00  0.00     0.051 A 
ENDBRANCH  20  21
ENDBRANCH  19  20
ENDBRANCH  15  19
ENDBRANCH  10  12
ENDBRANCH   9  10
TORSDOF 5
ENDMDL
MODEL 2
REMARK VINA RESULT:      -8.4      5.166      7.701
REMARK  5 active torsions:
REMARK  status: ('A' for Active; 'I' for Inactive)
REMARK    1  A    between atoms: C7_9  and  N3_10 
REMARK    2  A    between atoms: N3_10  and  C8_11 
REMARK    3  A    between atoms: C11_14  and  O1_15 
REMARK    4  A    between atoms: O1_15  and  C12_16 
REMARK    5  A    between atoms: C12_16  and  C13_17 
ROOT
HETATM    1  N1  UNL     1      29.960   2.455  55.321  1.00  0.00    -0.170 NA
HETATM    2  C1  UNL     1      29.135   1.739  54.931  1.00  0.00     0.206 C 
HETATM    3  N2  UNL     1      28.170   0.872  54.462  1.00  0.00    -0.178 NA
HETATM    4  C2  UNL     1      28.366  -0.137  53.702  1.00  0.00     0.054 C 
HETATM    5  C3  UNL     1      29.642  -0.676  53.103  1.00  0.00     0.061 C 
HETATM    6  C4  UNL     1      29.388  -2.160  53.258  1.00  0.00     0.011 C 
HETATM    7  C5  UNL     1      27.940  -2.357  52.925  1.00  0.00     0.042 C 
HETATM    8  C6  UNL     1      27.330  -1.037  53.223  1.00  0.00    -0.017 C 
HETATM    9  C7  UNL     1      26.056  -0.826  53.045  1.00  0.00     0.097 C 
ENDROOT
BRANCH   9  10
HETATM   10  N3  UNL     1      25.194   0.281  53.225  1.00  0.00    -0.365 N 
HETATM   11  H8  UNL     1      24.553   0.505  54.038  1.00  0.00     0.165 HD
BRANCH  10  12
HETATM   12  C8  UNL     1      24.955   1.396  52.359  1.00  0.00     0.033 A 
HETATM   13  C9  UNL     1      23.697   1.894  52.463  1.00  0.00     0.032 A 
HETATM   14  C10 UNL     1      23.347   2.969  51.677  1.00  0.00     0.041 A 
HETATM   15  C11 UNL     1      24.199   3.575  50.783  1.00  0.00     0.091 A 
HETATM   16  C19 UNL     1      25.495   3.037  50.697  1.00  0.00     0.069 A 
HETATM   17 CL1  UNL     1      26.826   3.554  49.676  1.00  0.00    -0.081 Cl
HETATM   18  C20 UNL     1      25.875   1.941  51.489  1.00  0.00     0.056 A 
BRANCH  15  19
HETATM   19  O1  UNL     1      24.142   4.599  49.917  1.00  0.00    -0.345 OA
BRANCH  19  20
HETATM   20  C12 UNL     1      23.910   5.946  50.025  1.00  0.00     0.214 C 
BRANCH  20  21
HETATM   21  C13 UNL     1      25.092   6.762  49.711  1.00  0.00    -0.031 A 
HETATM   22  C14 UNL     1      25.619   6.472  48.444  1.00  0.00     0.009 A 
HETATM   23  C15 UNL     1      26.730   7.090  47.923  1.00  0.00     0.004 A 
HETATM   24  C16 UNL     1      27.393   8.053  48.653  1.00  0.00     0.042 A 
HETATM   25  C17 UNL     1      26.885   8.352  49.909  1.00  0.00     0.117 A 
HETATM   26  F1  UNL     1      27.431   9.282  50.751  1.00  0.00    -0.206 F 
HETATM   27  C18 UNL     1      25.775   7.727  50.416  1.00  0.00     0.051 A 
ENDBRANCH  20  21
ENDBRANCH  19  20
ENDBRANCH  15  19
ENDBRANCH  10  12
ENDBRANCH   9  10
TORSDOF 5
ENDMDL
MODEL 3
REMARK VINA RESULT:      -8.1      4.808      8.800
REMARK  5 active torsions:
REMARK  status: ('A' for Active; 'I' for Inactive)
REMARK    1  A    between atoms: C7_9  and  N3_10 
REMARK    2  A    between atoms: N3_10  and  C8_11 
REMARK    3  A    between atoms: C11_14  and  O1_15 
REMARK    4  A    between atoms: O1_15  and  C12_16 
REMARK    5  A    between atoms: C12_16  and  C13_17 
ROOT
HETATM    1  N1  UNL     1      20.855   1.136  49.325  1.00  0.00    -0.170 NA
HETATM    2  C1  UNL     1      21.407   0.701  50.247  1.00  0.00     0.206 C 
HETATM    3  N2  UNL     1      22.044   0.176  51.352  1.00  0.00    -0.178 NA
HETATM    4  C2  UNL     1      21.508  -0.068  52.487  1.00  0.00     0.054 C 
HETATM    5  C3  UNL     1      20.089   0.128  52.960  1.00  0.00     0.061 C 
HETATM    6  C4  UNL     1      19.918  -1.134  53.780  1.00  0.00     0.011 C 
HETATM    7  C5  UNL     1      21.219  -1.323  54.500  1.00  0.00     0.042 C 
HETATM    8  C6  UNL     1      22.203  -0.623  53.637  1.00  0.00    -0.017 C 
HETATM    9  C7  UNL     1      23.466  -0.573  53.956  1.00  0.00     0.097 C 
ENDROOT
BRANCH   9  10
HETATM   10  N3  UNL     1      24.620  -0.003  53.369  1.00  0.00    -0.365 N 
HETATM   11  H8  UNL     1      25.609  -0.380  53.335  1.00  0.00     0.165 HD
BRANCH  10  12
HETATM   12  C8  UNL     1      24.762   1.235  52.665  1.00  0.00     0.033 A 
HETATM   13  C9  UNL     1      25.681   1.180  51.666  1.00  0.00     0.032 A 
HETATM   14  C10 UNL     1      25.907   2.312  50.917  1.00  0.00     0.041 A 
HETATM   15  C11 UNL     1      25.257   3.508  51.116  1.00  0.00     0.091 A 
HETATM   16  C19 UNL     1      24.312   3.534  52.157  1.00  0.00     0.069 A 
HETATM   17 CL1  UNL     1      23.308   4.874  52.686  1.00  0.00    -0.081 Cl
HETATM   18  C20 UNL     1      24.063   2.392  52.935  1.00  0.00     0.056 A 
BRANCH  15  19
HETATM   19  O1  UNL     1      25.267   4.732  50.566  1.00  0.00    -0.345 OA
BRANCH  19  20
HETATM   20  C12 UNL     1      25.192   5.218  49.286  1.00  0.00     0.214 C 
BRANCH  20  21
HETATM   21  C13 UNL     1      26.495   5.640  48.752  1.00  0.00    -0.031 A 
HETATM   22  C14 UNL     1      26.472   6.957  48.270  1.00  0.00     0.009 A 
HETATM   23  C15 UNL     1      27.560   7.582  47.711  1.00  0.00     0.004 A 
HETATM   24  C16 UNL     1      28.760   6.912  47.597  1.00  0.00     0.042 A 
HETATM   25  C17 UNL     1      28.801   5.608  48.068  1.00  0.00     0.117 A 
HETATM   26  F1  UNL     1      29.914   4.815  48.026  1.00  0.00    -0.206 F 
HETATM   27  C18 UNL     1      27.706   4.998  48.624  1.00  0.00     0.051 A 
ENDBRANCH  20  21
ENDBRANCH  19  20
ENDBRANCH  15  19
ENDBRANCH  10  12
ENDBRANCH   9  10
TORSDOF 5
ENDMDL
MODEL 4
REMARK VINA RESULT:      -8.1      6.098      8.117
REMARK  5 active torsions:
REMARK  status: ('A' for Active; 'I' for Inactive)
REMARK    1  A    between atoms: C7_9  and  N3_10 
REMARK    2  A    between atoms: N3_10  and  C8_11 
REMARK    3  A    between atoms: C11_14  and  O1_15 
REMARK    4  A    between atoms: O1_15  and  C12_16 
REMARK    5  A    between atoms: C12_16  and  C13_17 
ROOT
HETATM    1  N1  UNL     1      33.074   5.018  48.118  1.00  0.00    -0.170 NA
HETATM    2  C1  UNL     1      32.085   5.621  48.076  1.00  0.00     0.206 C 
HETATM    3  N2  UNL     1      30.920   6.358  48.034  1.00  0.00    -0.178 NA
HETATM    4  C2  UNL     1      30.703   7.464  48.637  1.00  0.00     0.054 C 
HETATM    5  C3  UNL     1      31.598   8.276  49.540  1.00  0.00     0.061 C 
HETATM    6  C4  UNL     1      31.244   9.669  49.064  1.00  0.00     0.011 C 
HETATM    7  C5  UNL     1      29.762   9.651  48.841  1.00  0.00     0.042 C 
HETATM    8  C6  UNL     1      29.464   8.222  48.574  1.00  0.00    -0.017 C 
HETATM    9  C7  UNL     1      28.248   7.818  48.336  1.00  0.00     0.097 C 
ENDROOT
BRANCH   9  10
HETATM   10  N3  UNL     1      27.650   6.567  48.055  1.00  0.00    -0.365 N 
HETATM   11  H8  UNL     1      27.710   5.978  47.177  1.00  0.00     0.165 HD
BRANCH  10  12
HETATM   12  C8  UNL     1      26.803   5.761  48.882  1.00  0.00     0.033 A 
HETATM   13  C9  UNL     1      27.165   4.453  48.903  1.00  0.00     0.032 A 
HETATM   14  C10 UNL     1      26.424   3.577  49.663  1.00  0.00     0.041 A 
HETATM   15  C11 UNL     1      25.328   3.946  50.409  1.00  0.00     0.091 A 
HETATM   16  C19 UNL     1      24.978   5.306  50.367  1.00  0.00     0.069 A 
HETATM   17 CL1  UNL     1      23.654   6.118  51.187  1.00  0.00    -0.081 Cl
HETATM   18  C20 UNL     1      25.719   6.219  49.599  1.00  0.00     0.056 A 
BRANCH  15  19
HETATM   19  O1  UNL     1      24.445   3.338  51.217  1.00  0.00    -0.345 OA
BRANCH  19  20
HETATM   20  C12 UNL     1      23.873   2.092  51.262  1.00  0.00     0.214 C 
BRANCH  20  21
HETATM   21  C13 UNL     1      24.668   1.121  52.028  1.00  0.00    -0.031 A 
HETATM   22  C14 UNL     1      23.919   0.491  53.032  1.00  0.00     0.009 A 
HETATM   23  C15 UNL     1      24.435  -0.448  53.891  1.00  0.00     0.004 A 
HETATM   24  C16 UNL     1      25.759  -0.819  53.795  1.00  0.00     0.042 A 
HETATM   25  C17 UNL     1      26.516  -0.206  52.808  1.00  0.00     0.117 A 
HETATM   26  F1  UNL     1      27.840  -0.468  52.588  1.00  0.00    -0.206 F 
HETATM   27  C18 UNL     1      25.986   0.730  51.957  1.00  0.00     0.051 A 
ENDBRANCH  20  21
ENDBRANCH  19  20
ENDBRANCH  15  19
ENDBRANCH  10  12
ENDBRANCH   9  10
TORSDOF 5
ENDMDL
MODEL 5
REMARK VINA RESULT:      -8.0      4.214      8.924
REMARK  5 active torsions:
REMARK  status: ('A' for Active; 'I' for Inactive)
REMARK    1  A    between atoms: C7_9  and  N3_10 
REMARK    2  A    between atoms: N3_10  and  C8_11 
REMARK    3  A    between atoms: C11_14  and  O1_15 
REMARK    4  A    between atoms: O1_15  and  C12_16 
REMARK    5  A    between atoms: C12_16  and  C13_17 
ROOT
HETATM    1  N1  UNL     1      17.819  -2.178  53.139  1.00  0.00    -0.170 NA
HETATM    2  C1  UNL     1      18.021  -1.086  52.806  1.00  0.00     0.206 C 
HETATM    3  N2  UNL     1      18.248   0.211  52.392  1.00  0.00    -0.178 NA
HETATM    4  C2  UNL     1      18.052   0.673  51.217  1.00  0.00     0.054 C 
HETATM    5  C3  UNL     1      17.540  -0.008  49.972  1.00  0.00     0.061 C 
HETATM    6  C4  UNL     1      16.662   1.096  49.421  1.00  0.00     0.011 C 
HETATM    7  C5  UNL     1      17.423   2.366  49.652  1.00  0.00     0.042 C 
HETATM    8  C6  UNL     1      18.298   2.046  50.807  1.00  0.00    -0.017 C 
HETATM    9  C7  UNL     1      19.122   2.930  51.295  1.00  0.00     0.097 C 
ENDROOT
BRANCH   9  10
HETATM   10  N3  UNL     1      20.062   2.939  52.353  1.00  0.00    -0.365 N 
HETATM   11  H8  UNL     1      19.973   3.355  53.323  1.00  0.00     0.165 HD
BRANCH  10  12
HETATM   12  C8  UNL     1      21.383   2.391  52.397  1.00  0.00     0.033 A 
HETATM   13  C9  UNL     1      22.340   3.269  52.002  1.00  0.00     0.032 A 
HETATM   14  C10 UNL     1      23.653   2.855  52.001  1.00  0.00     0.041 A 
HETATM   15  C11 UNL     1      24.062   1.596  52.377  1.00  0.00     0.091 A 
HETATM   16  C19 UNL     1      23.048   0.710  52.781  1.00  0.00     0.069 A 
HETATM   17 CL1  UNL     1      23.205  -0.954  53.319  1.00  0.00    -0.081 Cl
HETATM   18  C20 UNL     1      21.702   1.109  52.791  1.00  0.00     0.056 A 
BRANCH  15  19
HETATM   19  O1  UNL     1      25.224   0.933  52.476  1.00  0.00    -0.345 OA
BRANCH  19  20
HETATM   20  C12 UNL     1      26.455   1.212  53.013  1.00  0.00     0.214 C 
BRANCH  20  21
HETATM   21  C13 UNL     1      27.340   0.039  53.068  1.00  0.00    -0.031 A 
HETATM   22  C14 UNL     1      26.732  -1.112  52.545  1.00  0.00     0.009 A 
HETATM   23  C15 UNL     1      27.346  -2.339  52.494  1.00  0.00     0.004 A 
HETATM   24  C16 UNL     1      28.629  -2.492  52.974  1.00  0.00     0.042 A 
HETATM   25  C17 UNL     1      29.245  -1.364  53.496  1.00  0.00     0.117 A 
HETATM   26  F1  UNL     1      30.512  -1.355  54.010  1.00  0.00    -0.206 F 
HETATM   27  C18 UNL     1      28.619  -0.145  53.540  1.00  0.00     0.051 A 
ENDBRANCH  20  21
ENDBRANCH  19  20
ENDBRANCH  15  19
ENDBRANCH  10  12
ENDBRANCH   9  10
TORSDOF 5
ENDMDL
MODEL 6
REMARK VINA RESULT:      -7.9      4.112      9.104
REMARK  5 active torsions:
REMARK  status: ('A' for Active; 'I' for Inactive)
REMARK    1  A    between atoms: C7_9  and  N3_10 
REMARK    2  A    between atoms: N3_10  and  C8_11 
REMARK    3  A    between atoms: C11_14  and  O1_15 
REMARK    4  A    between atoms: O1_15  and  C12_16 
REMARK    5  A    between atoms: C12_16  and  C13_17 
ROOT
HETATM    1  N1  UNL     1      17.560  -2.802  53.461  1.00  0.00    -0.170 NA
HETATM    2  C1  UNL     1      17.831  -1.717  53.153  1.00  0.00     0.206 C 
HETATM    3  N2  UNL     1      18.139  -0.429  52.769  1.00  0.00    -0.178 NA
HETATM    4  C2  UNL     1      17.987   0.067  51.600  1.00  0.00     0.054 C 
HETATM    5  C3  UNL     1      17.454  -0.558  50.335  1.00  0.00     0.061 C 
HETATM    6  C4  UNL     1      16.650   0.606  49.795  1.00  0.00     0.011 C 
HETATM    7  C5  UNL     1      17.480   1.825  50.061  1.00  0.00     0.042 C 
HETATM    8  C6  UNL     1      18.319   1.431  51.221  1.00  0.00    -0.017 C 
HETATM    9  C7  UNL     1      19.186   2.256  51.738  1.00  0.00     0.097 C 
ENDROOT
BRANCH   9  10
HETATM   10  N3  UNL     1      20.109   2.189  52.808  1.00  0.00    -0.365 N 
HETATM   11  H8  UNL     1      20.043   2.614  53.776  1.00  0.00     0.165 HD
BRANCH  10  12
HETATM   12  C8  UNL     1      21.379   1.531  52.871  1.00  0.00     0.033 A 
HETATM   13  C9  UNL     1      21.307   0.278  53.389  1.00  0.00     0.032 A 
HETATM   14  C10 UNL     1      22.465  -0.456  53.501  1.00  0.00     0.041 A 
HETATM   15  C11 UNL     1      23.705   0.004  53.121  1.00  0.00     0.091 A 
HETATM   16  C19 UNL     1      23.748   1.304  52.589  1.00  0.00     0.069 A 
HETATM   17 CL1  UNL     1      25.142   2.199  52.008  1.00  0.00    -0.081 Cl
HETATM   18  C20 UNL     1      22.579   2.072  52.464  1.00  0.00     0.056 A 
BRANCH  15  19
HETATM   19  O1  UNL     1      24.963  -0.465  53.111  1.00  0.00    -0.345 OA
BRANCH  19  20
HETATM   20  C12 UNL     1      25.828  -0.935  54.066  1.00  0.00     0.214 C 
BRANCH  20  21
HETATM   21  C13 UNL     1      27.178  -0.363  53.952  1.00  0.00    -0.031 A 
HETATM   22  C14 UNL     1      28.084  -1.251  53.354  1.00  0.00     0.009 A 
HETATM   23  C15 UNL     1      29.409  -0.958  53.145  1.00  0.00     0.004 A 
HETATM   24  C16 UNL     1      29.918   0.264  53.531  1.00  0.00     0.042 A 
HETATM   25  C17 UNL     1      29.035   1.154  54.124  1.00  0.00     0.117 A 
HETATM   26  F1  UNL     1      29.387   2.402  54.559  1.00  0.00    -0.206 F 
HETATM   27  C18 UNL     1      27.714   0.848  54.326  1.00  0.00     0.051 A 
ENDBRANCH  20  21
ENDBRANCH  19  20
ENDBRANCH  15  19
ENDBRANCH  10  12
ENDBRANCH   9  10
TORSDOF 5
ENDMDL
MODEL 7
REMARK VINA RESULT:      -7.9      5.987      8.658
REMARK  5 active torsions:
REMARK  status: ('A' for Active; 'I' for Inactive)
REMARK    1  A    between atoms: C7_9  and  N3_10 
REMARK    2  A    between atoms: N3_10  and  C8_11 
REMARK    3  A    between atoms: C11_14  and  O1_15 
REMARK    4  A    between atoms: O1_15  and  C12_16 
REMARK    5  A    between atoms: C12_16  and  C13_17 
ROOT
HETATM    1  N1  UNL     1      30.350   6.113  48.318  1.00  0.00    -0.170 NA
HETATM    2  C1  UNL     1      29.204   6.284  48.290  1.00  0.00     0.206 C 
HETATM    3  N2  UNL     1      27.843   6.509  48.259  1.00  0.00    -0.178 NA
HETATM    4  C2  UNL     1      27.238   7.539  48.715  1.00  0.00     0.054 C 
HETATM    5  C3  UNL     1      27.782   8.770  49.396  1.00  0.00     0.061 C 
HETATM    6  C4  UNL     1      26.898   9.823  48.762  1.00  0.00     0.011 C 
HETATM    7  C5  UNL     1      25.531   9.211  48.694  1.00  0.00     0.042 C 
HETATM    8  C6  UNL     1      25.800   7.752  48.668  1.00  0.00    -0.017 C 
HETATM    9  C7  UNL     1      24.828   6.886  48.613  1.00  0.00     0.097 C 
ENDROOT
BRANCH   9  10
HETATM   10  N3  UNL     1      24.751   5.474  48.579  1.00  0.00    -0.365 N 
HETATM   11  H8  UNL     1      24.519   4.836  47.765  1.00  0.00     0.165 HD
BRANCH  10  12
HETATM   12  C8  UNL     1      24.966   4.528  49.631  1.00  0.00     0.033 A 
HETATM   13  C9  UNL     1      26.200   3.960  49.596  1.00  0.00     0.032 A 
HETATM   14  C10 UNL     1      26.525   3.032  50.558  1.00  0.00     0.041 A 
HETATM   15  C11 UNL     1      25.672   2.636  51.562  1.00  0.00     0.091 A 
HETATM   16  C19 UNL     1      24.402   3.240  51.573  1.00  0.00     0.069 A 
HETATM   17 CL1  UNL     1      23.078   2.978  52.694  1.00  0.00    -0.081 Cl
HETATM   18  C20 UNL     1      24.048   4.191  50.601  1.00  0.00     0.056 A 
BRANCH  15  19
HETATM   19  O1  UNL     1      25.709   1.786  52.600  1.00  0.00    -0.345 OA
BRANCH  19  20
HETATM   20  C12 UNL     1      25.716   0.421  52.733  1.00  0.00     0.214 C 
BRANCH  20  21
HETATM   21  C13 UNL     1      27.049  -0.122  53.032  1.00  0.00    -0.031 A 
HETATM   22  C14 UNL     1      27.934   0.862  53.496  1.00  0.00     0.009 A 
HETATM   23  C15 UNL     1      29.242   0.612  53.833  1.00  0.00     0.004 A 
HETATM   24  C16 UNL     1      29.753  -0.664  53.723  1.00  0.00     0.042 A 
HETATM   25  C17 UNL     1      28.891  -1.650  53.265  1.00  0.00     0.117 A 
HETATM   26  F1  UNL     1      29.249  -2.960  53.101  1.00  0.00    -0.206 F 
HETATM   27  C18 UNL     1      27.588  -1.385  52.932  1.00  0.00     0.051 A 
ENDBRANCH  20  21
ENDBRANCH  19  20
ENDBRANCH  15  19
ENDBRANCH  10  12
ENDBRANCH   9  10
TORSDOF 5
ENDMDL
MODEL 8
REMARK VINA RESULT:      -7.9      5.731      9.455
REMARK  5 active torsions:
REMARK  status: ('A' for Active; 'I' for Inactive)
REMARK    1  A    between atoms: C7_9  and  N3_10 
REMARK    2  A    between atoms: N3_10  and  C8_11 
REMARK    3  A    between atoms: C11_14  and  O1_15 
REMARK    4  A    between atoms: O1_15  and  C12_16 
REMARK    5  A    between atoms: C12_16  and  C13_17 
ROOT
HETATM    1  N1  UNL     1      26.547  -0.844  54.107  1.00  0.00    -0.170 NA
HETATM    2  C1  UNL     1      25.637  -0.287  53.652  1.00  0.00     0.206 C 
HETATM    3  N2  UNL     1      24.542   0.367  53.128  1.00  0.00    -0.178 NA
HETATM    4  C2  UNL     1      23.315   0.067  53.330  1.00  0.00     0.054 C 
HETATM    5  C3  UNL     1      22.703  -1.034  54.159  1.00  0.00     0.061 C 
HETATM    6  C4  UNL     1      21.533  -0.282  54.757  1.00  0.00     0.011 C 
HETATM    7  C5  UNL     1      21.003   0.581  53.653  1.00  0.00     0.042 C 
HETATM    8  C6  UNL     1      22.178   0.775  52.766  1.00  0.00    -0.017 C 
HETATM    9  C7  UNL     1      22.092   1.485  51.675  1.00  0.00     0.097 C 
ENDROOT
BRANCH   9  10
HETATM   10  N3  UNL     1      22.994   1.848  50.649  1.00  0.00    -0.365 N 
HETATM   11  H8  UNL     1      23.318   1.284  49.813  1.00  0.00     0.165 HD
BRANCH  10  12
HETATM   12  C8  UNL     1      23.711   3.073  50.463  1.00  0.00     0.033 A 
HETATM   13  C9  UNL     1      24.966   2.889  49.977  1.00  0.00     0.032 A 
HETATM   14  C10 UNL     1      25.755   3.995  49.756  1.00  0.00     0.041 A 
HETATM   15  C11 UNL     1      25.350   5.288  50.001  1.00  0.00     0.091 A 
HETATM   16  C19 UNL     1      24.047   5.446  50.503  1.00  0.00     0.069 A 
HETATM   17 CL1  UNL     1      23.212   6.932  50.923  1.00  0.00    -0.081 Cl
HETATM   18  C20 UNL     1      23.224   4.332  50.735  1.00  0.00     0.056 A 
BRANCH  15  19
HETATM   19  O1  UNL     1      25.878   6.517  49.888  1.00  0.00    -0.345 OA
BRANCH  19  20
HETATM   20  C12 UNL     1      26.226   7.327  48.837  1.00  0.00     0.214 C 
BRANCH  20  21
HETATM   21  C13 UNL     1      27.680   7.500  48.700  1.00  0.00    -0.031 A 
HETATM   22  C14 UNL     1      28.296   6.387  48.108  1.00  0.00     0.009 A 
HETATM   23  C15 UNL     1      29.647   6.297  47.881  1.00  0.00     0.004 A 
HETATM   24  C16 UNL     1      30.480   7.336  48.240  1.00  0.00     0.042 A 
HETATM   25  C17 UNL     1      29.888   8.445  48.826  1.00  0.00     0.117 A 
HETATM   26  F1  UNL     1      30.578   9.552  49.236  1.00  0.00    -0.206 F 
HETATM   27  C18 UNL     1      28.537   8.520  49.047  1.00  0.00     0.051 A 
ENDBRANCH  20  21
ENDBRANCH  19  20
ENDBRANCH  15  19
ENDBRANCH  10  12
ENDBRANCH   9  10
TORSDOF 5
ENDMDL
MODEL 9
REMARK VINA RESULT:      -7.9      6.418     10.261
REMARK  5 active torsions:
REMARK  status: ('A' for Active; 'I' for Inactive)
REMARK    1  A    between atoms: C7_9  and  N3_10 
REMARK    2  A    between atoms: N3_10  and  C8_11 
REMARK    3  A    between atoms: C11_14  and  O1_15 
REMARK    4  A    between atoms: O1_15  and  C12_16 
REMARK    5  A    between atoms: C12_16  and  C13_17 
ROOT
HETATM    1  N1  UNL     1      27.457  -0.244  54.991  1.00  0.00    -0.170 NA
HETATM    2  C1  UNL     1      26.762   0.331  54.262  1.00  0.00     0.206 C 
HETATM    3  N2  UNL     1      25.918   1.006  53.406  1.00  0.00    -0.178 NA
HETATM    4  C2  UNL     1      24.709   0.690  53.132  1.00  0.00     0.054 C 
HETATM    5  C3  UNL     1      23.864  -0.457  53.626  1.00  0.00     0.061 C 
HETATM    6  C4  UNL     1      22.539   0.257  53.791  1.00  0.00     0.011 C 
HETATM    7  C5  UNL     1      22.428   1.175  52.612  1.00  0.00     0.042 C 
HETATM    8  C6  UNL     1      23.839   1.421  52.225  1.00  0.00    -0.017 C 
HETATM    9  C7  UNL     1      24.139   2.187  51.214  1.00  0.00     0.097 C 
ENDROOT
BRANCH   9  10
HETATM   10  N3  UNL     1      25.345   2.609  50.606  1.00  0.00    -0.365 N 
HETATM   11  H8  UNL     1      26.230   2.057  50.423  1.00  0.00     0.165 HD
BRANCH  10  12
HETATM   12  C8  UNL     1      25.693   3.892  50.075  1.00  0.00     0.033 A 
HETATM   13  C9  UNL     1      26.797   3.863  49.286  1.00  0.00     0.032 A 
HETATM   14  C10 UNL     1      27.232   5.038  48.718  1.00  0.00     0.041 A 
HETATM   15  C11 UNL     1      26.613   6.254  48.900  1.00  0.00     0.091 A 
HETATM   16  C19 UNL     1      25.473   6.252  49.722  1.00  0.00     0.069 A 
HETATM   17 CL1  UNL     1      24.447   7.606  50.167  1.00  0.00    -0.081 Cl
HETATM   18  C20 UNL     1      25.010   5.065  50.312  1.00  0.00     0.056 A 
BRANCH  15  19
HETATM   19  O1  UNL     1      26.800   7.519  48.491  1.00  0.00    -0.345 OA
BRANCH  19  20
HETATM   20  C12 UNL     1      27.609   8.127  47.566  1.00  0.00     0.214 C 
BRANCH  20  21
HETATM   21  C13 UNL     1      29.035   8.075  47.925  1.00  0.00    -0.031 A 
HETATM   22  C14 UNL     1      29.401   9.105  48.803  1.00  0.00     0.009 A 
HETATM   23  C15 UNL     1      30.678   9.282  49.277  1.00  0.00     0.004 A 
HETATM   24  C16 UNL     1      31.684   8.421  48.894  1.00  0.00     0.042 A 
HETATM   25  C17 UNL     1      31.339   7.396  48.025  1.00  0.00     0.117 A 
HETATM   26  F1  UNL     1      32.223   6.464  47.555  1.00  0.00    -0.206 F 
HETATM   27  C18 UNL     1      30.060   7.232  47.560  1.00  0.00     0.051 A 
ENDBRANCH  20  21
ENDBRANCH  19  20
ENDBRANCH  15  19
ENDBRANCH  10  12
ENDBRANCH   9  10
TORSDOF 5
ENDMDL
