MODEL 1
REMARK VINA RESULT:      -7.1      0.000      0.000
REMARK  6 active torsions:
REMARK  status: ('A' for Active; 'I' for Inactive)
REMARK    1  A    between atoms: C2_3  and  C3_4 
REMARK    2  A    between atoms: C4_5  and  C5_6 
REMARK    3  A    between atoms: C6_7  and  C7_8 
REMARK    4  A    between atoms: C7_8  and  N1_9 
REMARK    5  A    between atoms: C11_13  and  N2_14 
REMARK    6  A    between atoms: C17_22  and  N4_23 
ROOT
HETATM    1  C1  UNL     1      27.408  13.563  47.940  1.00  0.00     0.104 C 
HETATM    2  S1  UNL     1      28.621  12.390  48.488  1.00  0.00    -0.092 SA
HETATM    3  C2  UNL     1      29.611  11.416  48.915  1.00  0.00    -0.085 C 
ENDROOT
BRANCH   3   4
HETATM    4  C3  UNL     1      30.561  10.468  49.304  1.00  0.00     0.063 C 
HETATM    5  C4  UNL     1      30.189   9.178  49.307  1.00  0.00     0.009 C 
BRANCH   5   6
HETATM    6  C5  UNL     1      28.844   8.833  48.915  1.00  0.00    -0.002 C 
HETATM    7  C6  UNL     1      28.579   7.703  48.280  1.00  0.00    -0.007 C 
BRANCH   7   8
HETATM    8  C7  UNL     1      27.203   7.328  47.867  1.00  0.00     0.157 C 
BRANCH   8   9
HETATM    9  N1  UNL     1      26.841   6.154  48.609  1.00  0.00    -0.337 N 
HETATM   10  C8  UNL     1      27.471   4.967  48.592  1.00  0.00     0.094 A 
HETATM   11  C9  UNL     1      26.770   4.150  49.453  1.00  0.00     0.036 A 
HETATM   12  C10 UNL     1      25.714   4.837  49.995  1.00  0.00     0.059 A 
HETATM   13  C11 UNL     1      24.761   4.408  50.882  1.00  0.00     0.163 A 
HETATM   14  C18 UNL     1      25.793   6.092  49.439  1.00  0.00     0.163 A 
HETATM   15  N3  UNL     1      23.843   5.372  51.187  1.00  0.00    -0.044 NA
HETATM   16  C17 UNL     1      23.900   6.598  50.657  1.00  0.00     0.724 A 
HETATM   17  N5  UNL     1      24.850   6.978  49.794  1.00  0.00    -0.044 NA
BRANCH  13  18
HETATM   18  N2  UNL     1      24.668   3.148  51.517  1.00  0.00    -0.336 N 
HETATM   19  C12 UNL     1      25.650   2.151  51.723  1.00  0.00     0.112 A 
HETATM   20  C13 UNL     1      25.492   0.969  52.252  1.00  0.00     0.026 A 
HETATM   21 BR1  UNL     1      26.952  -0.242  52.437  1.00  0.00    -0.050 Br
HETATM   22  C14 UNL     1      24.192   0.586  52.758  1.00  0.00     0.018 A 
HETATM   23  C15 UNL     1      23.252   1.504  52.639  1.00  0.00    -0.005 A 
HETATM   24  C16 UNL     1      23.334   2.865  52.069  1.00  0.00     0.157 A 
ENDBRANCH  13  18
BRANCH  16  25
HETATM   25  N4  UNL     1      22.860   7.501  51.079  1.00  0.00    -0.231 N 
HETATM   26  H17 UNL     1      22.199   7.200  51.808  1.00  0.00     0.174 HD
HETATM   27  H18 UNL     1      23.003   8.366  50.503  1.00  0.00     0.174 HD
ENDBRANCH  16  25
ENDBRANCH   8   9
ENDBRANCH   7   8
ENDBRANCH   5   6
ENDBRANCH   3   4
TORSDOF 6
ENDMDL
MODEL 2
REMARK VINA RESULT:      -7.1      4.727      9.552
REMARK  6 active torsions:
REMARK  status: ('A' for Active; 'I' for Inactive)
REMARK    1  A    between atoms: C2_3  and  C3_4 
REMARK    2  A    between atoms: C4_5  and  C5_6 
REMARK    3  A    between atoms: C6_7  and  C7_8 
REMARK    4  A    between atoms: C7_8  and  N1_9 
REMARK    5  A    between atoms: C11_13  and  N2_14 
REMARK    6  A    between atoms: C17_22  and  N4_23 
ROOT
HETATM    1  C1  UNL     1      20.968   1.442  48.958  1.00  0.00     0.104 C 
HETATM    2  S1  UNL     1      19.806   0.809  50.140  1.00  0.00    -0.092 SA
HETATM    3  C2  UNL     1      18.867   0.269  51.109  1.00  0.00    -0.085 C 
ENDROOT
BRANCH   3   4
HETATM    4  C3  UNL     1      17.978  -0.271  52.042  1.00  0.00     0.063 C 
HETATM    5  C4  UNL     1      18.499  -0.874  53.122  1.00  0.00     0.009 C 
BRANCH   5   6
HETATM    6  C5  UNL     1      19.933  -0.939  53.269  1.00  0.00    -0.002 C 
HETATM    7  C6  UNL     1      20.596  -0.031  53.967  1.00  0.00    -0.007 C 
BRANCH   7   8
HETATM    8  C7  UNL     1      22.071  -0.078  54.132  1.00  0.00     0.157 C 
BRANCH   8   9
HETATM    9  N1  UNL     1      22.627   0.945  53.293  1.00  0.00    -0.337 N 
HETATM   10  C8  UNL     1      21.985   2.020  52.806  1.00  0.00     0.094 A 
HETATM   11  C9  UNL     1      22.914   2.713  52.058  1.00  0.00     0.036 A 
HETATM   12  C10 UNL     1      24.121   2.062  52.090  1.00  0.00     0.059 A 
HETATM   13  C11 UNL     1      25.303   2.392  51.480  1.00  0.00     0.163 A 
HETATM   14  C18 UNL     1      23.898   0.955  52.874  1.00  0.00     0.163 A 
HETATM   15  N3  UNL     1      26.299   1.489  51.721  1.00  0.00    -0.044 NA
HETATM   16  C17 UNL     1      26.104   0.406  52.481  1.00  0.00     0.724 A 
HETATM   17  N5  UNL     1      24.932   0.120  53.060  1.00  0.00    -0.044 NA
BRANCH  13  18
HETATM   18  N2  UNL     1      25.592   3.541  50.708  1.00  0.00    -0.336 N 
HETATM   19  C12 UNL     1      24.989   4.820  50.708  1.00  0.00     0.112 A 
HETATM   20  C13 UNL     1      25.248   5.827  49.918  1.00  0.00     0.026 A 
HETATM   21 BR1  UNL     1      24.313   7.480  50.076  1.00  0.00    -0.050 Br
HETATM   22  C14 UNL     1      26.303   5.705  48.935  1.00  0.00     0.018 A 
HETATM   23  C15 UNL     1      26.934   4.547  48.932  1.00  0.00    -0.005 A 
HETATM   24  C16 UNL     1      26.724   3.359  49.785  1.00  0.00     0.157 A 
ENDBRANCH  13  18
BRANCH  16  25
HETATM   25  N4  UNL     1      27.252  -0.449  52.641  1.00  0.00    -0.231 N 
HETATM   26  H17 UNL     1      28.170  -0.026  52.840  1.00  0.00     0.174 HD
HETATM   27  H18 UNL     1      26.885  -1.423  52.510  1.00  0.00     0.174 HD
ENDBRANCH  16  25
ENDBRANCH   8   9
ENDBRANCH   7   8
ENDBRANCH   5   6
ENDBRANCH   3   4
TORSDOF 6
ENDMDL
MODEL 3
REMARK VINA RESULT:      -7.0      3.929      5.415
REMARK  6 active torsions:
REMARK  status: ('A' for Active; 'I' for Inactive)
REMARK    1  A    between atoms: C2_3  and  C3_4 
REMARK    2  A    between atoms: C4_5  and  C5_6 
REMARK    3  A    between atoms: C6_7  and  C7_8 
REMARK    4  A    between atoms: C7_8  and  N1_9 
REMARK    5  A    between atoms: C11_13  and  N2_14 
REMARK    6  A    between atoms: C17_22  and  N4_23 
ROOT
HETATM    1  C1  UNL     1      20.719   4.752  50.401  1.00  0.00     0.104 C 
HETATM    2  S1  UNL     1      21.961   6.020  50.420  1.00  0.00    -0.092 SA
HETATM    3  C2  UNL     1      22.964   7.071  50.452  1.00  0.00    -0.085 C 
ENDROOT
BRANCH   3   4
HETATM    4  C3  UNL     1      23.914   8.094  50.498  1.00  0.00     0.063 C 
HETATM    5  C4  UNL     1      25.202   7.756  50.332  1.00  0.00     0.009 C 
BRANCH   5   6
HETATM    6  C5  UNL     1      25.544   6.371  50.116  1.00  0.00    -0.002 C 
HETATM    7  C6  UNL     1      26.412   6.011  49.185  1.00  0.00    -0.007 C 
BRANCH   7   8
HETATM    8  C7  UNL     1      26.778   4.592  48.945  1.00  0.00     0.157 C 
BRANCH   8   9
HETATM    9  N1  UNL     1      25.792   3.781  49.600  1.00  0.00    -0.337 N 
HETATM   10  C8  UNL     1      24.493   3.677  49.273  1.00  0.00     0.094 A 
HETATM   11  C9  UNL     1      23.943   2.790  50.175  1.00  0.00     0.036 A 
HETATM   12  C10 UNL     1      24.905   2.354  51.049  1.00  0.00     0.059 A 
HETATM   13  C11 UNL     1      24.792   1.484  52.103  1.00  0.00     0.163 A 
HETATM   14  C18 UNL     1      26.052   3.000  50.655  1.00  0.00     0.163 A 
HETATM   15  N3  UNL     1      25.969   1.298  52.771  1.00  0.00    -0.044 NA
HETATM   16  C17 UNL     1      27.096   1.917  52.405  1.00  0.00     0.724 A 
HETATM   17  N5  UNL     1      27.164   2.760  51.367  1.00  0.00    -0.044 NA
BRANCH  13  18
HETATM   18  N2  UNL     1      23.649   0.759  52.514  1.00  0.00    -0.336 N 
HETATM   19  C12 UNL     1      22.317   0.805  52.041  1.00  0.00     0.112 A 
HETATM   20  C13 UNL     1      21.280   0.165  52.509  1.00  0.00     0.026 A 
HETATM   21 BR1  UNL     1      19.552   0.367  51.729  1.00  0.00    -0.050 Br
HETATM   22  C14 UNL     1      21.452  -0.759  53.609  1.00  0.00     0.018 A 
HETATM   23  C15 UNL     1      22.689  -0.878  54.050  1.00  0.00    -0.005 A 
HETATM   24  C16 UNL     1      23.923  -0.211  53.586  1.00  0.00     0.157 A 
ENDBRANCH  13  18
BRANCH  16  25
HETATM   25  N4  UNL     1      28.252   1.616  53.209  1.00  0.00    -0.231 N 
HETATM   26  H17 UNL     1      28.943   2.357  53.393  1.00  0.00     0.174 HD
HETATM   27  H18 UNL     1      28.146   0.606  53.470  1.00  0.00     0.174 HD
ENDBRANCH  16  25
ENDBRANCH   8   9
ENDBRANCH   7   8
ENDBRANCH   5   6
ENDBRANCH   3   4
TORSDOF 6
ENDMDL
MODEL 4
REMARK VINA RESULT:      -6.9      3.782      7.933
REMARK  6 active torsions:
REMARK  status: ('A' for Active; 'I' for Inactive)
REMARK    1  A    between atoms: C2_3  and  C3_4 
REMARK    2  A    between atoms: C4_5  and  C5_6 
REMARK    3  A    between atoms: C6_7  and  C7_8 
REMARK    4  A    between atoms: C7_8  and  N1_9 
REMARK    5  A    between atoms: C11_13  and  N2_14 
REMARK    6  A    between atoms: C17_22  and  N4_23 
ROOT
HETATM    1  C1  UNL     1      29.842   2.144  54.612  1.00  0.00     0.104 C 
HETATM    2  S1  UNL     1      28.944   0.767  53.943  1.00  0.00    -0.092 SA
HETATM    3  C2  UNL     1      28.216  -0.374  53.415  1.00  0.00    -0.085 C 
ENDROOT
BRANCH   3   4
HETATM    4  C3  UNL     1      27.521  -1.484  52.928  1.00  0.00     0.063 C 
HETATM    5  C4  UNL     1      26.219  -1.327  52.642  1.00  0.00     0.009 C 
BRANCH   5   6
HETATM    6  C5  UNL     1      25.603  -0.039  52.847  1.00  0.00    -0.002 C 
HETATM    7  C6  UNL     1      25.372   0.784  51.837  1.00  0.00    -0.007 C 
BRANCH   7   8
HETATM    8  C7  UNL     1      24.740   2.114  52.025  1.00  0.00     0.157 C 
BRANCH   8   9
HETATM    9  N1  UNL     1      25.366   3.018  51.104  1.00  0.00    -0.337 N 
HETATM   10  C8  UNL     1      26.473   2.787  50.379  1.00  0.00     0.094 A 
HETATM   11  C9  UNL     1      26.696   3.933  49.645  1.00  0.00     0.036 A 
HETATM   12  C10 UNL     1      25.726   4.862  49.921  1.00  0.00     0.059 A 
HETATM   13  C11 UNL     1      25.573   6.132  49.428  1.00  0.00     0.163 A 
HETATM   14  C18 UNL     1      24.911   4.250  50.843  1.00  0.00     0.163 A 
HETATM   15  N3  UNL     1      24.490   6.781  49.951  1.00  0.00    -0.044 NA
HETATM   16  C17 UNL     1      23.685   6.205  50.849  1.00  0.00     0.724 A 
HETATM   17  N5  UNL     1      23.869   4.960  51.304  1.00  0.00    -0.044 NA
BRANCH  13  18
HETATM   18  N2  UNL     1      26.354   6.783  48.446  1.00  0.00    -0.336 N 
HETATM   19  C12 UNL     1      27.745   6.726  48.195  1.00  0.00     0.112 A 
HETATM   20  C13 UNL     1      28.429   7.410  47.318  1.00  0.00     0.026 A 
HETATM   21 BR1  UNL     1      30.313   7.192  47.138  1.00  0.00    -0.050 Br
HETATM   22  C14 UNL     1      27.736   8.314  46.426  1.00  0.00     0.018 A 
HETATM   23  C15 UNL     1      26.427   8.361  46.583  1.00  0.00    -0.005 A 
HETATM   24  C16 UNL     1      25.566   7.626  47.533  1.00  0.00     0.157 A 
ENDBRANCH  13  18
BRANCH  16  25
HETATM   25  N4  UNL     1      22.587   7.018  51.303  1.00  0.00    -0.231 N 
HETATM   26  H17 UNL     1      22.755   7.729  52.028  1.00  0.00     0.174 HD
HETATM   27  H18 UNL     1      21.759   6.691  50.748  1.00  0.00     0.174 HD
ENDBRANCH  16  25
ENDBRANCH   8   9
ENDBRANCH   7   8
ENDBRANCH   5   6
ENDBRANCH   3   4
TORSDOF 6
ENDMDL
MODEL 5
REMARK VINA RESULT:      -6.8      2.313      2.428
REMARK  6 active torsions:
REMARK  status: ('A' for Active; 'I' for Inactive)
REMARK    1  A    between atoms: C2_3  and  C3_4 
REMARK    2  A    between atoms: C4_5  and  C5_6 
REMARK    3  A    between atoms: C6_7  and  C7_8 
REMARK    4  A    between atoms: C7_8  and  N1_9 
REMARK    5  A    between atoms: C11_13  and  N2_14 
REMARK    6  A    between atoms: C17_22  and  N4_23 
ROOT
HETATM    1  C1  UNL     1      28.891  10.150  43.950  1.00  0.00     0.104 C 
HETATM    2  S1  UNL     1      29.812   8.966  44.898  1.00  0.00    -0.092 SA
HETATM    3  C2  UNL     1      30.559   8.008  45.695  1.00  0.00    -0.085 C 
ENDROOT
BRANCH   3   4
HETATM    4  C3  UNL     1      31.269   7.097  46.482  1.00  0.00     0.063 C 
HETATM    5  C4  UNL     1      30.619   6.515  47.501  1.00  0.00     0.009 C 
BRANCH   5   6
HETATM    6  C5  UNL     1      29.235   6.851  47.737  1.00  0.00    -0.002 C 
HETATM    7  C6  UNL     1      28.380   5.960  48.212  1.00  0.00    -0.007 C 
BRANCH   7   8
HETATM    8  C7  UNL     1      26.953   6.283  48.462  1.00  0.00     0.157 C 
BRANCH   8   9
HETATM    9  N1  UNL     1      26.399   5.204  49.228  1.00  0.00    -0.337 N 
HETATM   10  C8  UNL     1      26.875   3.950  49.309  1.00  0.00     0.094 A 
HETATM   11  C9  UNL     1      26.022   3.272  50.154  1.00  0.00     0.036 A 
HETATM   12  C10 UNL     1      25.027   4.110  50.587  1.00  0.00     0.059 A 
HETATM   13  C11 UNL     1      23.971   3.848  51.421  1.00  0.00     0.163 A 
HETATM   14  C18 UNL     1      25.299   5.314  49.982  1.00  0.00     0.163 A 
HETATM   15  N3  UNL     1      23.163   4.932  51.616  1.00  0.00    -0.044 NA
HETATM   16  C17 UNL     1      23.408   6.112  51.037  1.00  0.00     0.724 A 
HETATM   17  N5  UNL     1      24.453   6.327  50.228  1.00  0.00    -0.044 NA
BRANCH  13  18
HETATM   18  N2  UNL     1      23.680   2.645  52.104  1.00  0.00    -0.336 N 
HETATM   19  C12 UNL     1      24.546   1.680  52.670  1.00  0.00     0.112 A 
HETATM   20  C13 UNL     1      24.224   0.544  53.226  1.00  0.00     0.026 A 
HETATM   21 BR1  UNL     1      25.550  -0.630  53.929  1.00  0.00    -0.050 Br
HETATM   22  C14 UNL     1      22.827   0.190  53.360  1.00  0.00     0.018 A 
HETATM   23  C15 UNL     1      21.976   1.085  52.897  1.00  0.00    -0.005 A 
HETATM   24  C16 UNL     1      22.239   2.394  52.264  1.00  0.00     0.157 A 
ENDBRANCH  13  18
BRANCH  16  25
HETATM   25  N4  UNL     1      22.464   7.156  51.341  1.00  0.00    -0.231 N 
HETATM   26  H17 UNL     1      21.544   6.904  51.730  1.00  0.00     0.174 HD
HETATM   27  H18 UNL     1      22.952   8.047  51.081  1.00  0.00     0.174 HD
ENDBRANCH  16  25
ENDBRANCH   8   9
ENDBRANCH   7   8
ENDBRANCH   5   6
ENDBRANCH   3   4
TORSDOF 6
ENDMDL
MODEL 6
REMARK VINA RESULT:      -6.7      6.119      9.604
REMARK  6 active torsions:
REMARK  status: ('A' for Active; 'I' for Inactive)
REMARK    1  A    between atoms: C2_3  and  C3_4 
REMARK    2  A    between atoms: C4_5  and  C5_6 
REMARK    3  A    between atoms: C6_7  and  C7_8 
REMARK    4  A    between atoms: C7_8  and  N1_9 
REMARK    5  A    between atoms: C11_13  and  N2_14 
REMARK    6  A    between atoms: C17_22  and  N4_23 
ROOT
HETATM    1  C1  UNL     1      14.599   3.305  50.190  1.00  0.00     0.104 C 
HETATM    2  S1  UNL     1      15.278   1.731  50.650  1.00  0.00    -0.092 SA
HETATM    3  C2  UNL     1      15.850   0.445  51.008  1.00  0.00    -0.085 C 
ENDROOT
BRANCH   3   4
HETATM    4  C3  UNL     1      16.418  -0.789  51.335  1.00  0.00     0.063 C 
HETATM    5  C4  UNL     1      17.716  -0.807  51.675  1.00  0.00     0.009 C 
BRANCH   5   6
HETATM    6  C5  UNL     1      18.458   0.431  51.687  1.00  0.00    -0.002 C 
HETATM    7  C6  UNL     1      19.721   0.475  52.077  1.00  0.00    -0.007 C 
BRANCH   7   8
HETATM    8  C7  UNL     1      20.503   1.738  52.097  1.00  0.00     0.157 C 
BRANCH   8   9
HETATM    9  N1  UNL     1      21.856   1.396  52.430  1.00  0.00    -0.337 N 
HETATM   10  C8  UNL     1      22.257   0.570  53.411  1.00  0.00     0.094 A 
HETATM   11  C9  UNL     1      23.635   0.550  53.353  1.00  0.00     0.036 A 
HETATM   12  C10 UNL     1      24.073   1.361  52.338  1.00  0.00     0.059 A 
HETATM   13  C11 UNL     1      25.355   1.641  51.940  1.00  0.00     0.163 A 
HETATM   14  C18 UNL     1      22.925   1.875  51.784  1.00  0.00     0.163 A 
HETATM   15  N3  UNL     1      25.411   2.518  50.895  1.00  0.00    -0.044 NA
HETATM   16  C17 UNL     1      24.307   3.031  50.341  1.00  0.00     0.724 A 
HETATM   17  N5  UNL     1      23.072   2.731  50.759  1.00  0.00    -0.044 NA
BRANCH  13  18
HETATM   18  N2  UNL     1      26.560   1.100  52.446  1.00  0.00    -0.336 N 
HETATM   19  C12 UNL     1      27.005  -0.241  52.512  1.00  0.00     0.112 A 
HETATM   20  C13 UNL     1      28.100  -0.695  53.059  1.00  0.00     0.026 A 
HETATM   21 BR1  UNL     1      28.521  -2.553  53.049  1.00  0.00    -0.050 Br
HETATM   22  C14 UNL     1      29.042   0.237  53.640  1.00  0.00     0.018 A 
HETATM   23  C15 UNL     1      28.697   1.508  53.554  1.00  0.00    -0.005 A 
HETATM   24  C16 UNL     1      27.494   2.118  52.951  1.00  0.00     0.157 A 
ENDBRANCH  13  18
BRANCH  16  25
HETATM   25  N4  UNL     1      24.532   3.940  49.248  1.00  0.00    -0.231 N 
HETATM   26  H17 UNL     1      25.379   4.526  49.248  1.00  0.00     0.174 HD
HETATM   27  H18 UNL     1      23.709   3.808  48.611  1.00  0.00     0.174 HD
ENDBRANCH  16  25
ENDBRANCH   8   9
ENDBRANCH   7   8
ENDBRANCH   5   6
ENDBRANCH   3   4
TORSDOF 6
ENDMDL
MODEL 7
REMARK VINA RESULT:      -6.7      5.166      6.857
REMARK  6 active torsions:
REMARK  status: ('A' for Active; 'I' for Inactive)
REMARK    1  A    between atoms: C2_3  and  C3_4 
REMARK    2  A    between atoms: C4_5  and  C5_6 
REMARK    3  A    between atoms: C6_7  and  C7_8 
REMARK    4  A    between atoms: C7_8  and  N1_9 
REMARK    5  A    between atoms: C11_13  and  N2_14 
REMARK    6  A    between atoms: C17_22  and  N4_23 
ROOT
HETATM    1  C1  UNL     1      20.113   3.117  52.091  1.00  0.00     0.104 C 
HETATM    2  S1  UNL     1      19.315   4.035  50.798  1.00  0.00    -0.092 SA
HETATM    3  C2  UNL     1      18.644   4.793  49.756  1.00  0.00    -0.085 C 
ENDROOT
BRANCH   3   4
HETATM    4  C3  UNL     1      17.983   5.530  48.771  1.00  0.00     0.063 C 
HETATM    5  C4  UNL     1      18.734   6.172  47.863  1.00  0.00     0.009 C 
BRANCH   5   6
HETATM    6  C5  UNL     1      20.171   6.074  47.944  1.00  0.00    -0.002 C 
HETATM    7  C6  UNL     1      20.857   5.296  47.123  1.00  0.00    -0.007 C 
BRANCH   7   8
HETATM    8  C7  UNL     1      22.336   5.180  47.188  1.00  0.00     0.157 C 
BRANCH   8   9
HETATM    9  N1  UNL     1      22.642   4.147  48.136  1.00  0.00    -0.337 N 
HETATM   10  C8  UNL     1      22.494   2.824  47.958  1.00  0.00     0.094 A 
HETATM   11  C9  UNL     1      22.912   2.231  49.130  1.00  0.00     0.036 A 
HETATM   12  C10 UNL     1      23.315   3.192  50.023  1.00  0.00     0.059 A 
HETATM   13  C11 UNL     1      23.788   3.047  51.301  1.00  0.00     0.163 A 
HETATM   14  C18 UNL     1      23.129   4.382  49.361  1.00  0.00     0.163 A 
HETATM   15  N3  UNL     1      24.074   4.239  51.903  1.00  0.00    -0.044 NA
HETATM   16  C17 UNL     1      23.900   5.408  51.278  1.00  0.00     0.724 A 
HETATM   17  N5  UNL     1      23.436   5.506  50.026  1.00  0.00    -0.044 NA
BRANCH  13  18
HETATM   18  N2  UNL     1      24.042   1.846  52.004  1.00  0.00    -0.336 N 
HETATM   19  C12 UNL     1      23.183   1.048  52.794  1.00  0.00     0.112 A 
HETATM   20  C13 UNL     1      23.490  -0.016  53.485  1.00  0.00     0.026 A 
HETATM   21 BR1  UNL     1      22.179  -0.957  54.499  1.00  0.00    -0.050 Br
HETATM   22  C14 UNL     1      24.844  -0.526  53.439  1.00  0.00     0.018 A 
HETATM   23  C15 UNL     1      25.672   0.154  52.670  1.00  0.00    -0.005 A 
HETATM   24  C16 UNL     1      25.420   1.356  51.847  1.00  0.00     0.157 A 
ENDBRANCH  13  18
BRANCH  16  25
HETATM   25  N4  UNL     1      24.248   6.575  52.046  1.00  0.00    -0.231 N 
HETATM   26  H17 UNL     1      23.695   6.810  52.882  1.00  0.00     0.174 HD
HETATM   27  H18 UNL     1      25.075   6.989  51.551  1.00  0.00     0.174 HD
ENDBRANCH  16  25
ENDBRANCH   8   9
ENDBRANCH   7   8
ENDBRANCH   5   6
ENDBRANCH   3   4
TORSDOF 6
ENDMDL
MODEL 8
REMARK VINA RESULT:      -6.7      4.038      5.915
REMARK  6 active torsions:
REMARK  status: ('A' for Active; 'I' for Inactive)
REMARK    1  A    between atoms: C2_3  and  C3_4 
REMARK    2  A    between atoms: C4_5  and  C5_6 
REMARK    3  A    between atoms: C6_7  and  C7_8 
REMARK    4  A    between atoms: C7_8  and  N1_9 
REMARK    5  A    between atoms: C11_13  and  N2_14 
REMARK    6  A    between atoms: C17_22  and  N4_23 
ROOT
HETATM    1  C1  UNL     1      25.444   1.258  51.985  1.00  0.00     0.104 C 
HETATM    2  S1  UNL     1      26.098   2.515  50.917  1.00  0.00    -0.092 SA
HETATM    3  C2  UNL     1      26.656   3.532  50.042  1.00  0.00    -0.085 C 
ENDROOT
BRANCH   3   4
HETATM    4  C3  UNL     1      27.213   4.497  49.200  1.00  0.00     0.063 C 
HETATM    5  C4  UNL     1      26.392   5.427  48.688  1.00  0.00     0.009 C 
BRANCH   5   6
HETATM    6  C5  UNL     1      24.990   5.390  49.026  1.00  0.00    -0.002 C 
HETATM    7  C6  UNL     1      24.415   6.373  49.699  1.00  0.00    -0.007 C 
BRANCH   7   8
HETATM    8  C7  UNL     1      22.974   6.355  50.057  1.00  0.00     0.157 C 
BRANCH   8   9
HETATM    9  N1  UNL     1      22.746   5.180  50.848  1.00  0.00    -0.337 N 
HETATM   10  C8  UNL     1      23.203   4.947  52.089  1.00  0.00     0.094 A 
HETATM   11  C9  UNL     1      22.734   3.698  52.440  1.00  0.00     0.036 A 
HETATM   12  C10 UNL     1      21.992   3.171  51.414  1.00  0.00     0.059 A 
HETATM   13  C11 UNL     1      21.357   1.959  51.334  1.00  0.00     0.163 A 
HETATM   14  C18 UNL     1      22.024   4.132  50.432  1.00  0.00     0.163 A 
HETATM   15  N3  UNL     1      20.725   1.765  50.139  1.00  0.00    -0.044 NA
HETATM   16  C17 UNL     1      20.744   2.686  49.170  1.00  0.00     0.724 A 
HETATM   17  N5  UNL     1      21.376   3.860  49.289  1.00  0.00    -0.044 NA
BRANCH  13  18
HETATM   18  N2  UNL     1      21.254   0.963  52.333  1.00  0.00    -0.336 N 
HETATM   19  C12 UNL     1      22.238   0.428  53.197  1.00  0.00     0.112 A 
HETATM   20  C13 UNL     1      22.105  -0.548  54.054  1.00  0.00     0.026 A 
HETATM   21 BR1  UNL     1      23.565  -1.131  55.132  1.00  0.00    -0.050 Br
HETATM   22  C14 UNL     1      20.809  -1.167  54.229  1.00  0.00     0.018 A 
HETATM   23  C15 UNL     1      19.844  -0.665  53.483  1.00  0.00    -0.005 A 
HETATM   24  C16 UNL     1      19.891   0.436  52.499  1.00  0.00     0.157 A 
ENDBRANCH  13  18
BRANCH  16  25
HETATM   25  N4  UNL     1      20.030   2.333  47.970  1.00  0.00    -0.231 N 
HETATM   26  H17 UNL     1      19.829   1.341  47.778  1.00  0.00     0.174 HD
HETATM   27  H18 UNL     1      19.840   3.245  47.489  1.00  0.00     0.174 HD
ENDBRANCH  16  25
ENDBRANCH   8   9
ENDBRANCH   7   8
ENDBRANCH   5   6
ENDBRANCH   3   4
TORSDOF 6
ENDMDL
MODEL 9
REMARK VINA RESULT:      -6.5      4.062      8.409
REMARK  6 active torsions:
REMARK  status: ('A' for Active; 'I' for Inactive)
REMARK    1  A    between atoms: C2_3  and  C3_4 
REMARK    2  A    between atoms: C4_5  and  C5_6 
REMARK    3  A    between atoms: C6_7  and  C7_8 
REMARK    4  A    between atoms: C7_8  and  N1_9 
REMARK    5  A    between atoms: C11_13  and  N2_14 
REMARK    6  A    between atoms: C17_22  and  N4_23 
ROOT
HETATM    1  C1  UNL     1      21.557   5.793  51.180  1.00  0.00     0.104 C 
HETATM    2  S1  UNL     1      22.666   4.719  52.057  1.00  0.00    -0.092 SA
HETATM    3  C2  UNL     1      23.592   3.857  52.771  1.00  0.00    -0.085 C 
ENDROOT
BRANCH   3   4
HETATM    4  C3  UNL     1      24.500   3.045  53.454  1.00  0.00     0.063 C 
HETATM    5  C4  UNL     1      25.438   2.414  52.731  1.00  0.00     0.009 C 
BRANCH   5   6
HETATM    6  C5  UNL     1      25.468   2.600  51.301  1.00  0.00    -0.002 C 
HETATM    7  C6  UNL     1      26.519   3.127  50.695  1.00  0.00    -0.007 C 
BRANCH   7   8
HETATM    8  C7  UNL     1      26.571   3.327  49.224  1.00  0.00     0.157 C 
BRANCH   8   9
HETATM    9  N1  UNL     1      26.720   4.735  48.991  1.00  0.00    -0.337 N 
HETATM   10  C8  UNL     1      25.775   5.678  49.138  1.00  0.00     0.094 A 
HETATM   11  C9  UNL     1      26.373   6.874  48.802  1.00  0.00     0.036 A 
HETATM   12  C10 UNL     1      27.681   6.661  48.450  1.00  0.00     0.059 A 
HETATM   13  C11 UNL     1      28.628   7.563  48.039  1.00  0.00     0.163 A 
HETATM   14  C18 UNL     1      27.860   5.305  48.580  1.00  0.00     0.163 A 
HETATM   15  N3  UNL     1      29.830   6.980  47.750  1.00  0.00    -0.044 NA
HETATM   16  C17 UNL     1      30.026   5.663  47.870  1.00  0.00     0.724 A 
HETATM   17  N5  UNL     1      29.072   4.816  48.276  1.00  0.00    -0.044 NA
BRANCH  13  18
HETATM   18  N2  UNL     1      28.506   8.968  47.937  1.00  0.00    -0.336 N 
HETATM   19  C12 UNL     1      28.077   9.774  46.857  1.00  0.00     0.112 A 
HETATM   20  C13 UNL     1      28.054  11.078  46.792  1.00  0.00     0.026 A 
HETATM   21 BR1  UNL     1      27.441  11.984  45.232  1.00  0.00    -0.050 Br
HETATM   22  C14 UNL     1      28.453  11.853  47.946  1.00  0.00     0.018 A 
HETATM   23  C15 UNL     1      28.810  11.145  49.000  1.00  0.00    -0.005 A 
HETATM   24  C16 UNL     1      28.860   9.679  49.175  1.00  0.00     0.157 A 
ENDBRANCH  13  18
BRANCH  16  25
HETATM   25  N4  UNL     1      31.347   5.203  47.529  1.00  0.00    -0.231 N 
HETATM   26  H17 UNL     1      32.146   5.494  48.109  1.00  0.00     0.174 HD
HETATM   27  H18 UNL     1      31.215   4.606  46.676  1.00  0.00     0.174 HD
ENDBRANCH  16  25
ENDBRANCH   8   9
ENDBRANCH   7   8
ENDBRANCH   5   6
ENDBRANCH   3   4
TORSDOF 6
ENDMDL
