MODEL 1
REMARK VINA RESULT:      -9.3      0.000      0.000
REMARK  5 active torsions:
REMARK  status: ('A' for Active; 'I' for Inactive)
REMARK    1  A    between atoms: C2_2  and  C4_4 
REMARK    2  A    between atoms: C9_9  and  C10_10 
REMARK    3  A    between atoms: C13_13  and  O1_14 
REMARK    4  A    between atoms: O1_14  and  C14_15 
REMARK    5  A    between atoms: C14_15  and  O2_17 
ROOT
HETATM    1  C4  UNL     1      26.401   6.985  49.128  1.00  0.00    -0.048 C 
HETATM    2  C5  UNL     1      26.327   8.346  49.758  1.00  0.00     0.049 C 
HETATM    3  C6  UNL     1      25.365   6.194  49.338  1.00  0.00    -0.020 C 
HETATM    4  C7  UNL     1      24.914   4.832  48.989  1.00  0.00     0.069 C 
HETATM    5  C8  UNL     1      24.922   3.868  50.076  1.00  0.00    -0.013 C 
HETATM    6  C9  UNL     1      24.514   3.022  50.967  1.00  0.00    -0.031 C 
HETATM    7  C20 UNL     1      23.095   3.401  50.800  1.00  0.00     0.069 C 
HETATM    8  C21 UNL     1      22.551   3.923  52.124  1.00  0.00     0.004 C 
HETATM    9  C22 UNL     1      22.240   5.195  52.283  1.00  0.00     0.164 C 
HETATM   10  O3  UNL     1      22.345   6.223  51.344  1.00  0.00    -0.250 OA
HETATM   11  N2  UNL     1      23.521   6.995  51.305  1.00  0.00    -0.262 N 
HETATM   12  C23 UNL     1      24.240   6.776  50.106  1.00  0.00     0.058 C 
HETATM   13  C24 UNL     1      23.523   7.451  49.171  1.00  0.00     0.001 C 
HETATM   14  C25 UNL     1      22.258   8.269  49.265  1.00  0.00     0.038 C 
HETATM   15  H32 UNL     1      24.135   7.691  51.780  1.00  0.00     0.195 HD
ENDROOT
BRANCH   6  16
HETATM   16  C10 UNL     1      24.801   2.101  52.040  1.00  0.00     0.043 C 
HETATM   17  C11 UNL     1      25.977   1.799  52.543  1.00  0.00    -0.028 C 
HETATM   18  C12 UNL     1      27.097   2.524  51.892  1.00  0.00     0.048 C 
HETATM   19  C13 UNL     1      26.359   0.857  53.657  1.00  0.00     0.159 C 
HETATM   20  C16 UNL     1      26.005  -0.523  53.119  1.00  0.00     0.066 C 
HETATM   21  C17 UNL     1      24.530  -0.771  53.300  1.00  0.00     0.001 C 
HETATM   22  C18 UNL     1      23.527   0.059  53.016  1.00  0.00     0.002 C 
HETATM   23  C19 UNL     1      22.214  -0.553  53.339  1.00  0.00     0.068 C 
HETATM   24  N1  UNL     1      23.616   1.393  52.452  1.00  0.00    -0.360 N 
HETATM   25  H27 UNL     1      22.641   1.694  52.394  1.00  0.00     0.166 HD
BRANCH  19  26
HETATM   26  O1  UNL     1      27.702   0.968  53.866  1.00  0.00    -0.352 OA
BRANCH  26  27
HETATM   27  C14 UNL     1      28.343  -0.221  54.149  1.00  0.00     0.253 C 
HETATM   28  C15 UNL     1      29.706  -0.300  53.472  1.00  0.00     0.070 C 
BRANCH  27  29
HETATM   29  O2  UNL     1      28.539  -0.484  55.484  1.00  0.00    -0.372 OA
HETATM   30  H20 UNL     1      28.796  -1.444  55.612  1.00  0.00     0.212 HD
ENDBRANCH  27  29
ENDBRANCH  26  27
ENDBRANCH  19  26
ENDBRANCH   6  16
BRANCH   1  31
HETATM   31  C2  UNL     1      27.593   6.649  48.346  1.00  0.00    -0.065 C 
HETATM   32  C1  UNL     1      27.833   7.523  47.345  1.00  0.00     0.019 C 
HETATM   33  C3  UNL     1      28.717   5.720  48.161  1.00  0.00     0.048 C 
ENDBRANCH   1  31
TORSDOF 5
ENDMDL
MODEL 2
REMARK VINA RESULT:      -8.8      2.912      5.741
REMARK  5 active torsions:
REMARK  status: ('A' for Active; 'I' for Inactive)
REMARK    1  A    between atoms: C2_2  and  C4_4 
REMARK    2  A    between atoms: C9_9  and  C10_10 
REMARK    3  A    between atoms: C13_13  and  O1_14 
REMARK    4  A    between atoms: O1_14  and  C14_15 
REMARK    5  A    between atoms: C14_15  and  O2_17 
ROOT
HETATM    1  C4  UNL     1      31.000   7.045  48.348  1.00  0.00    -0.048 C 
HETATM    2  C5  UNL     1      31.776   7.600  49.507  1.00  0.00     0.049 C 
HETATM    3  C6  UNL     1      29.814   7.582  48.136  1.00  0.00    -0.020 C 
HETATM    4  C7  UNL     1      28.678   7.444  47.201  1.00  0.00     0.069 C 
HETATM    5  C8  UNL     1      27.478   6.839  47.753  1.00  0.00    -0.013 C 
HETATM    6  C9  UNL     1      26.258   6.687  48.160  1.00  0.00    -0.031 C 
HETATM    7  C20 UNL     1      25.969   8.135  48.104  1.00  0.00     0.069 C 
HETATM    8  C21 UNL     1      25.582   8.627  49.493  1.00  0.00     0.004 C 
HETATM    9  C22 UNL     1      26.372   9.432  50.179  1.00  0.00     0.164 C 
HETATM   10  O3  UNL     1      27.614   9.940  49.793  1.00  0.00    -0.250 OA
HETATM   11  N2  UNL     1      28.781   9.242  50.157  1.00  0.00    -0.262 N 
HETATM   12  C23 UNL     1      29.434   8.706  49.023  1.00  0.00     0.058 C 
HETATM   13  C24 UNL     1      30.016   9.787  48.445  1.00  0.00     0.001 C 
HETATM   14  C25 UNL     1      30.036  11.248  48.824  1.00  0.00     0.038 C 
HETATM   15  H32 UNL     1      29.416   8.925  50.921  1.00  0.00     0.195 HD
ENDROOT
BRANCH   6  16
HETATM   16  C10 UNL     1      25.227   5.856  48.732  1.00  0.00     0.043 C 
HETATM   17  C11 UNL     1      25.382   4.766  49.451  1.00  0.00    -0.028 C 
HETATM   18  C12 UNL     1      26.806   4.405  49.667  1.00  0.00     0.048 C 
HETATM   19  C13 UNL     1      24.365   3.850  50.083  1.00  0.00     0.159 C 
HETATM   20  C16 UNL     1      23.647   3.214  48.900  1.00  0.00     0.066 C 
HETATM   21  C17 UNL     1      22.597   4.161  48.381  1.00  0.00     0.001 C 
HETATM   22  C18 UNL     1      22.729   5.466  48.138  1.00  0.00     0.002 C 
HETATM   23  C19 UNL     1      21.462   6.050  47.634  1.00  0.00     0.068 C 
HETATM   24  N1  UNL     1      23.918   6.280  48.305  1.00  0.00    -0.360 N 
HETATM   25  H27 UNL     1      23.610   7.212  48.023  1.00  0.00     0.166 HD
BRANCH  19  26
HETATM   26  O1  UNL     1      25.033   2.910  50.810  1.00  0.00    -0.352 OA
BRANCH  26  27
HETATM   27  C14 UNL     1      24.580   2.747  52.103  1.00  0.00     0.253 C 
HETATM   28  C15 UNL     1      23.963   1.370  52.314  1.00  0.00     0.070 C 
BRANCH  27  29
HETATM   29  O2  UNL     1      25.523   2.924  53.087  1.00  0.00    -0.372 OA
HETATM   30  H20 UNL     1      25.685   2.061  53.570  1.00  0.00     0.212 HD
ENDBRANCH  27  29
ENDBRANCH  26  27
ENDBRANCH  19  26
ENDBRANCH   6  16
BRANCH   1  31
HETATM   31  C2  UNL     1      31.609   5.970  47.560  1.00  0.00    -0.065 C 
HETATM   32  C1  UNL     1      32.326   6.425  46.509  1.00  0.00     0.019 C 
HETATM   33  C3  UNL     1      31.798   4.521  47.401  1.00  0.00     0.048 C 
ENDBRANCH   1  31
TORSDOF 5
ENDMDL
MODEL 3
REMARK VINA RESULT:      -8.6      2.475      7.564
REMARK  5 active torsions:
REMARK  status: ('A' for Active; 'I' for Inactive)
REMARK    1  A    between atoms: C2_2  and  C4_4 
REMARK    2  A    between atoms: C9_9  and  C10_10 
REMARK    3  A    between atoms: C13_13  and  O1_14 
REMARK    4  A    between atoms: O1_14  and  C14_15 
REMARK    5  A    between atoms: C14_15  and  O2_17 
ROOT
HETATM    1  C4  UNL     1      26.758  -0.276  53.266  1.00  0.00    -0.048 C 
HETATM    2  C5  UNL     1      26.451  -1.722  53.008  1.00  0.00     0.049 C 
HETATM    3  C6  UNL     1      25.715   0.524  53.387  1.00  0.00    -0.020 C 
HETATM    4  C7  UNL     1      25.428   1.952  53.629  1.00  0.00     0.069 C 
HETATM    5  C8  UNL     1      24.924   2.697  52.487  1.00  0.00    -0.013 C 
HETATM    6  C9  UNL     1      24.139   3.386  51.723  1.00  0.00    -0.031 C 
HETATM    7  C20 UNL     1      22.954   3.131  52.569  1.00  0.00     0.069 C 
HETATM    8  C21 UNL     1      21.893   2.408  51.748  1.00  0.00     0.004 C 
HETATM    9  C22 UNL     1      21.580   1.149  51.992  1.00  0.00     0.164 C 
HETATM   10  O3  UNL     1      22.120   0.308  52.966  1.00  0.00    -0.250 OA
HETATM   11  N2  UNL     1      23.213  -0.513  52.630  1.00  0.00    -0.262 N 
HETATM   12  C23 UNL     1      24.383  -0.121  53.321  1.00  0.00     0.058 C 
HETATM   13  C24 UNL     1      24.175  -0.566  54.587  1.00  0.00     0.001 C 
HETATM   14  C25 UNL     1      23.025  -1.310  55.220  1.00  0.00     0.038 C 
HETATM   15  H32 UNL     1      23.571  -1.320  52.077  1.00  0.00     0.195 HD
ENDROOT
BRANCH   6  16
HETATM   16  C10 UNL     1      23.893   4.074  50.479  1.00  0.00     0.043 C 
HETATM   17  C11 UNL     1      23.820   5.371  50.281  1.00  0.00    -0.028 C 
HETATM   18  C12 UNL     1      24.025   6.164  51.519  1.00  0.00     0.048 C 
HETATM   19  C13 UNL     1      23.572   6.163  49.022  1.00  0.00     0.159 C 
HETATM   20  C16 UNL     1      22.140   5.815  48.636  1.00  0.00     0.066 C 
HETATM   21  C17 UNL     1      22.121   4.494  47.911  1.00  0.00     0.001 C 
HETATM   22  C18 UNL     1      22.746   3.369  48.258  1.00  0.00     0.002 C 
HETATM   23  C19 UNL     1      22.480   2.283  47.282  1.00  0.00     0.068 C 
HETATM   24  N1  UNL     1      23.583   3.145  49.422  1.00  0.00    -0.360 N 
HETATM   25  H27 UNL     1      23.873   2.170  49.324  1.00  0.00     0.166 HD
BRANCH  19  26
HETATM   26  O1  UNL     1      23.686   7.487  49.323  1.00  0.00    -0.352 OA
BRANCH  26  27
HETATM   27  C14 UNL     1      24.386   8.233  48.397  1.00  0.00     0.253 C 
HETATM   28  C15 UNL     1      25.497   7.420  47.743  1.00  0.00     0.070 C 
BRANCH  27  29
HETATM   29  O2  UNL     1      23.631   8.776  47.383  1.00  0.00    -0.372 OA
HETATM   30  H20 UNL     1      22.664   8.798  47.646  1.00  0.00     0.212 HD
ENDBRANCH  27  29
ENDBRANCH  26  27
ENDBRANCH  19  26
ENDBRANCH   6  16
BRANCH   1  31
HETATM   31  C2  UNL     1      28.163   0.126  53.361  1.00  0.00    -0.065 C 
HETATM   32  C1  UNL     1      29.016  -0.921  53.335  1.00  0.00     0.019 C 
HETATM   33  C3  UNL     1      29.116   1.240  53.477  1.00  0.00     0.048 C 
ENDBRANCH   1  31
TORSDOF 5
ENDMDL
MODEL 4
REMARK VINA RESULT:      -8.5      3.300      7.855
REMARK  5 active torsions:
REMARK  status: ('A' for Active; 'I' for Inactive)
REMARK    1  A    between atoms: C2_2  and  C4_4 
REMARK    2  A    between atoms: C9_9  and  C10_10 
REMARK    3  A    between atoms: C13_13  and  O1_14 
REMARK    4  A    between atoms: O1_14  and  C14_15 
REMARK    5  A    between atoms: C14_15  and  O2_17 
ROOT
HETATM    1  C4  UNL     1      25.814   0.348  52.914  1.00  0.00    -0.048 C 
HETATM    2  C5  UNL     1      25.750  -1.122  52.617  1.00  0.00     0.049 C 
HETATM    3  C6  UNL     1      24.654   0.957  53.076  1.00  0.00    -0.020 C 
HETATM    4  C7  UNL     1      24.135   2.308  53.366  1.00  0.00     0.069 C 
HETATM    5  C8  UNL     1      23.489   2.987  52.255  1.00  0.00    -0.013 C 
HETATM    6  C9  UNL     1      22.583   3.554  51.525  1.00  0.00    -0.031 C 
HETATM    7  C20 UNL     1      21.476   3.080  52.381  1.00  0.00     0.069 C 
HETATM    8  C21 UNL     1      20.535   2.210  51.556  1.00  0.00     0.004 C 
HETATM    9  C22 UNL     1      20.444   0.910  51.766  1.00  0.00     0.164 C 
HETATM   10  O3  UNL     1      21.139   0.147  52.706  1.00  0.00    -0.250 OA
HETATM   11  N2  UNL     1      22.347  -0.468  52.328  1.00  0.00    -0.262 N 
HETATM   12  C23 UNL     1      23.448   0.098  53.012  1.00  0.00     0.058 C 
HETATM   13  C24 UNL     1      23.345  -0.411  54.267  1.00  0.00     0.001 C 
HETATM   14  C25 UNL     1      22.350  -1.355  54.895  1.00  0.00     0.038 C 
HETATM   15  H32 UNL     1      22.825  -1.188  51.745  1.00  0.00     0.195 HD
ENDROOT
BRANCH   6  16
HETATM   16  C10 UNL     1      22.199   4.224  50.306  1.00  0.00     0.043 C 
HETATM   17  C11 UNL     1      22.382   3.809  49.072  1.00  0.00    -0.028 C 
HETATM   18  C12 UNL     1      23.063   2.493  48.992  1.00  0.00     0.048 C 
HETATM   19  C13 UNL     1      22.010   4.443  47.756  1.00  0.00     0.159 C 
HETATM   20  C16 UNL     1      22.879   5.693  47.683  1.00  0.00     0.066 C 
HETATM   21  C17 UNL     1      22.243   6.795  48.489  1.00  0.00     0.001 C 
HETATM   22  C18 UNL     1      21.733   6.710  49.718  1.00  0.00     0.002 C 
HETATM   23  C19 UNL     1      21.197   8.019  50.169  1.00  0.00     0.068 C 
HETATM   24  N1  UNL     1      21.680   5.541  50.576  1.00  0.00    -0.360 N 
HETATM   25  H27 UNL     1      21.215   5.883  51.418  1.00  0.00     0.166 HD
BRANCH  19  26
HETATM   26  O1  UNL     1      22.330   3.570  46.758  1.00  0.00    -0.352 OA
BRANCH  26  27
HETATM   27  C14 UNL     1      21.426   3.526  45.717  1.00  0.00     0.253 C 
HETATM   28  C15 UNL     1      20.046   4.008  46.149  1.00  0.00     0.070 C 
BRANCH  27  29
HETATM   29  O2  UNL     1      21.774   4.246  44.599  1.00  0.00    -0.372 OA
HETATM   30  H20 UNL     1      21.506   5.206  44.709  1.00  0.00     0.212 HD
ENDBRANCH  27  29
ENDBRANCH  26  27
ENDBRANCH  19  26
ENDBRANCH   6  16
BRANCH   1  31
HETATM   31  C2  UNL     1      27.133   0.979  52.998  1.00  0.00    -0.065 C 
HETATM   32  C1  UNL     1      28.139   0.088  53.134  1.00  0.00     0.019 C 
HETATM   33  C3  UNL     1      27.894   2.238  52.998  1.00  0.00     0.048 C 
ENDBRANCH   1  31
TORSDOF 5
ENDMDL
MODEL 5
REMARK VINA RESULT:      -8.4      2.702      3.967
REMARK  5 active torsions:
REMARK  status: ('A' for Active; 'I' for Inactive)
REMARK    1  A    between atoms: C2_2  and  C4_4 
REMARK    2  A    between atoms: C9_9  and  C10_10 
REMARK    3  A    between atoms: C13_13  and  O1_14 
REMARK    4  A    between atoms: O1_14  and  C14_15 
REMARK    5  A    between atoms: C14_15  and  O2_17 
ROOT
HETATM    1  C4  UNL     1      20.943   7.081  48.848  1.00  0.00    -0.048 C 
HETATM    2  C5  UNL     1      19.466   7.152  49.105  1.00  0.00     0.049 C 
HETATM    3  C6  UNL     1      21.416   5.893  48.522  1.00  0.00    -0.020 C 
HETATM    4  C7  UNL     1      22.707   5.262  48.180  1.00  0.00     0.069 C 
HETATM    5  C8  UNL     1      23.266   4.380  49.191  1.00  0.00    -0.013 C 
HETATM    6  C9  UNL     1      23.696   3.313  49.784  1.00  0.00    -0.031 C 
HETATM    7  C20 UNL     1      23.125   2.412  48.761  1.00  0.00     0.069 C 
HETATM    8  C21 UNL     1      22.122   1.472  49.417  1.00  0.00     0.004 C 
HETATM    9  C22 UNL     1      20.830   1.572  49.173  1.00  0.00     0.164 C 
HETATM   10  O3  UNL     1      20.187   2.486  48.337  1.00  0.00    -0.250 OA
HETATM   11  N2  UNL     1      19.705   3.690  48.884  1.00  0.00    -0.262 N 
HETATM   12  C23 UNL     1      20.420   4.804  48.386  1.00  0.00     0.058 C 
HETATM   13  C24 UNL     1      19.948   4.952  47.121  1.00  0.00     0.001 C 
HETATM   14  C25 UNL     1      18.917   4.184  46.332  1.00  0.00     0.038 C 
HETATM   15  H32 UNL     1      19.025   4.159  49.520  1.00  0.00     0.195 HD
ENDROOT
BRANCH   6  16
HETATM   16  C10 UNL     1      24.272   2.673  50.942  1.00  0.00     0.043 C 
HETATM   17  C11 UNL     1      25.542   2.426  51.172  1.00  0.00    -0.028 C 
HETATM   18  C12 UNL     1      26.435   2.885  50.079  1.00  0.00     0.048 C 
HETATM   19  C13 UNL     1      26.220   1.770  52.348  1.00  0.00     0.159 C 
HETATM   20  C16 UNL     1      25.735   0.326  52.303  1.00  0.00     0.066 C 
HETATM   21  C17 UNL     1      24.369   0.235  52.931  1.00  0.00     0.001 C 
HETATM   22  C18 UNL     1      23.323   1.035  52.720  1.00  0.00     0.002 C 
HETATM   23  C19 UNL     1      22.153   0.616  53.531  1.00  0.00     0.068 C 
HETATM   24  N1  UNL     1      23.249   2.175  51.826  1.00  0.00    -0.360 N 
HETATM   25  H27 UNL     1      22.295   2.518  51.955  1.00  0.00     0.166 HD
BRANCH  19  26
HETATM   26  O1  UNL     1      27.568   1.836  52.153  1.00  0.00    -0.352 OA
BRANCH  26  27
HETATM   27  C14 UNL     1      28.300   2.158  53.277  1.00  0.00     0.253 C 
HETATM   28  C15 UNL     1      28.911   0.922  53.924  1.00  0.00     0.070 C 
BRANCH  27  29
HETATM   29  O2  UNL     1      29.320   3.059  53.081  1.00  0.00    -0.372 OA
HETATM   30  H20 UNL     1      29.958   2.712  52.389  1.00  0.00     0.212 HD
ENDBRANCH  27  29
ENDBRANCH  26  27
ENDBRANCH  19  26
ENDBRANCH   6  16
BRANCH   1  31
HETATM   31  C2  UNL     1      21.727   8.311  48.977  1.00  0.00    -0.065 C 
HETATM   32  C1  UNL     1      21.005   9.427  48.735  1.00  0.00     0.019 C 
HETATM   33  C3  UNL     1      23.039   8.905  49.275  1.00  0.00     0.048 C 
ENDBRANCH   1  31
TORSDOF 5
ENDMDL
MODEL 6
REMARK VINA RESULT:      -8.3      3.463      8.926
REMARK  5 active torsions:
REMARK  status: ('A' for Active; 'I' for Inactive)
REMARK    1  A    between atoms: C2_2  and  C4_4 
REMARK    2  A    between atoms: C9_9  and  C10_10 
REMARK    3  A    between atoms: C13_13  and  O1_14 
REMARK    4  A    between atoms: O1_14  and  C14_15 
REMARK    5  A    between atoms: C14_15  and  O2_17 
ROOT
HETATM    1  C4  UNL     1      20.373  -0.020  53.242  1.00  0.00    -0.048 C 
HETATM    2  C5  UNL     1      20.777   0.331  54.645  1.00  0.00     0.049 C 
HETATM    3  C6  UNL     1      21.252   0.264  52.299  1.00  0.00    -0.020 C 
HETATM    4  C7  UNL     1      21.389   0.151  50.833  1.00  0.00     0.069 C 
HETATM    5  C8  UNL     1      21.312   1.401  50.095  1.00  0.00    -0.013 C 
HETATM    6  C9  UNL     1      21.642   2.406  49.350  1.00  0.00    -0.031 C 
HETATM    7  C20 UNL     1      23.081   2.069  49.386  1.00  0.00     0.069 C 
HETATM    8  C21 UNL     1      23.856   3.227  50.002  1.00  0.00     0.004 C 
HETATM    9  C22 UNL     1      24.424   3.117  51.188  1.00  0.00     0.164 C 
HETATM   10  O3  UNL     1      24.419   2.008  52.037  1.00  0.00    -0.250 OA
HETATM   11  N2  UNL     1      23.419   1.906  53.021  1.00  0.00    -0.262 N 
HETATM   12  C23 UNL     1      22.545   0.825  52.755  1.00  0.00     0.058 C 
HETATM   13  C24 UNL     1      23.274  -0.270  53.091  1.00  0.00     0.001 C 
HETATM   14  C25 UNL     1      24.676  -0.424  53.628  1.00  0.00     0.038 C 
HETATM   15  H32 UNL     1      23.007   2.281  53.901  1.00  0.00     0.195 HD
ENDROOT
BRANCH   6  16
HETATM   16  C10 UNL     1      21.300   3.653  48.710  1.00  0.00     0.043 C 
HETATM   17  C11 UNL     1      20.708   4.695  49.250  1.00  0.00    -0.028 C 
HETATM   18  C12 UNL     1      20.384   4.505  50.686  1.00  0.00     0.048 C 
HETATM   19  C13 UNL     1      20.320   6.025  48.655  1.00  0.00     0.159 C 
HETATM   20  C16 UNL     1      19.240   5.680  47.637  1.00  0.00     0.066 C 
HETATM   21  C17 UNL     1      19.885   5.202  46.362  1.00  0.00     0.001 C 
HETATM   22  C18 UNL     1      20.877   4.320  46.235  1.00  0.00     0.002 C 
HETATM   23  C19 UNL     1      21.235   4.114  44.810  1.00  0.00     0.068 C 
HETATM   24  N1  UNL     1      21.562   3.602  47.293  1.00  0.00    -0.360 N 
HETATM   25  H27 UNL     1      22.250   3.037  46.792  1.00  0.00     0.166 HD
BRANCH  19  26
HETATM   26  O1  UNL     1      19.816   6.806  49.652  1.00  0.00    -0.352 OA
BRANCH  26  27
HETATM   27  C14 UNL     1      20.561   7.932  49.937  1.00  0.00     0.253 C 
HETATM   28  C15 UNL     1      19.679   9.165  50.096  1.00  0.00     0.070 C 
BRANCH  27  29
HETATM   29  O2  UNL     1      21.350   7.851  51.060  1.00  0.00    -0.372 OA
HETATM   30  H20 UNL     1      20.841   7.423  51.810  1.00  0.00     0.212 HD
ENDBRANCH  27  29
ENDBRANCH  26  27
ENDBRANCH  19  26
ENDBRANCH   6  16
BRANCH   1  31
HETATM   31  C2  UNL     1      19.061  -0.636  53.036  1.00  0.00    -0.065 C 
HETATM   32  C1  UNL     1      18.310   0.012  52.119  1.00  0.00     0.019 C 
HETATM   33  C3  UNL     1      18.142  -1.721  53.410  1.00  0.00     0.048 C 
ENDBRANCH   1  31
TORSDOF 5
ENDMDL
MODEL 7
REMARK VINA RESULT:      -8.2      2.512      7.773
REMARK  5 active torsions:
REMARK  status: ('A' for Active; 'I' for Inactive)
REMARK    1  A    between atoms: C2_2  and  C4_4 
REMARK    2  A    between atoms: C9_9  and  C10_10 
REMARK    3  A    between atoms: C13_13  and  O1_14 
REMARK    4  A    between atoms: O1_14  and  C14_15 
REMARK    5  A    between atoms: C14_15  and  O2_17 
ROOT
HETATM    1  C4  UNL     1      20.910   2.951  50.919  1.00  0.00    -0.048 C 
HETATM    2  C5  UNL     1      20.480   2.854  52.354  1.00  0.00     0.049 C 
HETATM    3  C6  UNL     1      22.151   2.585  50.661  1.00  0.00    -0.020 C 
HETATM    4  C7  UNL     1      23.065   2.477  49.506  1.00  0.00     0.069 C 
HETATM    5  C8  UNL     1      24.135   3.459  49.455  1.00  0.00    -0.013 C 
HETATM    6  C9  UNL     1      25.319   3.982  49.455  1.00  0.00    -0.031 C 
HETATM    7  C20 UNL     1      25.962   2.736  49.922  1.00  0.00     0.069 C 
HETATM    8  C21 UNL     1      26.660   2.995  51.252  1.00  0.00     0.004 C 
HETATM    9  C22 UNL     1      26.212   2.465  52.374  1.00  0.00     0.164 C 
HETATM   10  O3  UNL     1      25.102   1.635  52.543  1.00  0.00    -0.250 OA
HETATM   11  N2  UNL     1      23.860   2.214  52.865  1.00  0.00    -0.262 N 
HETATM   12  C23 UNL     1      22.933   2.063  51.807  1.00  0.00     0.058 C 
HETATM   13  C24 UNL     1      22.573   0.756  51.877  1.00  0.00     0.001 C 
HETATM   14  C25 UNL     1      22.987  -0.357  52.809  1.00  0.00     0.038 C 
HETATM   15  H32 UNL     1      23.282   2.728  53.563  1.00  0.00     0.195 HD
ENDROOT
BRANCH   6  16
HETATM   16  C10 UNL     1      26.172   5.142  49.371  1.00  0.00     0.043 C 
HETATM   17  C11 UNL     1      25.819   6.405  49.465  1.00  0.00    -0.028 C 
HETATM   18  C12 UNL     1      24.363   6.591  49.685  1.00  0.00     0.048 C 
HETATM   19  C13 UNL     1      26.642   7.666  49.392  1.00  0.00     0.159 C 
HETATM   20  C16 UNL     1      27.148   7.701  47.955  1.00  0.00     0.066 C 
HETATM   21  C17 UNL     1      28.353   6.805  47.825  1.00  0.00     0.001 C 
HETATM   22  C18 UNL     1      28.495   5.564  48.289  1.00  0.00     0.002 C 
HETATM   23  C19 UNL     1      29.833   5.015  47.957  1.00  0.00     0.068 C 
HETATM   24  N1  UNL     1      27.520   4.775  49.019  1.00  0.00    -0.360 N 
HETATM   25  H27 UNL     1      28.008   3.896  49.197  1.00  0.00     0.166 HD
BRANCH  19  26
HETATM   26  O1  UNL     1      25.822   8.725  49.644  1.00  0.00    -0.352 OA
BRANCH  26  27
HETATM   27  C14 UNL     1      25.875   9.734  48.704  1.00  0.00     0.253 C 
HETATM   28  C15 UNL     1      24.501  10.021  48.109  1.00  0.00     0.070 C 
BRANCH  27  29
HETATM   29  O2  UNL     1      26.382  10.932  49.149  1.00  0.00    -0.372 OA
HETATM   30  H20 UNL     1      27.284  10.793  49.563  1.00  0.00     0.212 HD
ENDBRANCH  27  29
ENDBRANCH  26  27
ENDBRANCH  19  26
ENDBRANCH   6  16
BRANCH   1  31
HETATM   31  C2  UNL     1      19.936   3.435  49.938  1.00  0.00    -0.065 C 
HETATM   32  C1  UNL     1      20.119   4.731  49.607  1.00  0.00     0.019 C 
HETATM   33  C3  UNL     1      18.773   3.109  49.099  1.00  0.00     0.048 C 
ENDBRANCH   1  31
TORSDOF 5
ENDMDL
MODEL 8
REMARK VINA RESULT:      -7.9      4.012      7.852
REMARK  5 active torsions:
REMARK  status: ('A' for Active; 'I' for Inactive)
REMARK    1  A    between atoms: C2_2  and  C4_4 
REMARK    2  A    between atoms: C9_9  and  C10_10 
REMARK    3  A    between atoms: C13_13  and  O1_14 
REMARK    4  A    between atoms: O1_14  and  C14_15 
REMARK    5  A    between atoms: C14_15  and  O2_17 
ROOT
HETATM    1  C4  UNL     1      32.773   5.274  47.666  1.00  0.00    -0.048 C 
HETATM    2  C5  UNL     1      33.815   5.504  48.722  1.00  0.00     0.049 C 
HETATM    3  C6  UNL     1      31.958   6.284  47.428  1.00  0.00    -0.020 C 
HETATM    4  C7  UNL     1      30.812   6.611  46.555  1.00  0.00     0.069 C 
HETATM    5  C8  UNL     1      29.521   6.698  47.216  1.00  0.00    -0.013 C 
HETATM    6  C9  UNL     1      28.411   7.177  47.679  1.00  0.00    -0.031 C 
HETATM    7  C20 UNL     1      28.823   8.578  47.454  1.00  0.00     0.069 C 
HETATM    8  C21 UNL     1      28.831   9.322  48.784  1.00  0.00     0.004 C 
HETATM    9  C22 UNL     1      29.960   9.719  49.339  1.00  0.00     0.164 C 
HETATM   10  O3  UNL     1      31.258   9.544  48.854  1.00  0.00    -0.250 OA
HETATM   11  N2  UNL     1      31.993   8.416  49.263  1.00  0.00    -0.262 N 
HETATM   12  C23 UNL     1      32.222   7.532  48.182  1.00  0.00     0.058 C 
HETATM   13  C24 UNL     1      33.187   8.152  47.456  1.00  0.00     0.001 C 
HETATM   14  C25 UNL     1      33.916   9.460  47.652  1.00  0.00     0.038 C 
HETATM   15  H32 UNL     1      32.472   7.910  50.038  1.00  0.00     0.195 HD
ENDROOT
BRANCH   6  16
HETATM   16  C10 UNL     1      27.166   6.987  48.382  1.00  0.00     0.043 C 
HETATM   17  C11 UNL     1      26.720   5.883  48.940  1.00  0.00    -0.028 C 
HETATM   18  C12 UNL     1      27.653   4.738  48.797  1.00  0.00     0.048 C 
HETATM   19  C13 UNL     1      25.442   5.605  49.690  1.00  0.00     0.159 C 
HETATM   20  C16 UNL     1      24.349   5.760  48.639  1.00  0.00     0.066 C 
HETATM   21  C17 UNL     1      24.027   7.221  48.460  1.00  0.00     0.001 C 
HETATM   22  C18 UNL     1      24.886   8.231  48.323  1.00  0.00     0.002 C 
HETATM   23  C19 UNL     1      24.175   9.525  48.171  1.00  0.00     0.068 C 
HETATM   24  N1  UNL     1      26.335   8.162  48.299  1.00  0.00    -0.360 N 
HETATM   25  H27 UNL     1      26.619   9.137  48.184  1.00  0.00     0.166 HD
BRANCH  19  26
HETATM   26  O1  UNL     1      25.491   4.325  50.155  1.00  0.00    -0.352 OA
BRANCH  26  27
HETATM   27  C14 UNL     1      24.432   3.961  50.960  1.00  0.00     0.253 C 
HETATM   28  C15 UNL     1      23.925   2.563  50.625  1.00  0.00     0.070 C 
BRANCH  27  29
HETATM   29  O2  UNL     1      24.679   3.988  52.312  1.00  0.00    -0.372 OA
HETATM   30  H20 UNL     1      23.852   4.261  52.809  1.00  0.00     0.212 HD
ENDBRANCH  27  29
ENDBRANCH  26  27
ENDBRANCH  19  26
ENDBRANCH   6  16
BRANCH   1  31
HETATM   31  C2  UNL     1      32.743   3.971  46.997  1.00  0.00    -0.065 C 
HETATM   32  C1  UNL     1      33.973   3.506  46.688  1.00  0.00     0.019 C 
HETATM   33  C3  UNL     1      31.909   2.875  46.482  1.00  0.00     0.048 C 
ENDBRANCH   1  31
TORSDOF 5
ENDMDL
MODEL 9
REMARK VINA RESULT:      -7.9      3.388      9.109
REMARK  5 active torsions:
REMARK  status: ('A' for Active; 'I' for Inactive)
REMARK    1  A    between atoms: C2_2  and  C4_4 
REMARK    2  A    between atoms: C9_9  and  C10_10 
REMARK    3  A    between atoms: C13_13  and  O1_14 
REMARK    4  A    between atoms: O1_14  and  C14_15 
REMARK    5  A    between atoms: C14_15  and  O2_17 
ROOT
HETATM    1  C4  UNL     1      20.221   0.271  52.740  1.00  0.00    -0.048 C 
HETATM    2  C5  UNL     1      20.521   0.506  54.192  1.00  0.00     0.049 C 
HETATM    3  C6  UNL     1      21.195   0.556  51.895  1.00  0.00    -0.020 C 
HETATM    4  C7  UNL     1      21.453   0.528  50.441  1.00  0.00     0.069 C 
HETATM    5  C8  UNL     1      21.516   1.824  49.787  1.00  0.00    -0.013 C 
HETATM    6  C9  UNL     1      21.970   2.850  49.142  1.00  0.00    -0.031 C 
HETATM    7  C20 UNL     1      23.377   2.419  49.276  1.00  0.00     0.069 C 
HETATM    8  C21 UNL     1      24.163   3.482  50.033  1.00  0.00     0.004 C 
HETATM    9  C22 UNL     1      24.617   3.260  51.251  1.00  0.00     0.164 C 
HETATM   10  O3  UNL     1      24.472   2.103  52.019  1.00  0.00    -0.250 OA
HETATM   11  N2  UNL     1      23.384   2.004  52.906  1.00  0.00    -0.262 N 
HETATM   12  C23 UNL     1      22.475   1.002  52.495  1.00  0.00     0.058 C 
HETATM   13  C24 UNL     1      23.105  -0.157  52.815  1.00  0.00     0.001 C 
HETATM   14  C25 UNL     1      24.442  -0.437  53.455  1.00  0.00     0.038 C 
HETATM   15  H32 UNL     1      22.920   2.349  53.773  1.00  0.00     0.195 HD
ENDROOT
BRANCH   6  16
HETATM   16  C10 UNL     1      21.760   4.154  48.563  1.00  0.00     0.043 C 
HETATM   17  C11 UNL     1      21.778   4.478  47.289  1.00  0.00    -0.028 C 
HETATM   18  C12 UNL     1      22.049   3.324  46.396  1.00  0.00     0.048 C 
HETATM   19  C13 UNL     1      21.567   5.806  46.607  1.00  0.00     0.159 C 
HETATM   20  C16 UNL     1      22.756   6.649  47.051  1.00  0.00     0.066 C 
HETATM   21  C17 UNL     1      22.488   7.214  48.422  1.00  0.00     0.001 C 
HETATM   22  C18 UNL     1      22.012   6.569  49.487  1.00  0.00     0.002 C 
HETATM   23  C19 UNL     1      21.888   7.476  50.654  1.00  0.00     0.068 C 
HETATM   24  N1  UNL     1      21.650   5.167  49.583  1.00  0.00    -0.360 N 
HETATM   25  H27 UNL     1      21.328   5.069  50.547  1.00  0.00     0.166 HD
BRANCH  19  26
HETATM   26  O1  UNL     1      21.592   5.601  45.260  1.00  0.00    -0.352 OA
BRANCH  26  27
HETATM   27  C14 UNL     1      20.796   6.460  44.529  1.00  0.00     0.253 C 
HETATM   28  C15 UNL     1      21.556   7.070  43.357  1.00  0.00     0.070 C 
BRANCH  27  29
HETATM   29  O2  UNL     1      19.642   5.911  44.022  1.00  0.00    -0.372 OA
HETATM   30  H20 UNL     1      18.866   6.130  44.617  1.00  0.00     0.212 HD
ENDBRANCH  27  29
ENDBRANCH  26  27
ENDBRANCH  19  26
ENDBRANCH   6  16
BRANCH   1  31
HETATM   31  C2  UNL     1      18.898  -0.244  52.382  1.00  0.00    -0.065 C 
HETATM   32  C1  UNL     1      18.443  -1.179  53.244  1.00  0.00     0.019 C 
HETATM   33  C3  UNL     1      17.773  -0.186  51.438  1.00  0.00     0.048 C 
ENDBRANCH   1  31
TORSDOF 5
ENDMDL
