MODEL 1
REMARK VINA RESULT:      -8.4      0.000      0.000
REMARK  1 active torsions:
REMARK  status: ('A' for Active; 'I' for Inactive)
REMARK    1  A    between atoms: S1_1  and  C1_2 
ROOT
HETATM    1  C1  UNL     1      22.310   1.558  49.823  1.00  0.00     0.082 C 
HETATM    2  C2  UNL     1      21.086   0.974  50.512  1.00  0.00     0.020 C 
HETATM    3  C3  UNL     1      21.381   0.448  51.887  1.00  0.00     0.005 C 
HETATM    4  C4  UNL     1      20.145  -0.033  52.608  1.00  0.00     0.027 C 
HETATM    5  C5  UNL     1      20.433  -0.684  53.904  1.00  0.00    -0.030 C 
HETATM    6  C6  UNL     1      21.492  -1.011  54.616  1.00  0.00    -0.021 C 
HETATM    7  C7  UNL     1      22.862  -1.174  55.035  1.00  0.00     0.041 C 
HETATM    8  C8  UNL     1      24.163  -1.114  54.998  1.00  0.00    -0.018 C 
HETATM    9  C9  UNL     1      25.340  -0.714  54.273  1.00  0.00    -0.007 C 
HETATM   10  C10 UNL     1      25.660  -0.135  53.147  1.00  0.00    -0.027 C 
HETATM   11  C11 UNL     1      26.838   0.286  52.378  1.00  0.00     0.029 C 
HETATM   12  C12 UNL     1      26.987   1.724  52.097  1.00  0.00     0.023 C 
HETATM   13  C13 UNL     1      25.888   2.418  51.370  1.00  0.00     0.121 C 
HETATM   14  N1  UNL     1      24.665   2.435  52.104  1.00  0.00    -0.374 N 
HETATM   15  C14 UNL     1      23.670   3.194  51.377  1.00  0.00     0.133 A 
HETATM   16  N2  UNL     1      23.812   4.464  51.771  1.00  0.00    -0.224 NA
HETATM   17  C15 UNL     1      23.078   5.501  51.339  1.00  0.00     0.234 A 
HETATM   18  N3  UNL     1      22.121   5.227  50.436  1.00  0.00    -0.253 NA
HETATM   19  C16 UNL     1      21.971   3.928  50.030  1.00  0.00     0.130 A 
HETATM   20  C17 UNL     1      22.712   2.842  50.454  1.00  0.00     0.019 A 
HETATM   21  H21 UNL     1      24.073   2.187  52.926  1.00  0.00     0.161 HD
ENDROOT
BRANCH   1  22
HETATM   22  S1  UNL     1      21.811   1.930  48.113  1.00  0.00    -0.172 SA
HETATM   23  H1  UNL     1      22.933   2.478  47.464  1.00  0.00     0.102 HD
ENDBRANCH   1  22
TORSDOF 1
ENDMDL
MODEL 2
REMARK VINA RESULT:      -8.0      1.122      1.734
REMARK  1 active torsions:
REMARK  status: ('A' for Active; 'I' for Inactive)
REMARK    1  A    between atoms: S1_1  and  C1_2 
ROOT
HETATM    1  C1  UNL     1      22.159   1.985  49.329  1.00  0.00     0.082 C 
HETATM    2  C2  UNL     1      20.725   1.485  49.403  1.00  0.00     0.020 C 
HETATM    3  C3  UNL     1      20.390   0.854  50.723  1.00  0.00     0.005 C 
HETATM    4  C4  UNL     1      18.938   0.455  50.831  1.00  0.00     0.027 C 
HETATM    5  C5  UNL     1      18.621  -0.295  52.065  1.00  0.00    -0.030 C 
HETATM    6  C6  UNL     1      19.268  -0.765  53.113  1.00  0.00    -0.021 C 
HETATM    7  C7  UNL     1      20.328  -1.086  54.035  1.00  0.00     0.041 C 
HETATM    8  C8  UNL     1      21.529  -1.152  54.537  1.00  0.00    -0.018 C 
HETATM    9  C9  UNL     1      22.924  -0.827  54.394  1.00  0.00    -0.007 C 
HETATM   10  C10 UNL     1      23.718  -0.218  53.555  1.00  0.00    -0.027 C 
HETATM   11  C11 UNL     1      25.133   0.130  53.374  1.00  0.00     0.029 C 
HETATM   12  C12 UNL     1      25.479   1.560  53.313  1.00  0.00     0.023 C 
HETATM   13  C13 UNL     1      24.827   2.399  52.270  1.00  0.00     0.121 C 
HETATM   14  N1  UNL     1      23.413   2.494  52.442  1.00  0.00    -0.374 N 
HETATM   15  C14 UNL     1      22.859   3.387  51.447  1.00  0.00     0.133 A 
HETATM   16  N2  UNL     1      22.909   4.612  51.982  1.00  0.00    -0.224 NA
HETATM   17  C15 UNL     1      22.488   5.740  51.387  1.00  0.00     0.234 A 
HETATM   18  N3  UNL     1      21.975   5.613  50.151  1.00  0.00    -0.253 NA
HETATM   19  C16 UNL     1      21.921   4.362  49.600  1.00  0.00     0.130 A 
HETATM   20  C17 UNL     1      22.347   3.185  50.186  1.00  0.00     0.019 A 
HETATM   21  H21 UNL     1      22.519   2.257  52.925  1.00  0.00     0.161 HD
ENDROOT
BRANCH   1  22
HETATM   22  S1  UNL     1      22.437   2.504  47.607  1.00  0.00    -0.172 SA
HETATM   23  H1  UNL     1      23.621   1.880  47.172  1.00  0.00     0.102 HD
ENDBRANCH   1  22
TORSDOF 1
ENDMDL
MODEL 3
REMARK VINA RESULT:      -7.6      2.072      4.531
REMARK  1 active torsions:
REMARK  status: ('A' for Active; 'I' for Inactive)
REMARK    1  A    between atoms: S1_1  and  C1_2 
ROOT
HETATM    1  C1  UNL     1      22.621   3.760  51.878  1.00  0.00     0.082 C 
HETATM    2  C2  UNL     1      24.066   3.667  52.344  1.00  0.00     0.020 C 
HETATM    3  C3  UNL     1      24.400   2.341  52.963  1.00  0.00     0.005 C 
HETATM    4  C4  UNL     1      25.859   2.214  53.326  1.00  0.00     0.027 C 
HETATM    5  C5  UNL     1      26.179   0.973  54.064  1.00  0.00    -0.030 C 
HETATM    6  C6  UNL     1      25.531  -0.069  54.545  1.00  0.00    -0.021 C 
HETATM    7  C7  UNL     1      24.468  -0.980  54.888  1.00  0.00     0.041 C 
HETATM    8  C8  UNL     1      23.263  -1.468  54.980  1.00  0.00    -0.018 C 
HETATM    9  C9  UNL     1      21.863  -1.307  54.689  1.00  0.00    -0.007 C 
HETATM   10  C10 UNL     1      21.065  -0.456  54.102  1.00  0.00    -0.027 C 
HETATM   11  C11 UNL     1      19.644  -0.257  53.789  1.00  0.00     0.029 C 
HETATM   12  C12 UNL     1      19.265  -0.186  52.367  1.00  0.00     0.023 C 
HETATM   13  C13 UNL     1      19.910   0.852  51.516  1.00  0.00     0.121 C 
HETATM   14  N1  UNL     1      21.318   0.664  51.388  1.00  0.00    -0.374 N 
HETATM   15  C14 UNL     1      21.863   1.656  50.486  1.00  0.00     0.133 A 
HETATM   16  N2  UNL     1      21.778   1.127  49.260  1.00  0.00    -0.224 NA
HETATM   17  C15 UNL     1      22.179   1.721  48.125  1.00  0.00     0.234 A 
HETATM   18  N3  UNL     1      22.710   2.950  48.244  1.00  0.00    -0.253 NA
HETATM   19  C16 UNL     1      22.799   3.495  49.496  1.00  0.00     0.130 A 
HETATM   20  C17 UNL     1      22.394   2.910  50.681  1.00  0.00     0.019 A 
HETATM   21  H21 UNL     1      22.212   0.170  51.602  1.00  0.00     0.161 HD
ENDROOT
BRANCH   1  22
HETATM   22  S1  UNL     1      22.352   5.487  51.373  1.00  0.00    -0.172 SA
HETATM   23  H1  UNL     1      23.350   5.805  50.434  1.00  0.00     0.102 HD
ENDBRANCH   1  22
TORSDOF 1
ENDMDL
MODEL 4
REMARK VINA RESULT:      -7.5      1.737      2.995
REMARK  1 active torsions:
REMARK  status: ('A' for Active; 'I' for Inactive)
REMARK    1  A    between atoms: S1_1  and  C1_2 
ROOT
HETATM    1  C1  UNL     1      21.623   2.821  48.786  1.00  0.00     0.082 C 
HETATM    2  C2  UNL     1      21.132   1.749  49.746  1.00  0.00     0.020 C 
HETATM    3  C3  UNL     1      22.131   1.415  50.816  1.00  0.00     0.005 C 
HETATM    4  C4  UNL     1      21.600   0.429  51.827  1.00  0.00     0.027 C 
HETATM    5  C5  UNL     1      22.614  -0.019  52.805  1.00  0.00    -0.030 C 
HETATM    6  C6  UNL     1      23.898   0.169  53.033  1.00  0.00    -0.021 C 
HETATM    7  C7  UNL     1      25.254   0.643  52.910  1.00  0.00     0.041 C 
HETATM    8  C8  UNL     1      26.283   1.285  52.432  1.00  0.00    -0.018 C 
HETATM    9  C9  UNL     1      26.798   2.173  51.422  1.00  0.00    -0.007 C 
HETATM   10  C10 UNL     1      26.379   2.832  50.376  1.00  0.00    -0.027 C 
HETATM   11  C11 UNL     1      26.868   3.738  49.329  1.00  0.00     0.029 C 
HETATM   12  C12 UNL     1      26.282   5.088  49.271  1.00  0.00     0.023 C 
HETATM   13  C13 UNL     1      24.807   5.209  49.108  1.00  0.00     0.121 C 
HETATM   14  N1  UNL     1      24.083   4.673  50.215  1.00  0.00    -0.374 N 
HETATM   15  C14 UNL     1      22.666   4.898  50.027  1.00  0.00     0.133 A 
HETATM   16  N2  UNL     1      22.408   6.097  50.563  1.00  0.00    -0.224 NA
HETATM   17  C15 UNL     1      21.204   6.689  50.604  1.00  0.00     0.234 A 
HETATM   18  N3  UNL     1      20.180   6.010  50.059  1.00  0.00    -0.253 NA
HETATM   19  C16 UNL     1      20.439   4.783  49.510  1.00  0.00     0.130 A 
HETATM   20  C17 UNL     1      21.665   4.149  49.451  1.00  0.00     0.019 A 
HETATM   21  H21 UNL     1      24.022   4.185  51.135  1.00  0.00     0.161 HD
ENDROOT
BRANCH   1  22
HETATM   22  S1  UNL     1      20.390   2.925  47.453  1.00  0.00    -0.172 SA
HETATM   23  H1  UNL     1      20.725   1.943  46.501  1.00  0.00     0.102 HD
ENDBRANCH   1  22
TORSDOF 1
ENDMDL
MODEL 5
REMARK VINA RESULT:      -7.1      3.210      4.824
REMARK  1 active torsions:
REMARK  status: ('A' for Active; 'I' for Inactive)
REMARK    1  A    between atoms: S1_1  and  C1_2 
ROOT
HETATM    1  C1  UNL     1      17.951   0.269  50.704  1.00  0.00     0.082 C 
HETATM    2  C2  UNL     1      18.191  -0.606  51.924  1.00  0.00     0.020 C 
HETATM    3  C3  UNL     1      19.528  -0.371  52.562  1.00  0.00     0.005 C 
HETATM    4  C4  UNL     1      19.719  -1.163  53.833  1.00  0.00     0.027 C 
HETATM    5  C5  UNL     1      21.081  -1.054  54.398  1.00  0.00    -0.030 C 
HETATM    6  C6  UNL     1      22.224  -0.478  54.084  1.00  0.00    -0.021 C 
HETATM    7  C7  UNL     1      23.220   0.291  53.380  1.00  0.00     0.041 C 
HETATM    8  C8  UNL     1      23.756   1.036  52.455  1.00  0.00    -0.018 C 
HETATM    9  C9  UNL     1      23.586   1.733  51.208  1.00  0.00    -0.007 C 
HETATM   10  C10 UNL     1      22.656   1.960  50.319  1.00  0.00    -0.027 C 
HETATM   11  C11 UNL     1      22.444   2.658  49.045  1.00  0.00     0.029 C 
HETATM   12  C12 UNL     1      21.444   3.739  49.021  1.00  0.00     0.023 C 
HETATM   13  C13 UNL     1      20.047   3.416  49.423  1.00  0.00     0.121 C 
HETATM   14  N1  UNL     1      19.944   3.015  50.788  1.00  0.00    -0.374 N 
HETATM   15  C14 UNL     1      18.555   2.798  51.130  1.00  0.00     0.133 A 
HETATM   16  N2  UNL     1      18.086   3.981  51.543  1.00  0.00    -0.224 NA
HETATM   17  C15 UNL     1      16.832   4.221  51.957  1.00  0.00     0.234 A 
HETATM   18  N3  UNL     1      15.987   3.177  51.955  1.00  0.00    -0.253 NA
HETATM   19  C16 UNL     1      16.462   1.964  51.533  1.00  0.00     0.130 A 
HETATM   20  C17 UNL     1      17.744   1.686  51.100  1.00  0.00     0.019 A 
HETATM   21  H21 UNL     1      20.351   2.787  51.721  1.00  0.00     0.161 HD
ENDROOT
BRANCH   1  22
HETATM   22  S1  UNL     1      16.400  -0.311  49.948  1.00  0.00    -0.172 SA
HETATM   23  H1  UNL     1      16.695  -1.503  49.261  1.00  0.00     0.102 HD
ENDBRANCH   1  22
TORSDOF 1
ENDMDL
MODEL 6
REMARK VINA RESULT:      -6.7      2.689      4.134
REMARK  1 active torsions:
REMARK  status: ('A' for Active; 'I' for Inactive)
REMARK    1  A    between atoms: S1_1  and  C1_2 
ROOT
HETATM    1  C1  UNL     1      22.082   4.477  47.543  1.00  0.00     0.082 C 
HETATM    2  C2  UNL     1      21.306   3.420  48.313  1.00  0.00     0.020 C 
HETATM    3  C3  UNL     1      22.078   2.845  49.464  1.00  0.00     0.005 C 
HETATM    4  C4  UNL     1      21.267   1.876  50.289  1.00  0.00     0.027 C 
HETATM    5  C5  UNL     1      22.052   1.193  51.340  1.00  0.00    -0.030 C 
HETATM    6  C6  UNL     1      23.303   1.157  51.753  1.00  0.00    -0.021 C 
HETATM    7  C7  UNL     1      24.716   1.418  51.860  1.00  0.00     0.041 C 
HETATM    8  C8  UNL     1      25.886   1.926  51.591  1.00  0.00    -0.018 C 
HETATM    9  C9  UNL     1      26.667   2.802  50.757  1.00  0.00    -0.007 C 
HETATM   10  C10 UNL     1      26.505   3.603  49.739  1.00  0.00    -0.027 C 
HETATM   11  C11 UNL     1      27.269   4.504  48.866  1.00  0.00     0.029 C 
HETATM   12  C12 UNL     1      26.899   5.929  48.871  1.00  0.00     0.023 C 
HETATM   13  C13 UNL     1      25.497   6.296  48.529  1.00  0.00     0.121 C 
HETATM   14  N1  UNL     1      24.550   5.791  49.469  1.00  0.00    -0.374 N 
HETATM   15  C14 UNL     1      23.223   6.253  49.120  1.00  0.00     0.133 A 
HETATM   16  N2  UNL     1      23.066   7.429  49.739  1.00  0.00    -0.224 NA
HETATM   17  C15 UNL     1      21.968   8.199  49.682  1.00  0.00     0.234 A 
HETATM   18  N3  UNL     1      20.947   7.738  48.940  1.00  0.00    -0.253 NA
HETATM   19  C16 UNL     1      21.103   6.535  48.305  1.00  0.00     0.130 A 
HETATM   20  C17 UNL     1      22.219   5.722  48.343  1.00  0.00     0.019 A 
HETATM   21  H21 UNL     1      24.285   5.245  50.317  1.00  0.00     0.161 HD
ENDROOT
BRANCH   1  22
HETATM   22  S1  UNL     1      21.085   4.885  46.077  1.00  0.00    -0.172 SA
HETATM   23  H1  UNL     1      21.082   6.287  45.954  1.00  0.00     0.102 HD
ENDBRANCH   1  22
TORSDOF 1
ENDMDL
MODEL 7
REMARK VINA RESULT:      -6.6      2.839      5.447
REMARK  1 active torsions:
REMARK  status: ('A' for Active; 'I' for Inactive)
REMARK    1  A    between atoms: S1_1  and  C1_2 
ROOT
HETATM    1  C1  UNL     1      21.596   3.231  51.744  1.00  0.00     0.082 C 
HETATM    2  C2  UNL     1      22.400   2.387  52.720  1.00  0.00     0.020 C 
HETATM    3  C3  UNL     1      21.756   1.066  53.024  1.00  0.00     0.005 C 
HETATM    4  C4  UNL     1      22.607   0.188  53.909  1.00  0.00     0.027 C 
HETATM    5  C5  UNL     1      21.931  -1.056  54.334  1.00  0.00    -0.030 C 
HETATM    6  C6  UNL     1      20.748  -1.620  54.191  1.00  0.00    -0.021 C 
HETATM    7  C7  UNL     1      19.383  -1.852  53.792  1.00  0.00     0.041 C 
HETATM    8  C8  UNL     1      18.223  -1.643  53.235  1.00  0.00    -0.018 C 
HETATM    9  C9  UNL     1      17.394  -0.769  52.448  1.00  0.00    -0.007 C 
HETATM   10  C10 UNL     1      17.467   0.388  51.846  1.00  0.00    -0.027 C 
HETATM   11  C11 UNL     1      16.651   1.306  51.041  1.00  0.00     0.029 C 
HETATM   12  C12 UNL     1      17.110   1.601  49.673  1.00  0.00     0.023 C 
HETATM   13  C13 UNL     1      18.473   2.172  49.493  1.00  0.00     0.121 C 
HETATM   14  N1  UNL     1      19.505   1.282  49.914  1.00  0.00    -0.374 N 
HETATM   15  C14 UNL     1      20.799   1.867  49.636  1.00  0.00     0.133 A 
HETATM   16  N2  UNL     1      21.115   1.491  48.391  1.00  0.00    -0.224 NA
HETATM   17  C15 UNL     1      22.242   1.819  47.740  1.00  0.00     0.234 A 
HETATM   18  N3  UNL     1      23.120   2.587  48.407  1.00  0.00    -0.253 NA
HETATM   19  C16 UNL     1      22.802   2.974  49.681  1.00  0.00     0.130 A 
HETATM   20  C17 UNL     1      21.651   2.655  50.375  1.00  0.00     0.019 A 
HETATM   21  H21 UNL     1      19.847   0.389  50.331  1.00  0.00     0.161 HD
ENDROOT
BRANCH   1  22
HETATM   22  S1  UNL     1      22.408   4.858  51.677  1.00  0.00    -0.172 SA
HETATM   23  H1  UNL     1      21.622   5.680  50.848  1.00  0.00     0.102 HD
ENDBRANCH   1  22
TORSDOF 1
ENDMDL
MODEL 8
REMARK VINA RESULT:      -6.5      8.984     11.629
REMARK  1 active torsions:
REMARK  status: ('A' for Active; 'I' for Inactive)
REMARK    1  A    between atoms: S1_1  and  C1_2 
ROOT
HETATM    1  C1  UNL     1      32.134   6.315  47.808  1.00  0.00     0.082 C 
HETATM    2  C2  UNL     1      30.944   5.399  48.047  1.00  0.00     0.020 C 
HETATM    3  C3  UNL     1      29.647   6.143  48.183  1.00  0.00     0.005 C 
HETATM    4  C4  UNL     1      28.456   5.226  48.313  1.00  0.00     0.027 C 
HETATM    5  C5  UNL     1      27.189   5.937  48.589  1.00  0.00    -0.030 C 
HETATM    6  C6  UNL     1      26.794   7.177  48.799  1.00  0.00    -0.021 C 
HETATM    7  C7  UNL     1      26.812   8.608  48.969  1.00  0.00     0.041 C 
HETATM    8  C8  UNL     1      27.283   9.820  49.049  1.00  0.00    -0.018 C 
HETATM    9  C9  UNL     1      28.435  10.681  48.992  1.00  0.00    -0.007 C 
HETATM   10  C10 UNL     1      29.723  10.600  48.794  1.00  0.00    -0.027 C 
HETATM   11  C11 UNL     1      30.921  11.446  48.730  1.00  0.00     0.029 C 
HETATM   12  C12 UNL     1      31.658  11.484  47.455  1.00  0.00     0.023 C 
HETATM   13  C13 UNL     1      32.165  10.201  46.895  1.00  0.00     0.121 C 
HETATM   14  N1  UNL     1      31.117   9.298  46.548  1.00  0.00    -0.374 N 
HETATM   15  C14 UNL     1      31.677   8.111  45.937  1.00  0.00     0.133 A 
HETATM   16  N2  UNL     1      31.755   8.372  44.627  1.00  0.00    -0.224 NA
HETATM   17  C15 UNL     1      32.220   7.530  43.691  1.00  0.00     0.234 A 
HETATM   18  N3  UNL     1      32.637   6.326  44.118  1.00  0.00    -0.253 NA
HETATM   19  C16 UNL     1      32.559   6.054  45.457  1.00  0.00     0.130 A 
HETATM   20  C17 UNL     1      32.088   6.900  46.443  1.00  0.00     0.019 A 
HETATM   21  H21 UNL     1      30.113   9.019  46.490  1.00  0.00     0.161 HD
ENDROOT
BRANCH   1  22
HETATM   22  S1  UNL     1      33.618   5.266  47.896  1.00  0.00    -0.172 SA
HETATM   23  H1  UNL     1      33.988   5.184  49.251  1.00  0.00     0.102 HD
ENDBRANCH   1  22
TORSDOF 1
ENDMDL
MODEL 9
REMARK VINA RESULT:      -6.5      9.519     12.750
REMARK  1 active torsions:
REMARK  status: ('A' for Active; 'I' for Inactive)
REMARK    1  A    between atoms: S1_1  and  C1_2 
ROOT
HETATM    1  C1  UNL     1      32.342   6.911  44.950  1.00  0.00     0.082 C 
HETATM    2  C2  UNL     1      33.001   8.281  44.972  1.00  0.00     0.020 C 
HETATM    3  C3  UNL     1      32.500   9.157  46.082  1.00  0.00     0.005 C 
HETATM    4  C4  UNL     1      33.231  10.475  46.165  1.00  0.00     0.027 C 
HETATM    5  C5  UNL     1      32.659  11.407  47.160  1.00  0.00    -0.030 C 
HETATM    6  C6  UNL     1      31.639  11.437  47.994  1.00  0.00    -0.021 C 
HETATM    7  C7  UNL     1      30.457  11.051  48.723  1.00  0.00     0.041 C 
HETATM    8  C8  UNL     1      29.447  10.326  49.111  1.00  0.00    -0.018 C 
HETATM    9  C9  UNL     1      28.714   9.094  48.978  1.00  0.00    -0.007 C 
HETATM   10  C10 UNL     1      28.762   7.983  48.293  1.00  0.00    -0.027 C 
HETATM   11  C11 UNL     1      28.039   6.715  48.128  1.00  0.00     0.029 C 
HETATM   12  C12 UNL     1      28.765   5.474  48.445  1.00  0.00     0.023 C 
HETATM   13  C13 UNL     1      30.034   5.194  47.719  1.00  0.00     0.121 C 
HETATM   14  N1  UNL     1      31.053   6.154  47.997  1.00  0.00    -0.374 N 
HETATM   15  C14 UNL     1      32.278   5.775  47.326  1.00  0.00     0.133 A 
HETATM   16  N2  UNL     1      32.933   4.975  48.176  1.00  0.00    -0.224 NA
HETATM   17  C15 UNL     1      34.125   4.402  47.944  1.00  0.00     0.234 A 
HETATM   18  N3  UNL     1      34.697   4.662  46.757  1.00  0.00    -0.253 NA
HETATM   19  C16 UNL     1      34.031   5.479  45.884  1.00  0.00     0.130 A 
HETATM   20  C17 UNL     1      32.805   6.081  46.093  1.00  0.00     0.019 A 
HETATM   21  H21 UNL     1      31.410   7.023  48.450  1.00  0.00     0.161 HD
ENDROOT
BRANCH   1  22
HETATM   22  S1  UNL     1      32.903   6.091  43.426  1.00  0.00    -0.172 SA
HETATM   23  H1  UNL     1      33.718   5.010  43.812  1.00  0.00     0.102 HD
ENDBRANCH   1  22
TORSDOF 1
ENDMDL
