MODEL 1
REMARK VINA RESULT:      -7.9      0.000      0.000
REMARK  6 active torsions:
REMARK  status: ('A' for Active; 'I' for Inactive)
REMARK    1  A    between atoms: N1_1  and  C1_2 
REMARK    2  A    between atoms: C1_2  and  N2_4 
REMARK    3  A    between atoms: N2_4  and  N3_5 
REMARK    4  A    between atoms: C2_6  and  C3_7 
REMARK    5  A    between atoms: C2_6  and  C11_16 
REMARK    6  A    between atoms: C4_8  and  C5_9 
ROOT
HETATM    1  N3  UNL     1      24.204   3.681  52.919  1.00  0.00    -0.172 NA
HETATM    2  C2  UNL     1      24.010   2.434  52.678  1.00  0.00     0.087 C 
ENDROOT
BRANCH   2   3
HETATM    3  C3  UNL     1      25.279   1.899  53.146  1.00  0.00     0.035 C 
HETATM    4  C4  UNL     1      25.823   0.884  52.545  1.00  0.00     0.014 C 
BRANCH   4   5
HETATM    5  C5  UNL     1      27.085   0.278  52.934  1.00  0.00    -0.036 A 
HETATM    6  C6  UNL     1      27.343  -1.073  52.815  1.00  0.00     0.014 A 
HETATM    7  C7  UNL     1      28.524  -1.672  53.174  1.00  0.00     0.043 A 
HETATM    8  C8  UNL     1      29.547  -0.889  53.697  1.00  0.00     0.116 A 
HETATM    9  F1  UNL     1      30.733  -1.421  54.068  1.00  0.00    -0.206 F 
HETATM   10  C9  UNL     1      29.333   0.466  53.833  1.00  0.00     0.043 A 
HETATM   11  C10 UNL     1      28.133   0.995  53.456  1.00  0.00     0.014 A 
ENDBRANCH   4   5
ENDBRANCH   2   3
BRANCH   2  12
HETATM   12  C11 UNL     1      22.919   1.653  52.117  1.00  0.00    -0.006 A 
HETATM   13  C12 UNL     1      22.693   1.663  50.760  1.00  0.00     0.014 A 
HETATM   14  C13 UNL     1      21.646   0.913  50.218  1.00  0.00     0.001 A 
HETATM   15  C14 UNL     1      20.875   0.185  51.095  1.00  0.00     0.000 A 
HETATM   16  C15 UNL     1      21.123   0.193  52.439  1.00  0.00     0.001 A 
HETATM   17  C16 UNL     1      22.157   0.933  52.986  1.00  0.00     0.014 A 
ENDBRANCH   2  12
BRANCH   1  18
HETATM   18  N2  UNL     1      23.326   4.714  52.680  1.00  0.00    -0.253 N 
HETATM   19  H3  UNL     1      22.427   4.813  53.233  1.00  0.00     0.191 HD
BRANCH  18  20
HETATM   20  C1  UNL     1      23.574   5.711  51.674  1.00  0.00     0.185 C 
HETATM   21  S1  UNL     1      22.899   5.549  50.197  1.00  0.00    -0.040 SA
BRANCH  20  22
HETATM   22  N1  UNL     1      24.396   6.846  51.920  1.00  0.00    -0.375 N 
HETATM   23  H1  UNL     1      24.596   7.392  52.795  1.00  0.00     0.158 HD
HETATM   24  H2  UNL     1      25.064   7.639  51.732  1.00  0.00     0.158 HD
ENDBRANCH  20  22
ENDBRANCH  18  20
ENDBRANCH   1  18
TORSDOF 6
ENDMDL
MODEL 2
REMARK VINA RESULT:      -7.8      3.286      6.496
REMARK  6 active torsions:
REMARK  status: ('A' for Active; 'I' for Inactive)
REMARK    1  A    between atoms: N1_1  and  C1_2 
REMARK    2  A    between atoms: C1_2  and  N2_4 
REMARK    3  A    between atoms: N2_4  and  N3_5 
REMARK    4  A    between atoms: C2_6  and  C3_7 
REMARK    5  A    between atoms: C2_6  and  C11_16 
REMARK    6  A    between atoms: C4_8  and  C5_9 
ROOT
HETATM    1  N3  UNL     1      25.817   1.997  52.087  1.00  0.00    -0.172 NA
HETATM    2  C2  UNL     1      26.167   0.941  52.732  1.00  0.00     0.087 C 
ENDROOT
BRANCH   2   3
HETATM    3  C3  UNL     1      24.857   0.478  53.162  1.00  0.00     0.035 C 
HETATM    4  C4  UNL     1      23.819   0.647  52.399  1.00  0.00     0.014 C 
BRANCH   4   5
HETATM    5  C5  UNL     1      22.472   0.221  52.738  1.00  0.00    -0.036 A 
HETATM    6  C6  UNL     1      22.180  -0.551  53.843  1.00  0.00     0.014 A 
HETATM    7  C7  UNL     1      20.918  -0.968  54.187  1.00  0.00     0.043 A 
HETATM    8  C8  UNL     1      19.843  -0.601  53.386  1.00  0.00     0.116 A 
HETATM    9  F1  UNL     1      18.578  -0.980  53.672  1.00  0.00    -0.206 F 
HETATM   10  C9  UNL     1      20.089   0.171  52.270  1.00  0.00     0.043 A 
HETATM   11  C10 UNL     1      21.370   0.549  51.988  1.00  0.00     0.014 A 
ENDBRANCH   4   5
ENDBRANCH   2   3
BRANCH   2  12
HETATM   12  C11 UNL     1      27.432   0.287  53.024  1.00  0.00    -0.006 A 
HETATM   13  C12 UNL     1      28.508   1.032  53.449  1.00  0.00     0.014 A 
HETATM   14  C13 UNL     1      29.726   0.406  53.732  1.00  0.00     0.001 A 
HETATM   15  C14 UNL     1      29.785  -0.958  53.564  1.00  0.00     0.000 A 
HETATM   16  C15 UNL     1      28.700  -1.672  53.140  1.00  0.00     0.001 A 
HETATM   17  C16 UNL     1      27.490  -1.063  52.857  1.00  0.00     0.014 A 
ENDBRANCH   2  12
BRANCH   1  18
HETATM   18  N2  UNL     1      26.649   2.879  51.436  1.00  0.00    -0.253 N 
HETATM   19  H3  UNL     1      27.631   3.073  51.785  1.00  0.00     0.191 HD
BRANCH  18  20
HETATM   20  C1  UNL     1      26.237   3.585  50.253  1.00  0.00     0.185 C 
HETATM   21  S1  UNL     1      24.700   3.445  49.725  1.00  0.00    -0.040 SA
BRANCH  20  22
HETATM   22  N1  UNL     1      27.132   4.413  49.517  1.00  0.00    -0.375 N 
HETATM   23  H1  UNL     1      27.454   4.383  48.518  1.00  0.00     0.158 HD
HETATM   24  H2  UNL     1      27.807   5.195  49.310  1.00  0.00     0.158 HD
ENDBRANCH  20  22
ENDBRANCH  18  20
ENDBRANCH   1  18
TORSDOF 6
ENDMDL
MODEL 3
REMARK VINA RESULT:      -7.8      1.034      1.703
REMARK  6 active torsions:
REMARK  status: ('A' for Active; 'I' for Inactive)
REMARK    1  A    between atoms: N1_1  and  C1_2 
REMARK    2  A    between atoms: C1_2  and  N2_4 
REMARK    3  A    between atoms: N2_4  and  N3_5 
REMARK    4  A    between atoms: C2_6  and  C3_7 
REMARK    5  A    between atoms: C2_6  and  C11_16 
REMARK    6  A    between atoms: C4_8  and  C5_9 
ROOT
HETATM    1  N3  UNL     1      23.794   3.880  52.579  1.00  0.00    -0.172 NA
HETATM    2  C2  UNL     1      23.831   2.817  51.857  1.00  0.00     0.087 C 
ENDROOT
BRANCH   2   3
HETATM    3  C3  UNL     1      24.892   2.097  52.543  1.00  0.00     0.035 C 
HETATM    4  C4  UNL     1      25.872   1.576  51.869  1.00  0.00     0.014 C 
BRANCH   4   5
HETATM    5  C5  UNL     1      26.977   0.840  52.460  1.00  0.00    -0.036 A 
HETATM    6  C6  UNL     1      27.047  -0.538  52.470  1.00  0.00     0.014 A 
HETATM    7  C7  UNL     1      28.077  -1.258  53.020  1.00  0.00     0.043 A 
HETATM    8  C8  UNL     1      29.135  -0.580  53.614  1.00  0.00     0.116 A 
HETATM    9  F1  UNL     1      30.178  -1.233  54.172  1.00  0.00    -0.206 F 
HETATM   10  C9  UNL     1      29.107   0.799  53.626  1.00  0.00     0.043 A 
HETATM   11  C10 UNL     1      28.050   1.451  53.061  1.00  0.00     0.014 A 
ENDBRANCH   4   5
ENDBRANCH   2   3
BRANCH   2  12
HETATM   12  C11 UNL     1      23.104   2.341  50.692  1.00  0.00    -0.006 A 
HETATM   13  C12 UNL     1      22.173   1.337  50.825  1.00  0.00     0.014 A 
HETATM   14  C13 UNL     1      21.471   0.877  49.707  1.00  0.00     0.001 A 
HETATM   15  C14 UNL     1      21.758   1.469  48.499  1.00  0.00     0.000 A 
HETATM   16  C15 UNL     1      22.689   2.465  48.395  1.00  0.00     0.001 A 
HETATM   17  C16 UNL     1      23.389   2.927  49.496  1.00  0.00     0.014 A 
ENDBRANCH   2  12
BRANCH   1  18
HETATM   18  N2  UNL     1      22.961   4.963  52.412  1.00  0.00    -0.253 N 
HETATM   19  H3  UNL     1      22.009   5.004  52.878  1.00  0.00     0.191 HD
BRANCH  18  20
HETATM   20  C1  UNL     1      23.328   6.091  51.600  1.00  0.00     0.185 C 
HETATM   21  S1  UNL     1      22.418   6.478  50.302  1.00  0.00    -0.040 SA
BRANCH  20  22
HETATM   22  N1  UNL     1      24.467   6.893  51.891  1.00  0.00    -0.375 N 
HETATM   23  H1  UNL     1      25.372   6.678  52.378  1.00  0.00     0.158 HD
HETATM   24  H2  UNL     1      25.092   7.740  51.927  1.00  0.00     0.158 HD
ENDBRANCH  20  22
ENDBRANCH  18  20
ENDBRANCH   1  18
TORSDOF 6
ENDMDL
MODEL 4
REMARK VINA RESULT:      -7.7      4.526      6.291
REMARK  6 active torsions:
REMARK  status: ('A' for Active; 'I' for Inactive)
REMARK    1  A    between atoms: N1_1  and  C1_2 
REMARK    2  A    between atoms: C1_2  and  N2_4 
REMARK    3  A    between atoms: N2_4  and  N3_5 
REMARK    4  A    between atoms: C2_6  and  C3_7 
REMARK    5  A    between atoms: C2_6  and  C11_16 
REMARK    6  A    between atoms: C4_8  and  C5_9 
ROOT
HETATM    1  N3  UNL     1      26.273  -0.204  52.503  1.00  0.00    -0.172 NA
HETATM    2  C2  UNL     1      25.143   0.320  52.820  1.00  0.00     0.087 C 
ENDROOT
BRANCH   2   3
HETATM    3  C3  UNL     1      25.352   1.666  52.310  1.00  0.00     0.035 C 
HETATM    4  C4  UNL     1      25.495   1.869  51.035  1.00  0.00     0.014 C 
BRANCH   4   5
HETATM    5  C5  UNL     1      25.708   3.172  50.429  1.00  0.00    -0.036 A 
HETATM    6  C6  UNL     1      26.728   3.432  49.536  1.00  0.00     0.014 A 
HETATM    7  C7  UNL     1      26.952   4.652  48.949  1.00  0.00     0.043 A 
HETATM    8  C8  UNL     1      26.110   5.715  49.254  1.00  0.00     0.116 A 
HETATM    9  F1  UNL     1      26.279   6.939  48.708  1.00  0.00    -0.206 F 
HETATM   10  C9  UNL     1      25.077   5.500  50.141  1.00  0.00     0.043 A 
HETATM   11  C10 UNL     1      24.913   4.260  50.689  1.00  0.00     0.014 A 
ENDBRANCH   4   5
ENDBRANCH   2   3
BRANCH   2  12
HETATM   12  C11 UNL     1      23.939  -0.155  53.481  1.00  0.00    -0.006 A 
HETATM   13  C12 UNL     1      24.033  -0.858  54.660  1.00  0.00     0.014 A 
HETATM   14  C13 UNL     1      22.877  -1.315  55.298  1.00  0.00     0.001 A 
HETATM   15  C14 UNL     1      21.673  -1.031  54.697  1.00  0.00     0.000 A 
HETATM   16  C15 UNL     1      21.609  -0.331  53.525  1.00  0.00     0.001 A 
HETATM   17  C16 UNL     1      22.747   0.127  52.885  1.00  0.00     0.014 A 
ENDBRANCH   2  12
BRANCH   1  18
HETATM   18  N2  UNL     1      26.675  -1.500  52.736  1.00  0.00    -0.253 N 
HETATM   19  H3  UNL     1      26.001  -2.313  52.641  1.00  0.00     0.191 HD
BRANCH  18  20
HETATM   20  C1  UNL     1      28.022  -1.824  53.122  1.00  0.00     0.185 C 
HETATM   21  S1  UNL     1      29.041  -0.631  53.566  1.00  0.00    -0.040 SA
BRANCH  20  22
HETATM   22  N1  UNL     1      28.504  -3.163  53.130  1.00  0.00    -0.375 N 
HETATM   23  H1  UNL     1      28.376  -3.960  52.458  1.00  0.00     0.158 HD
HETATM   24  H2  UNL     1      29.014  -4.025  53.457  1.00  0.00     0.158 HD
ENDBRANCH  20  22
ENDBRANCH  18  20
ENDBRANCH   1  18
TORSDOF 6
ENDMDL
MODEL 5
REMARK VINA RESULT:      -7.6      3.965      6.448
REMARK  6 active torsions:
REMARK  status: ('A' for Active; 'I' for Inactive)
REMARK    1  A    between atoms: N1_1  and  C1_2 
REMARK    2  A    between atoms: C1_2  and  N2_4 
REMARK    3  A    between atoms: N2_4  and  N3_5 
REMARK    4  A    between atoms: C2_6  and  C3_7 
REMARK    5  A    between atoms: C2_6  and  C11_16 
REMARK    6  A    between atoms: C4_8  and  C5_9 
ROOT
HETATM    1  N3  UNL     1      25.508   2.061  53.272  1.00  0.00    -0.172 NA
HETATM    2  C2  UNL     1      25.008   2.386  52.133  1.00  0.00     0.087 C 
ENDROOT
BRANCH   2   3
HETATM    3  C3  UNL     1      23.819   1.549  52.146  1.00  0.00     0.035 C 
HETATM    4  C4  UNL     1      23.275   1.201  53.273  1.00  0.00     0.014 C 
BRANCH   4   5
HETATM    5  C5  UNL     1      22.089   0.370  53.391  1.00  0.00    -0.036 A 
HETATM    6  C6  UNL     1      22.051  -0.791  54.137  1.00  0.00     0.014 A 
HETATM    7  C7  UNL     1      20.947  -1.594  54.266  1.00  0.00     0.043 A 
HETATM    8  C8  UNL     1      19.772  -1.239  53.613  1.00  0.00     0.116 A 
HETATM    9  F1  UNL     1      18.651  -1.989  53.703  1.00  0.00    -0.206 F 
HETATM   10  C9  UNL     1      19.764  -0.086  52.857  1.00  0.00     0.043 A 
HETATM   11  C10 UNL     1      20.900   0.666  52.772  1.00  0.00     0.014 A 
ENDBRANCH   4   5
ENDBRANCH   2   3
BRANCH   2  12
HETATM   12  C11 UNL     1      25.394   3.289  51.061  1.00  0.00    -0.006 A 
HETATM   13  C12 UNL     1      24.645   4.415  50.809  1.00  0.00     0.014 A 
HETATM   14  C13 UNL     1      25.013   5.287  49.780  1.00  0.00     0.001 A 
HETATM   15  C14 UNL     1      26.136   4.962  49.054  1.00  0.00     0.000 A 
HETATM   16  C15 UNL     1      26.861   3.836  49.326  1.00  0.00     0.001 A 
HETATM   17  C16 UNL     1      26.505   2.967  50.343  1.00  0.00     0.014 A 
ENDBRANCH   2  12
BRANCH   1  18
HETATM   18  N2  UNL     1      26.671   2.543  53.830  1.00  0.00    -0.253 N 
HETATM   19  H3  UNL     1      26.681   3.440  54.395  1.00  0.00     0.191 HD
BRANCH  18  20
HETATM   20  C1  UNL     1      27.929   1.864  53.680  1.00  0.00     0.185 C 
HETATM   21  S1  UNL     1      27.948   0.287  53.264  1.00  0.00    -0.040 SA
BRANCH  20  22
HETATM   22  N1  UNL     1      29.173   2.525  53.882  1.00  0.00    -0.375 N 
HETATM   23  H1  UNL     1      29.408   3.506  54.173  1.00  0.00     0.158 HD
HETATM   24  H2  UNL     1      30.216   2.669  53.932  1.00  0.00     0.158 HD
ENDBRANCH  20  22
ENDBRANCH  18  20
ENDBRANCH   1  18
TORSDOF 6
ENDMDL
MODEL 6
REMARK VINA RESULT:      -7.5      4.635      6.310
REMARK  6 active torsions:
REMARK  status: ('A' for Active; 'I' for Inactive)
REMARK    1  A    between atoms: N1_1  and  C1_2 
REMARK    2  A    between atoms: C1_2  and  N2_4 
REMARK    3  A    between atoms: N2_4  and  N3_5 
REMARK    4  A    between atoms: C2_6  and  C3_7 
REMARK    5  A    between atoms: C2_6  and  C11_16 
REMARK    6  A    between atoms: C4_8  and  C5_9 
ROOT
HETATM    1  N3  UNL     1      26.763   1.199  51.950  1.00  0.00    -0.172 NA
HETATM    2  C2  UNL     1      25.531   1.555  51.876  1.00  0.00     0.087 C 
ENDROOT
BRANCH   2   3
HETATM    3  C3  UNL     1      25.697   2.873  51.283  1.00  0.00     0.035 C 
HETATM    4  C4  UNL     1      26.257   3.000  50.117  1.00  0.00     0.014 C 
BRANCH   4   5
HETATM    5  C5  UNL     1      26.468   4.269  49.441  1.00  0.00    -0.036 A 
HETATM    6  C6  UNL     1      27.676   4.636  48.886  1.00  0.00     0.014 A 
HETATM    7  C7  UNL     1      27.904   5.826  48.242  1.00  0.00     0.043 A 
HETATM    8  C8  UNL     1      26.865   6.743  48.126  1.00  0.00     0.116 A 
HETATM    9  F1  UNL     1      27.028   7.931  47.504  1.00  0.00    -0.206 F 
HETATM   10  C9  UNL     1      25.639   6.417  48.667  1.00  0.00     0.043 A 
HETATM   11  C10 UNL     1      25.484   5.215  49.294  1.00  0.00     0.014 A 
ENDBRANCH   4   5
ENDBRANCH   2   3
BRANCH   2  12
HETATM   12  C11 UNL     1      24.261   0.944  52.232  1.00  0.00    -0.006 A 
HETATM   13  C12 UNL     1      24.184   0.099  53.315  1.00  0.00     0.014 A 
HETATM   14  C13 UNL     1      22.964  -0.490  53.661  1.00  0.00     0.001 A 
HETATM   15  C14 UNL     1      21.876  -0.186  52.876  1.00  0.00     0.000 A 
HETATM   16  C15 UNL     1      21.981   0.656  51.805  1.00  0.00     0.001 A 
HETATM   17  C16 UNL     1      23.184   1.245  51.455  1.00  0.00     0.014 A 
ENDBRANCH   2  12
BRANCH   1  18
HETATM   18  N2  UNL     1      27.250   0.009  52.442  1.00  0.00    -0.253 N 
HETATM   19  H3  UNL     1      27.046  -0.913  51.959  1.00  0.00     0.191 HD
BRANCH  18  20
HETATM   20  C1  UNL     1      28.054  -0.054  53.632  1.00  0.00     0.185 C 
HETATM   21  S1  UNL     1      29.477  -0.852  53.600  1.00  0.00    -0.040 SA
BRANCH  20  22
HETATM   22  N1  UNL     1      27.652   0.561  54.851  1.00  0.00    -0.375 N 
HETATM   23  H1  UNL     1      27.891   0.357  55.853  1.00  0.00     0.158 HD
HETATM   24  H2  UNL     1      27.165   1.229  55.504  1.00  0.00     0.158 HD
ENDBRANCH  20  22
ENDBRANCH  18  20
ENDBRANCH   1  18
TORSDOF 6
ENDMDL
MODEL 7
REMARK VINA RESULT:      -7.3      3.896      6.807
REMARK  6 active torsions:
REMARK  status: ('A' for Active; 'I' for Inactive)
REMARK    1  A    between atoms: N1_1  and  C1_2 
REMARK    2  A    between atoms: C1_2  and  N2_4 
REMARK    3  A    between atoms: N2_4  and  N3_5 
REMARK    4  A    between atoms: C2_6  and  C3_7 
REMARK    5  A    between atoms: C2_6  and  C11_16 
REMARK    6  A    between atoms: C4_8  and  C5_9 
ROOT
HETATM    1  N3  UNL     1      25.078   0.241  52.723  1.00  0.00    -0.172 NA
HETATM    2  C2  UNL     1      26.316   0.195  52.381  1.00  0.00     0.087 C 
ENDROOT
BRANCH   2   3
HETATM    3  C3  UNL     1      26.324   1.238  51.368  1.00  0.00     0.035 C 
HETATM    4  C4  UNL     1      25.784   2.394  51.613  1.00  0.00     0.014 C 
BRANCH   4   5
HETATM    5  C5  UNL     1      25.741   3.498  50.670  1.00  0.00    -0.036 A 
HETATM    6  C6  UNL     1      24.667   4.358  50.562  1.00  0.00     0.014 A 
HETATM    7  C7  UNL     1      24.600   5.408  49.681  1.00  0.00     0.043 A 
HETATM    8  C8  UNL     1      25.672   5.646  48.829  1.00  0.00     0.116 A 
HETATM    9  F1  UNL     1      25.665   6.664  47.941  1.00  0.00    -0.206 F 
HETATM   10  C9  UNL     1      26.767   4.811  48.903  1.00  0.00     0.043 A 
HETATM   11  C10 UNL     1      26.766   3.785  49.803  1.00  0.00     0.014 A 
ENDBRANCH   4   5
ENDBRANCH   2   3
BRANCH   2  12
HETATM   12  C11 UNL     1      27.466  -0.596  52.789  1.00  0.00    -0.006 A 
HETATM   13  C12 UNL     1      27.454  -1.962  52.625  1.00  0.00     0.014 A 
HETATM   14  C13 UNL     1      28.558  -2.725  53.015  1.00  0.00     0.001 A 
HETATM   15  C14 UNL     1      29.627  -2.050  53.557  1.00  0.00     0.000 A 
HETATM   16  C15 UNL     1      29.612  -0.692  53.708  1.00  0.00     0.001 A 
HETATM   17  C16 UNL     1      28.524   0.073  53.326  1.00  0.00     0.014 A 
ENDBRANCH   2  12
BRANCH   1  18
HETATM   18  N2  UNL     1      24.454  -0.537  53.671  1.00  0.00    -0.253 N 
HETATM   19  H3  UNL     1      24.999  -1.227  54.265  1.00  0.00     0.191 HD
BRANCH  18  20
HETATM   20  C1  UNL     1      23.038  -0.464  53.910  1.00  0.00     0.185 C 
HETATM   21  S1  UNL     1      22.100   0.428  52.917  1.00  0.00    -0.040 SA
BRANCH  20  22
HETATM   22  N1  UNL     1      22.418  -1.148  54.993  1.00  0.00    -0.375 N 
HETATM   23  H1  UNL     1      22.738  -1.349  55.973  1.00  0.00     0.158 HD
HETATM   24  H2  UNL     1      21.688  -1.686  55.530  1.00  0.00     0.158 HD
ENDBRANCH  20  22
ENDBRANCH  18  20
ENDBRANCH   1  18
TORSDOF 6
ENDMDL
MODEL 8
REMARK VINA RESULT:      -6.9      4.303      6.420
REMARK  6 active torsions:
REMARK  status: ('A' for Active; 'I' for Inactive)
REMARK    1  A    between atoms: N1_1  and  C1_2 
REMARK    2  A    between atoms: C1_2  and  N2_4 
REMARK    3  A    between atoms: N2_4  and  N3_5 
REMARK    4  A    between atoms: C2_6  and  C3_7 
REMARK    5  A    between atoms: C2_6  and  C11_16 
REMARK    6  A    between atoms: C4_8  and  C5_9 
ROOT
HETATM    1  N3  UNL     1      24.450   2.538  50.697  1.00  0.00    -0.172 NA
HETATM    2  C2  UNL     1      25.571   2.352  51.298  1.00  0.00     0.087 C 
ENDROOT
BRANCH   2   3
HETATM    3  C3  UNL     1      26.328   3.463  50.742  1.00  0.00     0.035 C 
HETATM    4  C4  UNL     1      26.069   3.900  49.547  1.00  0.00     0.014 C 
BRANCH   4   5
HETATM    5  C5  UNL     1      26.766   5.001  48.905  1.00  0.00    -0.036 A 
HETATM    6  C6  UNL     1      26.148   6.183  48.551  1.00  0.00     0.014 A 
HETATM    7  C7  UNL     1      26.781   7.238  47.944  1.00  0.00     0.043 A 
HETATM    8  C8  UNL     1      28.137   7.138  47.655  1.00  0.00     0.116 A 
HETATM    9  F1  UNL     1      28.816   8.142  47.059  1.00  0.00    -0.206 F 
HETATM   10  C9  UNL     1      28.796   5.974  47.991  1.00  0.00     0.043 A 
HETATM   11  C10 UNL     1      28.103   4.963  48.593  1.00  0.00     0.014 A 
ENDBRANCH   4   5
ENDBRANCH   2   3
BRANCH   2  12
HETATM   12  C11 UNL     1      26.075   1.383  52.257  1.00  0.00    -0.006 A 
HETATM   13  C12 UNL     1      26.046   1.669  53.603  1.00  0.00     0.014 A 
HETATM   14  C13 UNL     1      26.528   0.739  54.528  1.00  0.00     0.001 A 
HETATM   15  C14 UNL     1      27.020  -0.444  54.030  1.00  0.00     0.000 A 
HETATM   16  C15 UNL     1      27.037  -0.702  52.688  1.00  0.00     0.001 A 
HETATM   17  C16 UNL     1      26.562   0.212  51.763  1.00  0.00     0.014 A 
ENDBRANCH   2  12
BRANCH   1  18
HETATM   18  N2  UNL     1      23.310   1.778  50.824  1.00  0.00    -0.253 N 
HETATM   19  H3  UNL     1      23.022   1.085  50.074  1.00  0.00     0.191 HD
BRANCH  18  20
HETATM   20  C1  UNL     1      22.448   1.879  51.969  1.00  0.00     0.185 C 
HETATM   21  S1  UNL     1      21.351   3.084  52.047  1.00  0.00    -0.040 SA
BRANCH  20  22
HETATM   22  N1  UNL     1      22.516   0.956  53.051  1.00  0.00    -0.375 N 
HETATM   23  H1  UNL     1      21.781   0.377  53.527  1.00  0.00     0.158 HD
HETATM   24  H2  UNL     1      22.930   0.376  53.827  1.00  0.00     0.158 HD
ENDBRANCH  20  22
ENDBRANCH  18  20
ENDBRANCH   1  18
TORSDOF 6
ENDMDL
MODEL 9
REMARK VINA RESULT:      -6.9      2.396      2.794
REMARK  6 active torsions:
REMARK  status: ('A' for Active; 'I' for Inactive)
REMARK    1  A    between atoms: N1_1  and  C1_2 
REMARK    2  A    between atoms: C1_2  and  N2_4 
REMARK    3  A    between atoms: N2_4  and  N3_5 
REMARK    4  A    between atoms: C2_6  and  C3_7 
REMARK    5  A    between atoms: C2_6  and  C11_16 
REMARK    6  A    between atoms: C4_8  and  C5_9 
ROOT
HETATM    1  N3  UNL     1      26.190   4.788  49.703  1.00  0.00    -0.172 NA
HETATM    2  C2  UNL     1      25.395   3.849  50.075  1.00  0.00     0.087 C 
ENDROOT
BRANCH   2   3
HETATM    3  C3  UNL     1      26.368   2.908  50.607  1.00  0.00     0.035 C 
HETATM    4  C4  UNL     1      26.171   2.344  51.761  1.00  0.00     0.014 C 
BRANCH   4   5
HETATM    5  C5  UNL     1      27.080   1.394  52.377  1.00  0.00    -0.036 A 
HETATM    6  C6  UNL     1      26.896   0.027  52.321  1.00  0.00     0.014 A 
HETATM    7  C7  UNL     1      27.738  -0.893  52.893  1.00  0.00     0.043 A 
HETATM    8  C8  UNL     1      28.860  -0.447  53.582  1.00  0.00     0.116 A 
HETATM    9  F1  UNL     1      29.725  -1.304  54.166  1.00  0.00    -0.206 F 
HETATM   10  C9  UNL     1      29.083   0.911  53.664  1.00  0.00     0.043 A 
HETATM   11  C10 UNL     1      28.204   1.770  53.071  1.00  0.00     0.014 A 
ENDBRANCH   4   5
ENDBRANCH   2   3
BRANCH   2  12
HETATM   12  C11 UNL     1      23.956   3.647  50.041  1.00  0.00    -0.006 A 
HETATM   13  C12 UNL     1      23.153   4.271  50.968  1.00  0.00     0.014 A 
HETATM   14  C13 UNL     1      21.768   4.080  50.938  1.00  0.00     0.001 A 
HETATM   15  C14 UNL     1      21.270   3.255  49.956  1.00  0.00     0.000 A 
HETATM   16  C15 UNL     1      22.091   2.648  49.049  1.00  0.00     0.001 A 
HETATM   17  C16 UNL     1      23.463   2.830  49.069  1.00  0.00     0.014 A 
ENDBRANCH   2  12
BRANCH   1  18
HETATM   18  N2  UNL     1      25.839   5.979  49.109  1.00  0.00    -0.253 N 
HETATM   19  H3  UNL     1      25.827   6.087  48.054  1.00  0.00     0.191 HD
BRANCH  18  20
HETATM   20  C1  UNL     1      25.474   7.138  49.877  1.00  0.00     0.185 C 
HETATM   21  S1  UNL     1      23.994   7.799  49.683  1.00  0.00    -0.040 SA
BRANCH  20  22
HETATM   22  N1  UNL     1      26.364   7.737  50.812  1.00  0.00    -0.375 N 
HETATM   23  H1  UNL     1      26.729   7.412  51.742  1.00  0.00     0.158 HD
HETATM   24  H2  UNL     1      27.016   8.448  51.236  1.00  0.00     0.158 HD
ENDBRANCH  20  22
ENDBRANCH  18  20
ENDBRANCH   1  18
TORSDOF 6
ENDMDL
