MODEL 1
REMARK VINA RESULT:      -8.4      0.000      0.000
REMARK  3 active torsions:
REMARK  status: ('A' for Active; 'I' for Inactive)
REMARK    1  A    between atoms: C9_10  and  N2_11 
REMARK    2  A    between atoms: C10_12  and  N3_13 
REMARK    3  A    between atoms: N3_13  and  C11_14 
ROOT
HETATM    1  C1  UNL     1      26.673   0.242  54.942  1.00  0.00     0.019 C 
HETATM    2  C2  UNL     1      26.078   0.640  53.588  1.00  0.00    -0.025 A 
HETATM    3  C3  UNL     1      27.167   0.404  52.536  1.00  0.00     0.019 C 
HETATM    4  C4  UNL     1      24.949  -0.264  53.310  1.00  0.00    -0.015 A 
HETATM    5  C5  UNL     1      23.689   0.030  53.033  1.00  0.00     0.028 A 
HETATM    6  C6  UNL     1      23.396   1.455  53.000  1.00  0.00     0.050 A 
HETATM    7  C7  UNL     1      24.332   2.363  53.233  1.00  0.00     0.034 A 
HETATM    8  C8  UNL     1      25.760   2.093  53.549  1.00  0.00     0.072 A 
HETATM    9  N1  UNL     1      24.257   3.802  53.250  1.00  0.00    -0.357 N 
HETATM   10  C9  UNL     1      23.443   4.845  52.740  1.00  0.00     0.366 C 
HETATM   11  C10 UNL     1      22.654   4.491  51.537  1.00  0.00     0.055 C 
HETATM   12  C18 UNL     1      21.721   3.558  51.465  1.00  0.00     0.021 C 
HETATM   13  C19 UNL     1      21.071   2.563  52.328  1.00  0.00     0.149 C 
HETATM   14  N4  UNL     1      22.009   1.491  52.687  1.00  0.00    -0.385 N 
HETATM   15  H11 UNL     1      25.049   4.224  53.814  1.00  0.00     0.162 HD
HETATM   16  H26 UNL     1      21.570   0.571  52.720  1.00  0.00     0.160 HD
ENDROOT
BRANCH  11  17
HETATM   17  N3  UNL     1      22.843   5.145  50.314  1.00  0.00    -0.385 N 
HETATM   18  H15 UNL     1      22.750   6.159  50.583  1.00  0.00     0.160 HD
BRANCH  17  19
HETATM   19  C11 UNL     1      23.097   4.576  49.016  1.00  0.00     0.090 C 
HETATM   20  C12 UNL     1      24.543   4.228  48.988  1.00  0.00     0.054 C 
HETATM   21  C13 UNL     1      25.491   5.267  49.436  1.00  0.00    -0.001 C 
HETATM   22  C14 UNL     1      25.539   6.514  48.928  1.00  0.00     0.031 C 
HETATM   23 CL1  UNL     1      26.730   7.651  49.564  1.00  0.00    -0.085 Cl
HETATM   24  C15 UNL     1      24.710   7.115  47.866  1.00  0.00     0.043 C 
HETATM   25  C16 UNL     1      23.491   6.620  47.583  1.00  0.00     0.015 C 
HETATM   26 CL2  UNL     1      22.735   7.538  46.270  1.00  0.00    -0.089 Cl
HETATM   27  C17 UNL     1      22.593   5.553  48.027  1.00  0.00     0.076 C 
ENDBRANCH  17  19
ENDBRANCH  11  17
BRANCH  10  28
HETATM   28  N2  UNL     1      24.200   6.051  52.407  1.00  0.00     0.107 N 
HETATM   29  H13 UNL     1      23.869   6.466  51.505  1.00  0.00     0.316 HD
HETATM   30  H14 UNL     1      24.215   6.727  53.180  1.00  0.00     0.316 HD
ENDBRANCH  10  28
TORSDOF 3
ENDMDL
MODEL 2
REMARK VINA RESULT:      -8.0      1.846      2.661
REMARK  3 active torsions:
REMARK  status: ('A' for Active; 'I' for Inactive)
REMARK    1  A    between atoms: C9_10  and  N2_11 
REMARK    2  A    between atoms: C10_12  and  N3_13 
REMARK    3  A    between atoms: N3_13  and  C11_14 
ROOT
HETATM    1  C1  UNL     1      26.432   0.298  54.677  1.00  0.00     0.019 C 
HETATM    2  C2  UNL     1      25.814   0.762  53.354  1.00  0.00    -0.025 A 
HETATM    3  C3  UNL     1      26.839   0.464  52.255  1.00  0.00     0.019 C 
HETATM    4  C4  UNL     1      24.611  -0.051  53.112  1.00  0.00    -0.015 A 
HETATM    5  C5  UNL     1      23.366   0.339  52.891  1.00  0.00     0.028 A 
HETATM    6  C6  UNL     1      23.178   1.782  52.890  1.00  0.00     0.050 A 
HETATM    7  C7  UNL     1      24.188   2.615  53.096  1.00  0.00     0.034 A 
HETATM    8  C8  UNL     1      25.603   2.235  53.349  1.00  0.00     0.072 A 
HETATM    9  N1  UNL     1      24.221   4.055  53.136  1.00  0.00    -0.357 N 
HETATM   10  C9  UNL     1      23.466   5.164  52.675  1.00  0.00     0.366 C 
HETATM   11  C10 UNL     1      22.606   4.889  51.501  1.00  0.00     0.055 C 
HETATM   12  C18 UNL     1      21.604   4.029  51.455  1.00  0.00     0.021 C 
HETATM   13  C19 UNL     1      20.917   3.070  52.330  1.00  0.00     0.149 C 
HETATM   14  N4  UNL     1      21.787   1.926  52.635  1.00  0.00    -0.385 N 
HETATM   15  H11 UNL     1      25.064   4.408  53.672  1.00  0.00     0.162 HD
HETATM   16  H26 UNL     1      21.282   1.040  52.674  1.00  0.00     0.160 HD
ENDROOT
BRANCH  11  17
HETATM   17  N3  UNL     1      22.793   5.548  50.280  1.00  0.00    -0.385 N 
HETATM   18  H15 UNL     1      22.080   6.322  50.329  1.00  0.00     0.160 HD
BRANCH  17  19
HETATM   19  C11 UNL     1      23.723   5.245  49.224  1.00  0.00     0.090 C 
HETATM   20  C12 UNL     1      23.508   6.272  48.170  1.00  0.00     0.054 C 
HETATM   21  C13 UNL     1      22.115   6.523  47.753  1.00  0.00    -0.001 C 
HETATM   22  C14 UNL     1      21.272   5.564  47.322  1.00  0.00     0.031 C 
HETATM   23 CL1  UNL     1      19.630   6.015  46.855  1.00  0.00    -0.085 Cl
HETATM   24  C15 UNL     1      21.514   4.117  47.170  1.00  0.00     0.043 C 
HETATM   25  C16 UNL     1      22.482   3.504  47.877  1.00  0.00     0.015 C 
HETATM   26 CL2  UNL     1      22.539   1.776  47.487  1.00  0.00    -0.089 Cl
HETATM   27  C17 UNL     1      23.505   3.826  48.873  1.00  0.00     0.076 C 
ENDBRANCH  17  19
ENDBRANCH  11  17
BRANCH  10  28
HETATM   28  N2  UNL     1      24.298   6.316  52.328  1.00  0.00     0.107 N 
HETATM   29  H13 UNL     1      23.871   6.865  51.547  1.00  0.00     0.316 HD
HETATM   30  H14 UNL     1      24.526   6.891  53.147  1.00  0.00     0.316 HD
ENDBRANCH  10  28
TORSDOF 3
ENDMDL
MODEL 3
REMARK VINA RESULT:      -7.6      1.508      2.300
REMARK  3 active torsions:
REMARK  status: ('A' for Active; 'I' for Inactive)
REMARK    1  A    between atoms: C9_10  and  N2_11 
REMARK    2  A    between atoms: C10_12  and  N3_13 
REMARK    3  A    between atoms: N3_13  and  C11_14 
ROOT
HETATM    1  C1  UNL     1      26.465   0.247  54.604  1.00  0.00     0.019 C 
HETATM    2  C2  UNL     1      25.801   0.692  53.297  1.00  0.00    -0.025 A 
HETATM    3  C3  UNL     1      26.792   0.389  52.168  1.00  0.00     0.019 C 
HETATM    4  C4  UNL     1      24.596  -0.131  53.103  1.00  0.00    -0.015 A 
HETATM    5  C5  UNL     1      23.341   0.249  52.918  1.00  0.00     0.028 A 
HETATM    6  C6  UNL     1      23.144   1.691  52.908  1.00  0.00     0.050 A 
HETATM    7  C7  UNL     1      24.155   2.532  53.072  1.00  0.00     0.034 A 
HETATM    8  C8  UNL     1      25.580   2.164  53.283  1.00  0.00     0.072 A 
HETATM    9  N1  UNL     1      24.180   3.973  53.095  1.00  0.00    -0.357 N 
HETATM   10  C9  UNL     1      23.403   5.072  52.647  1.00  0.00     0.366 C 
HETATM   11  C10 UNL     1      22.507   4.778  51.505  1.00  0.00     0.055 C 
HETATM   12  C18 UNL     1      21.509   3.911  51.501  1.00  0.00     0.021 C 
HETATM   13  C19 UNL     1      20.858   2.958  52.408  1.00  0.00     0.149 C 
HETATM   14  N4  UNL     1      21.744   1.823  52.697  1.00  0.00    -0.385 N 
HETATM   15  H11 UNL     1      25.038   4.337  53.600  1.00  0.00     0.162 HD
HETATM   16  H26 UNL     1      21.247   0.934  52.762  1.00  0.00     0.160 HD
ENDROOT
BRANCH  11  17
HETATM   17  N3  UNL     1      22.649   5.425  50.271  1.00  0.00    -0.385 N 
HETATM   18  H15 UNL     1      23.341   4.808  49.771  1.00  0.00     0.160 HD
BRANCH  17  19
HETATM   19  C11 UNL     1      22.014   6.629  49.805  1.00  0.00     0.090 C 
HETATM   20  C12 UNL     1      20.801   6.200  49.058  1.00  0.00     0.054 C 
HETATM   21  C13 UNL     1      20.975   5.131  48.056  1.00  0.00    -0.001 C 
HETATM   22  C14 UNL     1      21.867   5.180  47.048  1.00  0.00     0.031 C 
HETATM   23 CL1  UNL     1      21.962   3.824  45.922  1.00  0.00    -0.085 Cl
HETATM   24  C15 UNL     1      22.832   6.246  46.715  1.00  0.00     0.043 C 
HETATM   25  C16 UNL     1      23.250   7.113  47.655  1.00  0.00     0.015 C 
HETATM   26 CL2  UNL     1      24.399   8.273  46.967  1.00  0.00    -0.089 Cl
HETATM   27  C17 UNL     1      23.049   7.392  49.078  1.00  0.00     0.076 C 
ENDBRANCH  17  19
ENDBRANCH  11  17
BRANCH  10  28
HETATM   28  N2  UNL     1      24.215   6.225  52.261  1.00  0.00     0.107 N 
HETATM   29  H13 UNL     1      23.899   7.090  52.758  1.00  0.00     0.316 HD
HETATM   30  H14 UNL     1      25.220   6.046  52.364  1.00  0.00     0.316 HD
ENDBRANCH  10  28
TORSDOF 3
ENDMDL
MODEL 4
REMARK VINA RESULT:      -7.6      3.296      6.969
REMARK  3 active torsions:
REMARK  status: ('A' for Active; 'I' for Inactive)
REMARK    1  A    between atoms: C9_10  and  N2_11 
REMARK    2  A    between atoms: C10_12  and  N3_13 
REMARK    3  A    between atoms: N3_13  and  C11_14 
ROOT
HETATM    1  C1  UNL     1      28.411   8.123  46.833  1.00  0.00     0.019 C 
HETATM    2  C2  UNL     1      28.188   7.412  48.171  1.00  0.00    -0.025 A 
HETATM    3  C3  UNL     1      29.495   6.692  48.518  1.00  0.00     0.019 C 
HETATM    4  C4  UNL     1      27.931   8.443  49.190  1.00  0.00    -0.015 A 
HETATM    5  C5  UNL     1      26.903   8.570  50.014  1.00  0.00     0.028 A 
HETATM    6  C6  UNL     1      25.892   7.532  49.881  1.00  0.00     0.050 A 
HETATM    7  C7  UNL     1      26.015   6.551  48.999  1.00  0.00     0.034 A 
HETATM    8  C8  UNL     1      27.144   6.358  48.050  1.00  0.00     0.072 A 
HETATM    9  N1  UNL     1      25.145   5.440  48.707  1.00  0.00    -0.357 N 
HETATM   10  C9  UNL     1      24.112   4.689  49.323  1.00  0.00     0.366 C 
HETATM   11  C10 UNL     1      24.114   4.723  50.804  1.00  0.00     0.055 C 
HETATM   12  C18 UNL     1      23.953   5.796  51.558  1.00  0.00     0.021 C 
HETATM   13  C19 UNL     1      23.732   7.240  51.408  1.00  0.00     0.149 C 
HETATM   14  N4  UNL     1      24.925   7.897  50.857  1.00  0.00    -0.385 N 
HETATM   15  H11 UNL     1      25.321   5.056  47.735  1.00  0.00     0.162 HD
HETATM   16  H26 UNL     1      25.097   8.817  51.263  1.00  0.00     0.160 HD
ENDROOT
BRANCH  11  17
HETATM   17  N3  UNL     1      24.296   3.563  51.567  1.00  0.00    -0.385 N 
HETATM   18  H15 UNL     1      24.926   2.985  50.953  1.00  0.00     0.160 HD
BRANCH  17  19
HETATM   19  C11 UNL     1      23.758   3.242  52.863  1.00  0.00     0.090 C 
HETATM   20  C12 UNL     1      24.918   2.884  53.721  1.00  0.00     0.054 C 
HETATM   21  C13 UNL     1      25.889   1.921  53.167  1.00  0.00    -0.001 C 
HETATM   22  C14 UNL     1      25.559   0.701  52.698  1.00  0.00     0.031 C 
HETATM   23 CL1  UNL     1      26.831  -0.346  52.065  1.00  0.00    -0.085 Cl
HETATM   24  C15 UNL     1      24.230   0.066  52.626  1.00  0.00     0.043 C 
HETATM   25  C16 UNL     1      23.111   0.813  52.607  1.00  0.00     0.015 C 
HETATM   26 CL2  UNL     1      21.673  -0.219  52.517  1.00  0.00    -0.089 Cl
HETATM   27  C17 UNL     1      22.713   2.221  52.638  1.00  0.00     0.076 C 
ENDBRANCH  17  19
ENDBRANCH  11  17
BRANCH  10  28
HETATM   28  N2  UNL     1      24.121   3.279  48.934  1.00  0.00     0.107 N 
HETATM   29  H13 UNL     1      23.301   3.053  48.324  1.00  0.00     0.316 HD
HETATM   30  H14 UNL     1      25.018   2.994  48.525  1.00  0.00     0.316 HD
ENDBRANCH  10  28
TORSDOF 3
ENDMDL
MODEL 5
REMARK VINA RESULT:      -7.5      3.453      6.929
REMARK  3 active torsions:
REMARK  status: ('A' for Active; 'I' for Inactive)
REMARK    1  A    between atoms: C9_10  and  N2_11 
REMARK    2  A    between atoms: C10_12  and  N3_13 
REMARK    3  A    between atoms: N3_13  and  C11_14 
ROOT
HETATM    1  C1  UNL     1      26.251   9.254  48.832  1.00  0.00     0.019 C 
HETATM    2  C2  UNL     1      25.615   7.893  48.531  1.00  0.00    -0.025 A 
HETATM    3  C3  UNL     1      24.619   8.110  47.386  1.00  0.00     0.019 C 
HETATM    4  C4  UNL     1      26.683   6.993  48.064  1.00  0.00    -0.015 A 
HETATM    5  C5  UNL     1      27.043   5.807  48.531  1.00  0.00     0.028 A 
HETATM    6  C6  UNL     1      26.260   5.344  49.667  1.00  0.00     0.050 A 
HETATM    7  C7  UNL     1      25.274   6.068  50.173  1.00  0.00     0.034 A 
HETATM    8  C8  UNL     1      24.825   7.403  49.692  1.00  0.00     0.072 A 
HETATM    9  N1  UNL     1      24.387   5.801  51.278  1.00  0.00    -0.357 N 
HETATM   10  C9  UNL     1      23.893   4.699  52.021  1.00  0.00     0.366 C 
HETATM   11  C10 UNL     1      23.932   3.400  51.312  1.00  0.00     0.055 C 
HETATM   12  C18 UNL     1      25.017   2.781  50.879  1.00  0.00     0.021 C 
HETATM   13  C19 UNL     1      26.473   2.972  50.855  1.00  0.00     0.149 C 
HETATM   14  N4  UNL     1      26.839   4.079  49.962  1.00  0.00    -0.385 N 
HETATM   15  H11 UNL     1      23.969   6.696  51.663  1.00  0.00     0.162 HD
HETATM   16  H26 UNL     1      27.699   3.904  49.440  1.00  0.00     0.160 HD
ENDROOT
BRANCH  11  17
HETATM   17  N3  UNL     1      22.765   2.682  51.022  1.00  0.00    -0.385 N 
HETATM   18  H15 UNL     1      22.072   3.449  50.822  1.00  0.00     0.160 HD
BRANCH  17  19
HETATM   19  C11 UNL     1      22.562   1.257  51.005  1.00  0.00     0.090 C 
HETATM   20  C12 UNL     1      21.435   1.006  50.067  1.00  0.00     0.054 C 
HETATM   21  C13 UNL     1      20.223   1.830  50.241  1.00  0.00    -0.001 C 
HETATM   22  C14 UNL     1      19.544   1.939  51.400  1.00  0.00     0.031 C 
HETATM   23 CL1  UNL     1      18.108   2.963  51.458  1.00  0.00    -0.085 Cl
HETATM   24  C15 UNL     1      19.826   1.304  52.702  1.00  0.00     0.043 C 
HETATM   25  C16 UNL     1      21.068   0.886  53.008  1.00  0.00     0.015 C 
HETATM   26 CL2  UNL     1      21.101   0.167  54.628  1.00  0.00    -0.089 Cl
HETATM   27  C17 UNL     1      22.405   0.842  52.415  1.00  0.00     0.076 C 
ENDBRANCH  17  19
ENDBRANCH  11  17
BRANCH  10  28
HETATM   28  N2  UNL     1      22.516   4.889  52.477  1.00  0.00     0.107 N 
HETATM   29  H13 UNL     1      21.848   4.327  51.899  1.00  0.00     0.316 HD
HETATM   30  H14 UNL     1      22.414   4.724  53.485  1.00  0.00     0.316 HD
ENDBRANCH  10  28
TORSDOF 3
ENDMDL
MODEL 6
REMARK VINA RESULT:      -7.3      5.949     10.398
REMARK  3 active torsions:
REMARK  status: ('A' for Active; 'I' for Inactive)
REMARK    1  A    between atoms: C9_10  and  N2_11 
REMARK    2  A    between atoms: C10_12  and  N3_13 
REMARK    3  A    between atoms: N3_13  and  C11_14 
ROOT
HETATM    1  C1  UNL     1      29.054  14.833  46.362  1.00  0.00     0.019 C 
HETATM    2  C2  UNL     1      28.904  13.321  46.161  1.00  0.00    -0.025 A 
HETATM    3  C3  UNL     1      27.652  13.108  45.303  1.00  0.00     0.019 C 
HETATM    4  C4  UNL     1      30.078  12.850  45.409  1.00  0.00    -0.015 A 
HETATM    5  C5  UNL     1      30.946  11.899  45.719  1.00  0.00     0.028 A 
HETATM    6  C6  UNL     1      30.686  11.237  46.988  1.00  0.00     0.050 A 
HETATM    7  C7  UNL     1      29.657  11.576  47.751  1.00  0.00     0.034 A 
HETATM    8  C8  UNL     1      28.653  12.632  47.455  1.00  0.00     0.072 A 
HETATM    9  N1  UNL     1      29.224  11.057  49.025  1.00  0.00    -0.357 N 
HETATM   10  C9  UNL     1      29.360   9.887  49.814  1.00  0.00     0.366 C 
HETATM   11  C10 UNL     1      29.696   8.658  49.057  1.00  0.00     0.055 C 
HETATM   12  C18 UNL     1      30.793   8.457  48.347  1.00  0.00     0.021 C 
HETATM   13  C19 UNL     1      32.027   9.162  47.979  1.00  0.00     0.149 C 
HETATM   14  N4  UNL     1      31.738  10.284  47.076  1.00  0.00    -0.385 N 
HETATM   15  H11 UNL     1      28.616  11.755  49.540  1.00  0.00     0.162 HD
HETATM   16  H26 UNL     1      32.448  10.409  46.354  1.00  0.00     0.160 HD
ENDROOT
BRANCH  11  17
HETATM   17  N3  UNL     1      28.837   7.554  49.027  1.00  0.00    -0.385 N 
HETATM   18  H15 UNL     1      28.561   7.453  50.038  1.00  0.00     0.160 HD
BRANCH  17  19
HETATM   19  C11 UNL     1      28.433   6.755  47.899  1.00  0.00     0.090 C 
HETATM   20  C12 UNL     1      27.310   7.485  47.250  1.00  0.00     0.054 C 
HETATM   21  C13 UNL     1      26.224   7.959  48.129  1.00  0.00    -0.001 C 
HETATM   22  C14 UNL     1      25.533   7.166  48.971  1.00  0.00     0.031 C 
HETATM   23 CL1  UNL     1      24.257   7.875  49.963  1.00  0.00    -0.085 Cl
HETATM   24  C15 UNL     1      25.682   5.717  49.211  1.00  0.00     0.043 C 
HETATM   25  C16 UNL     1      26.841   5.091  48.939  1.00  0.00     0.015 C 
HETATM   26 CL2  UNL     1      26.723   3.366  49.325  1.00  0.00    -0.089 Cl
HETATM   27  C17 UNL     1      28.176   5.397  48.421  1.00  0.00     0.076 C 
ENDBRANCH  17  19
ENDBRANCH  11  17
BRANCH  10  28
HETATM   28  N2  UNL     1      28.163   9.584  50.598  1.00  0.00     0.107 N 
HETATM   29  H13 UNL     1      27.557   8.888  50.105  1.00  0.00     0.316 HD
HETATM   30  H14 UNL     1      28.388   9.312  51.561  1.00  0.00     0.316 HD
ENDBRANCH  10  28
TORSDOF 3
ENDMDL
MODEL 7
REMARK VINA RESULT:      -7.2      6.465      9.694
REMARK  3 active torsions:
REMARK  status: ('A' for Active; 'I' for Inactive)
REMARK    1  A    between atoms: C9_10  and  N2_11 
REMARK    2  A    between atoms: C10_12  and  N3_13 
REMARK    3  A    between atoms: N3_13  and  C11_14 
ROOT
HETATM    1  C1  UNL     1      24.465   7.621  49.790  1.00  0.00     0.019 C 
HETATM    2  C2  UNL     1      25.557   7.021  48.899  1.00  0.00    -0.025 A 
HETATM    3  C3  UNL     1      25.393   5.498  48.957  1.00  0.00     0.019 C 
HETATM    4  C4  UNL     1      25.308   7.471  47.519  1.00  0.00    -0.015 A 
HETATM    5  C5  UNL     1      26.117   8.107  46.687  1.00  0.00     0.028 A 
HETATM    6  C6  UNL     1      27.437   8.394  47.229  1.00  0.00     0.050 A 
HETATM    7  C7  UNL     1      27.775   8.036  48.459  1.00  0.00     0.034 A 
HETATM    8  C8  UNL     1      26.911   7.322  49.437  1.00  0.00     0.072 A 
HETATM    9  N1  UNL     1      29.009   8.218  49.182  1.00  0.00    -0.357 N 
HETATM   10  C9  UNL     1      30.384   8.452  48.924  1.00  0.00     0.366 C 
HETATM   11  C10 UNL     1      30.850   8.029  47.584  1.00  0.00     0.055 C 
HETATM   12  C18 UNL     1      30.425   8.504  46.426  1.00  0.00     0.021 C 
HETATM   13  C19 UNL     1      29.470   9.494  45.911  1.00  0.00     0.149 C 
HETATM   14  N4  UNL     1      28.088   9.063  46.157  1.00  0.00    -0.385 N 
HETATM   15  H11 UNL     1      28.856   8.163  50.229  1.00  0.00     0.162 HD
HETATM   16  H26 UNL     1      27.454   9.297  45.392  1.00  0.00     0.160 HD
ENDROOT
BRANCH  11  17
HETATM   17  N3  UNL     1      31.826   7.038  47.422  1.00  0.00    -0.385 N 
HETATM   18  H15 UNL     1      31.356   6.189  47.829  1.00  0.00     0.160 HD
BRANCH  17  19
HETATM   19  C11 UNL     1      33.141   7.153  46.847  1.00  0.00     0.090 C 
HETATM   20  C12 UNL     1      33.163   6.245  45.669  1.00  0.00     0.054 C 
HETATM   21  C13 UNL     1      32.663   4.872  45.872  1.00  0.00    -0.001 C 
HETATM   22  C14 UNL     1      33.123   4.034  46.822  1.00  0.00     0.031 C 
HETATM   23 CL1  UNL     1      32.428   2.416  46.946  1.00  0.00    -0.085 Cl
HETATM   24  C15 UNL     1      34.172   4.266  47.832  1.00  0.00     0.043 C 
HETATM   25  C16 UNL     1      34.491   5.515  48.219  1.00  0.00     0.015 C 
HETATM   26 CL2  UNL     1      35.778   5.483  49.436  1.00  0.00    -0.089 Cl
HETATM   27  C17 UNL     1      34.099   6.898  47.944  1.00  0.00     0.076 C 
ENDBRANCH  17  19
ENDBRANCH  11  17
BRANCH  10  28
HETATM   28  N2  UNL     1      31.265   7.810  49.899  1.00  0.00     0.107 N 
HETATM   29  H13 UNL     1      32.201   8.277  49.925  1.00  0.00     0.316 HD
HETATM   30  H14 UNL     1      30.829   7.731  50.825  1.00  0.00     0.316 HD
ENDBRANCH  10  28
TORSDOF 3
ENDMDL
MODEL 8
REMARK VINA RESULT:      -7.2      3.097      4.984
REMARK  3 active torsions:
REMARK  status: ('A' for Active; 'I' for Inactive)
REMARK    1  A    between atoms: C9_10  and  N2_11 
REMARK    2  A    between atoms: C10_12  and  N3_13 
REMARK    3  A    between atoms: N3_13  and  C11_14 
ROOT
HETATM    1  C1  UNL     1      23.262   2.124  52.725  1.00  0.00     0.019 C 
HETATM    2  C2  UNL     1      24.137   2.521  51.531  1.00  0.00    -0.025 A 
HETATM    3  C3  UNL     1      25.367   1.608  51.557  1.00  0.00     0.019 C 
HETATM    4  C4  UNL     1      23.371   2.250  50.304  1.00  0.00    -0.015 A 
HETATM    5  C5  UNL     1      23.065   3.068  49.309  1.00  0.00     0.028 A 
HETATM    6  C6  UNL     1      23.565   4.425  49.468  1.00  0.00     0.050 A 
HETATM    7  C7  UNL     1      24.267   4.786  50.532  1.00  0.00     0.034 A 
HETATM    8  C8  UNL     1      24.641   3.914  51.677  1.00  0.00     0.072 A 
HETATM    9  N1  UNL     1      24.848   6.058  50.883  1.00  0.00    -0.357 N 
HETATM   10  C9  UNL     1      25.268   7.260  50.259  1.00  0.00     0.366 C 
HETATM   11  C10 UNL     1      25.603   7.133  48.822  1.00  0.00     0.055 C 
HETATM   12  C18 UNL     1      24.772   6.776  47.857  1.00  0.00     0.021 C 
HETATM   13  C19 UNL     1      23.366   6.390  47.685  1.00  0.00     0.149 C 
HETATM   14  N4  UNL     1      23.107   5.077  48.291  1.00  0.00    -0.385 N 
HETATM   15  H11 UNL     1      25.018   6.130  51.927  1.00  0.00     0.162 HD
HETATM   16  H26 UNL     1      22.455   4.509  47.749  1.00  0.00     0.160 HD
ENDROOT
BRANCH  11  17
HETATM   17  N3  UNL     1      26.892   7.390  48.340  1.00  0.00    -0.385 N 
HETATM   18  H15 UNL     1      27.489   6.779  48.954  1.00  0.00     0.160 HD
BRANCH  17  19
HETATM   19  C11 UNL     1      27.298   8.270  47.275  1.00  0.00     0.090 C 
HETATM   20  C12 UNL     1      28.534   7.680  46.693  1.00  0.00     0.054 C 
HETATM   21  C13 UNL     1      29.592   7.276  47.639  1.00  0.00    -0.001 C 
HETATM   22  C14 UNL     1      30.135   8.097  48.560  1.00  0.00     0.031 C 
HETATM   23 CL1  UNL     1      31.397   7.474  49.625  1.00  0.00    -0.085 Cl
HETATM   24  C15 UNL     1      29.825   9.513  48.835  1.00  0.00     0.043 C 
HETATM   25  C16 UNL     1      28.633  10.036  48.493  1.00  0.00     0.015 C 
HETATM   26 CL2  UNL     1      28.549  11.747  48.945  1.00  0.00    -0.089 Cl
HETATM   27  C17 UNL     1      27.379   9.624  47.861  1.00  0.00     0.076 C 
ENDBRANCH  17  19
ENDBRANCH  11  17
BRANCH  10  28
HETATM   28  N2  UNL     1      26.429   7.866  50.910  1.00  0.00     0.107 N 
HETATM   29  H13 UNL     1      27.286   7.765  50.319  1.00  0.00     0.316 HD
HETATM   30  H14 UNL     1      26.251   8.834  51.199  1.00  0.00     0.316 HD
ENDBRANCH  10  28
TORSDOF 3
ENDMDL
MODEL 9
REMARK VINA RESULT:      -7.2      7.055     10.155
REMARK  3 active torsions:
REMARK  status: ('A' for Active; 'I' for Inactive)
REMARK    1  A    between atoms: C9_10  and  N2_11 
REMARK    2  A    between atoms: C10_12  and  N3_13 
REMARK    3  A    between atoms: N3_13  and  C11_14 
ROOT
HETATM    1  C1  UNL     1      35.376   9.600  44.863  1.00  0.00     0.019 C 
HETATM    2  C2  UNL     1      34.031   8.872  44.950  1.00  0.00    -0.025 A 
HETATM    3  C3  UNL     1      33.030   9.684  44.121  1.00  0.00     0.019 C 
HETATM    4  C4  UNL     1      34.196   7.548  44.328  1.00  0.00    -0.015 A 
HETATM    5  C5  UNL     1      33.954   6.348  44.833  1.00  0.00     0.028 A 
HETATM    6  C6  UNL     1      33.452   6.359  46.199  1.00  0.00     0.050 A 
HETATM    7  C7  UNL     1      33.263   7.492  46.860  1.00  0.00     0.034 A 
HETATM    8  C8  UNL     1      33.516   8.864  46.346  1.00  0.00     0.072 A 
HETATM    9  N1  UNL     1      32.782   7.725  48.199  1.00  0.00    -0.357 N 
HETATM   10  C9  UNL     1      32.019   7.070  49.199  1.00  0.00     0.366 C 
HETATM   11  C10 UNL     1      31.096   6.025  48.698  1.00  0.00     0.055 C 
HETATM   12  C18 UNL     1      31.444   4.919  48.063  1.00  0.00     0.021 C 
HETATM   13  C19 UNL     1      32.658   4.238  47.596  1.00  0.00     0.149 C 
HETATM   14  N4  UNL     1      33.279   4.979  46.490  1.00  0.00    -0.385 N 
HETATM   15  H11 UNL     1      33.084   8.674  48.559  1.00  0.00     0.162 HD
HETATM   16  H26 UNL     1      33.674   4.369  45.773  1.00  0.00     0.160 HD
ENDROOT
BRANCH  11  17
HETATM   17  N3  UNL     1      29.709   6.128  48.859  1.00  0.00    -0.385 N 
HETATM   18  H15 UNL     1      29.619   6.395  49.873  1.00  0.00     0.160 HD
BRANCH  17  19
HETATM   19  C11 UNL     1      28.670   5.918  47.886  1.00  0.00     0.090 C 
HETATM   20  C12 UNL     1      28.334   7.260  47.338  1.00  0.00     0.054 C 
HETATM   21  C13 UNL     1      28.099   8.342  48.313  1.00  0.00    -0.001 C 
HETATM   22  C14 UNL     1      27.206   8.269  49.320  1.00  0.00     0.031 C 
HETATM   23 CL1  UNL     1      27.033   9.646  50.411  1.00  0.00    -0.085 Cl
HETATM   24  C15 UNL     1      26.300   7.161  49.677  1.00  0.00     0.043 C 
HETATM   25  C16 UNL     1      26.578   5.899  49.303  1.00  0.00     0.015 C 
HETATM   26 CL2  UNL     1      25.319   4.789  49.870  1.00  0.00    -0.089 Cl
HETATM   27  C17 UNL     1      27.605   5.156  48.570  1.00  0.00     0.076 C 
ENDBRANCH  17  19
ENDBRANCH  11  17
BRANCH  10  28
HETATM   28  N2  UNL     1      31.215   7.993  50.000  1.00  0.00     0.107 N 
HETATM   29  H13 UNL     1      30.436   8.401  49.433  1.00  0.00     0.316 HD
HETATM   30  H14 UNL     1      30.895   7.569  50.878  1.00  0.00     0.316 HD
ENDBRANCH  10  28
TORSDOF 3
ENDMDL
