MODEL 1
REMARK VINA RESULT:      -6.9      0.000      0.000
REMARK  6 active torsions:
REMARK  status: ('A' for Active; 'I' for Inactive)
REMARK    1  A    between atoms: C2_2  and  N1_3 
REMARK    2  A    between atoms: N1_3  and  C4_5 
REMARK    3  A    between atoms: C4_5  and  C5_6 
REMARK    4  A    between atoms: C6_7  and  C7_8 
REMARK       I    between atoms: C7_8  and  N2_10 
REMARK    5  A    between atoms: N2_10  and  N3_11 
REMARK    6  A    between atoms: N3_11  and  C8_12 
ROOT
HETATM    1  N3  UNL     1      24.313   3.326  51.763  1.00  0.00    -0.301 N 
HETATM    2  H12 UNL     1      23.460   3.844  52.066  1.00  0.00     0.186 HD
ENDROOT
BRANCH   1   3
HETATM    3  N2  UNL     1      25.445   3.851  51.154  1.00  0.00    -0.259 N 
HETATM    4  C7  UNL     1      25.355   4.137  49.767  1.00  0.00     0.315 C 
HETATM    5  O1  UNL     1      24.299   3.926  49.115  1.00  0.00    -0.256 OA
HETATM    6  H11 UNL     1      26.246   3.976  51.798  1.00  0.00     0.191 HD
BRANCH   4   7
HETATM    7  C6  UNL     1      26.558   4.684  49.166  1.00  0.00    -0.002 C 
HETATM    8  C5  UNL     1      27.571   5.134  48.684  1.00  0.00    -0.066 C 
BRANCH   8   9
HETATM    9  C4  UNL     1      28.815   5.660  48.106  1.00  0.00     0.365 C 
BRANCH   9  10
HETATM   10  N1  UNL     1      28.510   6.963  47.603  1.00  0.00     0.094 N 
HETATM   11  C3  UNL     1      28.183   7.917  48.622  1.00  0.00     0.310 C 
BRANCH  10  12
HETATM   12  C2  UNL     1      29.664   7.453  46.873  1.00  0.00     0.268 C 
HETATM   13  C1  UNL     1      30.893   6.654  47.226  1.00  0.00     0.037 C 
ENDBRANCH  10  12
ENDBRANCH   9  10
ENDBRANCH   8   9
ENDBRANCH   4   7
ENDBRANCH   1   3
BRANCH   1  14
HETATM   14  C8  UNL     1      24.042   1.977  52.117  1.00  0.00     0.033 C 
HETATM   15  C9  UNL     1      24.675   1.352  53.104  1.00  0.00    -0.030 C 
HETATM   16  C10 UNL     1      25.721   1.967  53.946  1.00  0.00     0.048 C 
HETATM   17  C11 UNL     1      24.181  -0.050  53.225  1.00  0.00     0.173 A 
HETATM   18  N4  UNL     1      24.648  -0.763  54.359  1.00  0.00    -0.285 NA
HETATM   19  C14 UNL     1      22.707  -0.072  53.360  1.00  0.00    -0.003 A 
HETATM   20  C12 UNL     1      23.707  -1.198  55.111  1.00  0.00     0.143 A 
HETATM   21  C13 UNL     1      22.386  -0.817  54.569  1.00  0.00     0.073 A 
HETATM   22  N5  UNL     1      21.206  -1.036  54.976  1.00  0.00    -0.298 NA
HETATM   23  H18 UNL     1      20.364  -0.694  54.472  1.00  0.00     0.187 HD
HETATM   24  C15 UNL     1      22.077   0.586  52.392  1.00  0.00    -0.009 C 
HETATM   25  C16 UNL     1      22.994   1.219  51.361  1.00  0.00     0.086 C 
ENDBRANCH   1  14
TORSDOF 6
ENDMDL
MODEL 2
REMARK VINA RESULT:      -6.9      0.962      1.323
REMARK  6 active torsions:
REMARK  status: ('A' for Active; 'I' for Inactive)
REMARK    1  A    between atoms: C2_2  and  N1_3 
REMARK    2  A    between atoms: N1_3  and  C4_5 
REMARK    3  A    between atoms: C4_5  and  C5_6 
REMARK    4  A    between atoms: C6_7  and  C7_8 
REMARK       I    between atoms: C7_8  and  N2_10 
REMARK    5  A    between atoms: N2_10  and  N3_11 
REMARK    6  A    between atoms: N3_11  and  C8_12 
ROOT
HETATM    1  N3  UNL     1      24.853   3.603  51.573  1.00  0.00    -0.301 N 
HETATM    2  H12 UNL     1      24.147   4.266  51.962  1.00  0.00     0.186 HD
ENDROOT
BRANCH   1   3
HETATM    3  N2  UNL     1      26.042   3.922  50.931  1.00  0.00    -0.259 N 
HETATM    4  C7  UNL     1      25.940   4.525  49.650  1.00  0.00     0.315 C 
HETATM    5  O1  UNL     1      24.825   4.761  49.117  1.00  0.00    -0.256 OA
HETATM    6  H11 UNL     1      26.888   3.676  51.474  1.00  0.00     0.191 HD
BRANCH   4   7
HETATM    7  C6  UNL     1      27.205   4.842  49.011  1.00  0.00    -0.002 C 
HETATM    8  C5  UNL     1      28.264   5.113  48.498  1.00  0.00    -0.066 C 
BRANCH   8   9
HETATM    9  C4  UNL     1      29.565   5.433  47.894  1.00  0.00     0.365 C 
BRANCH   9  10
HETATM   10  N1  UNL     1      30.147   6.459  48.703  1.00  0.00     0.094 N 
HETATM   11  C3  UNL     1      31.548   6.278  48.951  1.00  0.00     0.310 C 
BRANCH  10  12
HETATM   12  C2  UNL     1      29.965   7.731  48.028  1.00  0.00     0.268 C 
HETATM   13  C1  UNL     1      29.400   8.757  48.977  1.00  0.00     0.037 C 
ENDBRANCH  10  12
ENDBRANCH   9  10
ENDBRANCH   8   9
ENDBRANCH   4   7
ENDBRANCH   1   3
BRANCH   1  14
HETATM   14  C8  UNL     1      24.312   2.320  51.853  1.00  0.00     0.033 C 
HETATM   15  C9  UNL     1      24.774   1.542  52.826  1.00  0.00    -0.030 C 
HETATM   16  C10 UNL     1      25.887   1.905  53.727  1.00  0.00     0.048 C 
HETATM   17  C11 UNL     1      24.013   0.260  52.863  1.00  0.00     0.173 A 
HETATM   18  N4  UNL     1      24.290  -0.578  53.974  1.00  0.00    -0.285 NA
HETATM   19  C14 UNL     1      22.560   0.520  52.954  1.00  0.00    -0.003 A 
HETATM   20  C12 UNL     1      23.255  -0.853  54.676  1.00  0.00     0.143 A 
HETATM   21  C13 UNL     1      22.054  -0.199  54.115  1.00  0.00     0.073 A 
HETATM   22  N5  UNL     1      20.839  -0.200  54.476  1.00  0.00    -0.298 NA
HETATM   23  H18 UNL     1      20.099   0.321  53.965  1.00  0.00     0.187 HD
HETATM   24  C15 UNL     1      22.106   1.328  52.001  1.00  0.00    -0.009 C 
HETATM   25  C16 UNL     1      23.167   1.813  51.030  1.00  0.00     0.086 C 
ENDBRANCH   1  14
TORSDOF 6
ENDMDL
MODEL 3
REMARK VINA RESULT:      -6.9      2.936      9.419
REMARK  6 active torsions:
REMARK  status: ('A' for Active; 'I' for Inactive)
REMARK    1  A    between atoms: C2_2  and  N1_3 
REMARK    2  A    between atoms: N1_3  and  C4_5 
REMARK    3  A    between atoms: C4_5  and  C5_6 
REMARK    4  A    between atoms: C6_7  and  C7_8 
REMARK       I    between atoms: C7_8  and  N2_10 
REMARK    5  A    between atoms: N2_10  and  N3_11 
REMARK    6  A    between atoms: N3_11  and  C8_12 
ROOT
HETATM    1  N3  UNL     1      26.669   5.204  49.405  1.00  0.00    -0.301 N 
HETATM    2  H12 UNL     1      25.732   5.654  49.315  1.00  0.00     0.186 HD
ENDROOT
BRANCH   1   3
HETATM    3  N2  UNL     1      27.012   4.130  50.215  1.00  0.00    -0.259 N 
HETATM    4  C7  UNL     1      26.061   3.082  50.331  1.00  0.00     0.315 C 
HETATM    5  O1  UNL     1      24.957   3.121  49.728  1.00  0.00    -0.256 OA
HETATM    6  H11 UNL     1      27.945   4.219  50.653  1.00  0.00     0.191 HD
BRANCH   4   7
HETATM    7  C6  UNL     1      26.456   1.977  51.186  1.00  0.00    -0.002 C 
HETATM    8  C5  UNL     1      26.805   1.064  51.896  1.00  0.00    -0.066 C 
BRANCH   8   9
HETATM    9  C4  UNL     1      27.245  -0.030  52.772  1.00  0.00     0.365 C 
BRANCH   9  10
HETATM   10  N1  UNL     1      27.460   0.545  54.064  1.00  0.00     0.094 N 
HETATM   11  C3  UNL     1      26.467   0.184  55.033  1.00  0.00     0.310 C 
BRANCH  10  12
HETATM   12  C2  UNL     1      28.754   0.103  54.551  1.00  0.00     0.268 C 
HETATM   13  C1  UNL     1      29.342  -0.933  53.626  1.00  0.00     0.037 C 
ENDBRANCH  10  12
ENDBRANCH   9  10
ENDBRANCH   8   9
ENDBRANCH   4   7
ENDBRANCH   1   3
BRANCH   1  14
HETATM   14  C8  UNL     1      27.493   5.943  48.515  1.00  0.00     0.033 C 
HETATM   15  C9  UNL     1      27.112   7.094  47.971  1.00  0.00    -0.030 C 
HETATM   16  C10 UNL     1      25.808   7.741  48.217  1.00  0.00     0.048 C 
HETATM   17  C11 UNL     1      28.185   7.620  47.079  1.00  0.00     0.173 A 
HETATM   18  N4  UNL     1      27.972   8.933  46.582  1.00  0.00    -0.285 NA
HETATM   19  C14 UNL     1      29.470   7.707  47.806  1.00  0.00    -0.003 A 
HETATM   20  C12 UNL     1      28.910   9.750  46.885  1.00  0.00     0.143 A 
HETATM   21  C13 UNL     1      29.955   9.075  47.683  1.00  0.00     0.073 A 
HETATM   22  N5  UNL     1      31.043   9.491  48.183  1.00  0.00    -0.298 NA
HETATM   23  H18 UNL     1      31.681   8.880  48.729  1.00  0.00     0.187 HD
HETATM   24  C15 UNL     1      29.832   6.565  48.381  1.00  0.00    -0.009 C 
HETATM   25  C16 UNL     1      28.856   5.421  48.175  1.00  0.00     0.086 C 
ENDBRANCH   1  14
TORSDOF 6
ENDMDL
MODEL 4
REMARK VINA RESULT:      -6.8      1.903      2.133
REMARK  6 active torsions:
REMARK  status: ('A' for Active; 'I' for Inactive)
REMARK    1  A    between atoms: C2_2  and  N1_3 
REMARK    2  A    between atoms: N1_3  and  C4_5 
REMARK    3  A    between atoms: C4_5  and  C5_6 
REMARK    4  A    between atoms: C6_7  and  C7_8 
REMARK       I    between atoms: C7_8  and  N2_10 
REMARK    5  A    between atoms: N2_10  and  N3_11 
REMARK    6  A    between atoms: N3_11  and  C8_12 
ROOT
HETATM    1  N3  UNL     1      25.518   2.846  52.117  1.00  0.00    -0.301 N 
HETATM    2  H12 UNL     1      26.349   2.633  52.711  1.00  0.00     0.186 HD
ENDROOT
BRANCH   1   3
HETATM    3  N2  UNL     1      25.329   3.955  51.303  1.00  0.00    -0.259 N 
HETATM    4  C7  UNL     1      26.096   4.016  50.110  1.00  0.00     0.315 C 
HETATM    5  O1  UNL     1      26.910   3.108  49.801  1.00  0.00    -0.256 OA
HETATM    6  H11 UNL     1      24.634   4.629  51.670  1.00  0.00     0.191 HD
BRANCH   4   7
HETATM    7  C6  UNL     1      25.871   5.191  49.287  1.00  0.00    -0.002 C 
HETATM    8  C5  UNL     1      25.690   6.180  48.619  1.00  0.00    -0.066 C 
BRANCH   8   9
HETATM    9  C4  UNL     1      25.491   7.394  47.814  1.00  0.00     0.365 C 
BRANCH   9  10
HETATM   10  N1  UNL     1      26.527   8.305  48.190  1.00  0.00     0.094 N 
HETATM   11  C3  UNL     1      26.784   9.326  47.217  1.00  0.00     0.310 C 
BRANCH  10  12
HETATM   12  C2  UNL     1      26.143   8.947  49.433  1.00  0.00     0.268 C 
HETATM   13  C1  UNL     1      27.361   9.276  50.259  1.00  0.00     0.037 C 
ENDBRANCH  10  12
ENDBRANCH   9  10
ENDBRANCH   8   9
ENDBRANCH   4   7
ENDBRANCH   1   3
BRANCH   1  14
HETATM   14  C8  UNL     1      24.643   1.749  52.338  1.00  0.00     0.033 C 
HETATM   15  C9  UNL     1      24.860   0.835  53.278  1.00  0.00    -0.030 C 
HETATM   16  C10 UNL     1      26.016   0.843  54.198  1.00  0.00     0.048 C 
HETATM   17  C11 UNL     1      23.779  -0.191  53.257  1.00  0.00     0.173 A 
HETATM   18  N4  UNL     1      23.799  -1.118  54.331  1.00  0.00    -0.285 NA
HETATM   19  C14 UNL     1      22.450   0.453  53.354  1.00  0.00    -0.003 A 
HETATM   20  C12 UNL     1      22.717  -1.127  55.016  1.00  0.00     0.143 A 
HETATM   21  C13 UNL     1      21.749  -0.147  54.480  1.00  0.00     0.073 A 
HETATM   22  N5  UNL     1      20.575   0.168  54.837  1.00  0.00    -0.298 NA
HETATM   23  H18 UNL     1      20.013   0.892  54.347  1.00  0.00     0.187 HD
HETATM   24  C15 UNL     1      22.248   1.393  52.436  1.00  0.00    -0.009 C 
HETATM   25  C16 UNL     1      23.416   1.609  51.490  1.00  0.00     0.086 C 
ENDBRANCH   1  14
TORSDOF 6
ENDMDL
MODEL 5
REMARK VINA RESULT:      -6.7      3.035      9.993
REMARK  6 active torsions:
REMARK  status: ('A' for Active; 'I' for Inactive)
REMARK    1  A    between atoms: C2_2  and  N1_3 
REMARK    2  A    between atoms: N1_3  and  C4_5 
REMARK    3  A    between atoms: C4_5  and  C5_6 
REMARK    4  A    between atoms: C6_7  and  C7_8 
REMARK       I    between atoms: C7_8  and  N2_10 
REMARK    5  A    between atoms: N2_10  and  N3_11 
REMARK    6  A    between atoms: N3_11  and  C8_12 
ROOT
HETATM    1  N3  UNL     1      29.593   6.709  48.473  1.00  0.00    -0.301 N 
HETATM    2  H12 UNL     1      29.443   7.729  48.317  1.00  0.00     0.186 HD
ENDROOT
BRANCH   1   3
HETATM    3  N2  UNL     1      28.682   5.792  48.978  1.00  0.00    -0.259 N 
HETATM    4  C7  UNL     1      27.326   5.949  48.585  1.00  0.00     0.315 C 
HETATM    5  O1  UNL     1      26.965   6.875  47.814  1.00  0.00    -0.256 OA
HETATM    6  H11 UNL     1      29.105   5.082  49.601  1.00  0.00     0.191 HD
BRANCH   4   7
HETATM    7  C6  UNL     1      26.404   4.972  49.135  1.00  0.00    -0.002 C 
HETATM    8  C5  UNL     1      25.650   4.144  49.589  1.00  0.00    -0.066 C 
BRANCH   8   9
HETATM    9  C4  UNL     1      24.753   3.127  50.154  1.00  0.00     0.365 C 
BRANCH   9  10
HETATM   10  N1  UNL     1      25.247   2.832  51.463  1.00  0.00     0.094 N 
HETATM   11  C3  UNL     1      24.295   2.170  52.307  1.00  0.00     0.310 C 
BRANCH  10  12
HETATM   12  C2  UNL     1      26.411   1.975  51.330  1.00  0.00     0.268 C 
HETATM   13  C1  UNL     1      27.322   2.132  52.520  1.00  0.00     0.037 C 
ENDBRANCH  10  12
ENDBRANCH   9  10
ENDBRANCH   8   9
ENDBRANCH   4   7
ENDBRANCH   1   3
BRANCH   1  14
HETATM   14  C8  UNL     1      30.933   6.489  48.053  1.00  0.00     0.033 C 
HETATM   15  C9  UNL     1      31.875   7.421  48.139  1.00  0.00    -0.030 C 
HETATM   16  C10 UNL     1      31.657   8.781  48.674  1.00  0.00     0.048 C 
HETATM   17  C11 UNL     1      33.167   6.896  47.612  1.00  0.00     0.173 A 
HETATM   18  N4  UNL     1      34.293   7.734  47.817  1.00  0.00    -0.285 NA
HETATM   19  C14 UNL     1      33.527   5.628  48.284  1.00  0.00    -0.003 A 
HETATM   20  C12 UNL     1      35.235   7.170  48.476  1.00  0.00     0.143 A 
HETATM   21  C13 UNL     1      34.863   5.787  48.841  1.00  0.00     0.073 A 
HETATM   22  N5  UNL     1      35.480   4.881  49.476  1.00  0.00    -0.298 NA
HETATM   23  H18 UNL     1      35.074   3.941  49.653  1.00  0.00     0.187 HD
HETATM   24  C15 UNL     1      32.568   4.709  48.230  1.00  0.00    -0.009 C 
HETATM   25  C16 UNL     1      31.314   5.151  47.496  1.00  0.00     0.086 C 
ENDBRANCH   1  14
TORSDOF 6
ENDMDL
MODEL 6
REMARK VINA RESULT:      -6.5      2.322      9.097
REMARK  6 active torsions:
REMARK  status: ('A' for Active; 'I' for Inactive)
REMARK    1  A    between atoms: C2_2  and  N1_3 
REMARK    2  A    between atoms: N1_3  and  C4_5 
REMARK    3  A    between atoms: C4_5  and  C5_6 
REMARK    4  A    between atoms: C6_7  and  C7_8 
REMARK       I    between atoms: C7_8  and  N2_10 
REMARK    5  A    between atoms: N2_10  and  N3_11 
REMARK    6  A    between atoms: N3_11  and  C8_12 
ROOT
HETATM    1  N3  UNL     1      25.112   6.842  50.938  1.00  0.00    -0.301 N 
HETATM    2  H12 UNL     1      25.263   7.814  51.285  1.00  0.00     0.186 HD
ENDROOT
BRANCH   1   3
HETATM    3  N2  UNL     1      24.280   5.873  51.483  1.00  0.00    -0.259 N 
HETATM    4  C7  UNL     1      22.926   5.876  51.059  1.00  0.00     0.315 C 
HETATM    5  O1  UNL     1      22.495   6.715  50.226  1.00  0.00    -0.256 OA
HETATM    6  H11 UNL     1      24.755   5.245  52.155  1.00  0.00     0.191 HD
BRANCH   4   7
HETATM    7  C6  UNL     1      22.087   4.849  51.652  1.00  0.00    -0.002 C 
HETATM    8  C5  UNL     1      21.397   3.981  52.131  1.00  0.00    -0.066 C 
BRANCH   8   9
HETATM    9  C4  UNL     1      20.578   2.909  52.713  1.00  0.00     0.365 C 
BRANCH   9  10
HETATM   10  N1  UNL     1      21.174   1.675  52.306  1.00  0.00     0.094 N 
HETATM   11  C3  UNL     1      22.511   1.488  52.790  1.00  0.00     0.310 C 
BRANCH  10  12
HETATM   12  C2  UNL     1      20.353   0.586  52.801  1.00  0.00     0.268 C 
HETATM   13  C1  UNL     1      20.704   0.267  54.232  1.00  0.00     0.037 C 
ENDBRANCH  10  12
ENDBRANCH   9  10
ENDBRANCH   8   9
ENDBRANCH   4   7
ENDBRANCH   1   3
BRANCH   1  14
HETATM   14  C8  UNL     1      25.950   6.750  49.794  1.00  0.00     0.033 C 
HETATM   15  C9  UNL     1      26.818   7.699  49.461  1.00  0.00    -0.030 C 
HETATM   16  C10 UNL     1      27.021   8.948  50.223  1.00  0.00     0.048 C 
HETATM   17  C11 UNL     1      27.539   7.320  48.212  1.00  0.00     0.173 A 
HETATM   18  N4  UNL     1      28.621   8.167  47.855  1.00  0.00    -0.285 NA
HETATM   19  C14 UNL     1      28.152   5.981  48.351  1.00  0.00    -0.003 A 
HETATM   20  C12 UNL     1      29.738   7.550  47.753  1.00  0.00     0.143 A 
HETATM   21  C13 UNL     1      29.571   6.112  48.050  1.00  0.00     0.073 A 
HETATM   22  N5  UNL     1      30.392   5.147  48.066  1.00  0.00    -0.298 NA
HETATM   23  H18 UNL     1      30.114   4.174  48.299  1.00  0.00     0.187 HD
HETATM   24  C15 UNL     1      27.290   5.039  48.721  1.00  0.00    -0.009 C 
HETATM   25  C16 UNL     1      25.869   5.532  48.924  1.00  0.00     0.086 C 
ENDBRANCH   1  14
TORSDOF 6
ENDMDL
MODEL 7
REMARK VINA RESULT:      -6.5      1.453      1.818
REMARK  6 active torsions:
REMARK  status: ('A' for Active; 'I' for Inactive)
REMARK    1  A    between atoms: C2_2  and  N1_3 
REMARK    2  A    between atoms: N1_3  and  C4_5 
REMARK    3  A    between atoms: C4_5  and  C5_6 
REMARK    4  A    between atoms: C6_7  and  C7_8 
REMARK       I    between atoms: C7_8  and  N2_10 
REMARK    5  A    between atoms: N2_10  and  N3_11 
REMARK    6  A    between atoms: N3_11  and  C8_12 
ROOT
HETATM    1  N3  UNL     1      22.706   3.257  51.122  1.00  0.00    -0.301 N 
HETATM    2  H12 UNL     1      21.734   3.538  51.379  1.00  0.00     0.186 HD
ENDROOT
BRANCH   1   3
HETATM    3  N2  UNL     1      23.662   4.032  50.481  1.00  0.00    -0.259 N 
HETATM    4  C7  UNL     1      24.001   5.270  51.088  1.00  0.00     0.315 C 
HETATM    5  O1  UNL     1      23.460   5.651  52.158  1.00  0.00    -0.256 OA
HETATM    6  H11 UNL     1      24.028   3.608  49.610  1.00  0.00     0.191 HD
BRANCH   4   7
HETATM    7  C6  UNL     1      25.003   6.052  50.387  1.00  0.00    -0.002 C 
HETATM    8  C5  UNL     1      25.839   6.716  49.820  1.00  0.00    -0.066 C 
BRANCH   8   9
HETATM    9  C4  UNL     1      26.867   7.525  49.153  1.00  0.00     0.365 C 
BRANCH   9  10
HETATM   10  N1  UNL     1      27.282   6.785  48.002  1.00  0.00     0.094 N 
HETATM   11  C3  UNL     1      28.203   7.491  47.159  1.00  0.00     0.310 C 
BRANCH  10  12
HETATM   12  C2  UNL     1      27.921   5.562  48.450  1.00  0.00     0.268 C 
HETATM   13  C1  UNL     1      29.398   5.594  48.147  1.00  0.00     0.037 C 
ENDBRANCH  10  12
ENDBRANCH   9  10
ENDBRANCH   8   9
ENDBRANCH   4   7
ENDBRANCH   1   3
BRANCH   1  14
HETATM   14  C8  UNL     1      22.810   1.915  51.576  1.00  0.00     0.033 C 
HETATM   15  C9  UNL     1      23.636   1.549  52.550  1.00  0.00    -0.030 C 
HETATM   16  C10 UNL     1      24.534   2.472  53.274  1.00  0.00     0.048 C 
HETATM   17  C11 UNL     1      23.526   0.082  52.792  1.00  0.00     0.173 A 
HETATM   18  N4  UNL     1      24.223  -0.400  53.930  1.00  0.00    -0.285 NA
HETATM   19  C14 UNL     1      22.118  -0.301  53.036  1.00  0.00    -0.003 A 
HETATM   20  C12 UNL     1      23.469  -0.999  54.774  1.00  0.00     0.143 A 
HETATM   21  C13 UNL     1      22.066  -1.007  54.308  1.00  0.00     0.073 A 
HETATM   22  N5  UNL     1      21.006  -1.485  54.813  1.00  0.00    -0.298 NA
HETATM   23  H18 UNL     1      20.078  -1.406  54.353  1.00  0.00     0.187 HD
HETATM   24  C15 UNL     1      21.287   0.098  52.078  1.00  0.00    -0.009 C 
HETATM   25  C16 UNL     1      21.952   0.860  50.947  1.00  0.00     0.086 C 
ENDBRANCH   1  14
TORSDOF 6
ENDMDL
MODEL 8
REMARK VINA RESULT:      -6.5      1.470      2.520
REMARK  6 active torsions:
REMARK  status: ('A' for Active; 'I' for Inactive)
REMARK    1  A    between atoms: C2_2  and  N1_3 
REMARK    2  A    between atoms: N1_3  and  C4_5 
REMARK    3  A    between atoms: C4_5  and  C5_6 
REMARK    4  A    between atoms: C6_7  and  C7_8 
REMARK       I    between atoms: C7_8  and  N2_10 
REMARK    5  A    between atoms: N2_10  and  N3_11 
REMARK    6  A    between atoms: N3_11  and  C8_12 
ROOT
HETATM    1  N3  UNL     1      23.943   3.312  50.005  1.00  0.00    -0.301 N 
HETATM    2  H12 UNL     1      23.178   2.866  49.454  1.00  0.00     0.186 HD
ENDROOT
BRANCH   1   3
HETATM    3  N2  UNL     1      24.844   4.273  49.568  1.00  0.00    -0.259 N 
HETATM    4  C7  UNL     1      26.177   3.845  49.330  1.00  0.00     0.315 C 
HETATM    5  O1  UNL     1      26.528   2.649  49.506  1.00  0.00    -0.256 OA
HETATM    6  H11 UNL     1      24.431   5.217  49.465  1.00  0.00     0.191 HD
BRANCH   4   7
HETATM    7  C6  UNL     1      27.089   4.878  48.876  1.00  0.00    -0.002 C 
HETATM    8  C5  UNL     1      27.852   5.727  48.479  1.00  0.00    -0.066 C 
BRANCH   8   9
HETATM    9  C4  UNL     1      28.769   6.758  47.975  1.00  0.00     0.365 C 
BRANCH   9  10
HETATM   10  N1  UNL     1      30.065   6.435  48.486  1.00  0.00     0.094 N 
HETATM   11  C3  UNL     1      30.686   5.321  47.831  1.00  0.00     0.310 C 
BRANCH  10  12
HETATM   12  C2  UNL     1      30.922   7.595  48.324  1.00  0.00     0.268 C 
HETATM   13  C1  UNL     1      31.766   7.805  49.555  1.00  0.00     0.037 C 
ENDBRANCH  10  12
ENDBRANCH   9  10
ENDBRANCH   8   9
ENDBRANCH   4   7
ENDBRANCH   1   3
BRANCH   1  14
HETATM   14  C8  UNL     1      23.842   2.708  51.288  1.00  0.00     0.033 C 
HETATM   15  C9  UNL     1      23.018   1.698  51.543  1.00  0.00    -0.030 C 
HETATM   16  C10 UNL     1      22.119   1.082  50.546  1.00  0.00     0.048 C 
HETATM   17  C11 UNL     1      23.131   1.292  52.973  1.00  0.00     0.173 A 
HETATM   18  N4  UNL     1      22.436   0.105  53.325  1.00  0.00    -0.285 NA
HETATM   19  C14 UNL     1      24.540   1.008  53.324  1.00  0.00    -0.003 A 
HETATM   20  C12 UNL     1      23.193  -0.800  53.823  1.00  0.00     0.143 A 
HETATM   21  C13 UNL     1      24.595  -0.336  53.881  1.00  0.00     0.073 A 
HETATM   22  N5  UNL     1      25.656  -0.890  54.296  1.00  0.00    -0.298 NA
HETATM   23  H18 UNL     1      26.583  -0.423  54.269  1.00  0.00     0.187 HD
HETATM   24  C15 UNL     1      25.369   2.006  53.033  1.00  0.00    -0.009 C 
HETATM   25  C16 UNL     1      24.701   3.216  52.405  1.00  0.00     0.086 C 
ENDBRANCH   1  14
TORSDOF 6
ENDMDL
MODEL 9
REMARK VINA RESULT:      -6.3      5.105      6.951
REMARK  6 active torsions:
REMARK  status: ('A' for Active; 'I' for Inactive)
REMARK    1  A    between atoms: C2_2  and  N1_3 
REMARK    2  A    between atoms: N1_3  and  C4_5 
REMARK    3  A    between atoms: C4_5  and  C5_6 
REMARK    4  A    between atoms: C6_7  and  C7_8 
REMARK       I    between atoms: C7_8  and  N2_10 
REMARK    5  A    between atoms: N2_10  and  N3_11 
REMARK    6  A    between atoms: N3_11  and  C8_12 
ROOT
HETATM    1  N3  UNL     1      20.824   0.396  51.564  1.00  0.00    -0.301 N 
HETATM    2  H12 UNL     1      20.451   0.722  50.646  1.00  0.00     0.186 HD
ENDROOT
BRANCH   1   3
HETATM    3  N2  UNL     1      22.147   0.402  51.985  1.00  0.00    -0.259 N 
HETATM    4  C7  UNL     1      22.667   1.637  52.454  1.00  0.00     0.315 C 
HETATM    5  O1  UNL     1      21.964   2.680  52.488  1.00  0.00    -0.256 OA
HETATM    6  H11 UNL     1      22.614  -0.518  51.906  1.00  0.00     0.191 HD
BRANCH   4   7
HETATM    7  C6  UNL     1      24.053   1.603  52.884  1.00  0.00    -0.002 C 
HETATM    8  C5  UNL     1      25.212   1.568  53.222  1.00  0.00    -0.066 C 
BRANCH   8   9
HETATM    9  C4  UNL     1      26.629   1.538  53.612  1.00  0.00     0.365 C 
BRANCH   9  10
HETATM   10  N1  UNL     1      26.916   0.191  53.997  1.00  0.00     0.094 N 
HETATM   11  C3  UNL     1      27.032  -0.716  52.893  1.00  0.00     0.310 C 
BRANCH  10  12
HETATM   12  C2  UNL     1      28.169   0.182  54.729  1.00  0.00     0.268 C 
HETATM   13  C1  UNL     1      29.258  -0.458  53.906  1.00  0.00     0.037 C 
ENDBRANCH  10  12
ENDBRANCH   9  10
ENDBRANCH   8   9
ENDBRANCH   4   7
ENDBRANCH   1   3
BRANCH   1  14
HETATM   14  C8  UNL     1      19.671  -0.050  52.266  1.00  0.00     0.033 C 
HETATM   15  C9  UNL     1      18.466  -0.102  51.708  1.00  0.00    -0.030 C 
HETATM   16  C10 UNL     1      18.175   0.288  50.314  1.00  0.00     0.048 C 
HETATM   17  C11 UNL     1      17.465  -0.598  52.695  1.00  0.00     0.173 A 
HETATM   18  N4  UNL     1      16.176  -0.871  52.168  1.00  0.00    -0.285 NA
HETATM   19  C14 UNL     1      17.903  -1.886  53.277  1.00  0.00    -0.003 A 
HETATM   20  C12 UNL     1      15.795  -2.079  52.354  1.00  0.00     0.143 A 
HETATM   21  C13 UNL     1      16.831  -2.850  53.072  1.00  0.00     0.073 A 
HETATM   22  N5  UNL     1      16.875  -4.055  53.462  1.00  0.00    -0.298 NA
HETATM   23  H18 UNL     1      17.692  -4.455  53.964  1.00  0.00     0.187 HD
HETATM   24  C15 UNL     1      19.123  -1.843  53.802  1.00  0.00    -0.009 C 
HETATM   25  C16 UNL     1      19.808  -0.492  53.691  1.00  0.00     0.086 C 
ENDBRANCH   1  14
TORSDOF 6
ENDMDL
