MODEL 1
REMARK VINA RESULT:      -8.8      0.000      0.000
REMARK  8 active torsions:
REMARK  status: ('A' for Active; 'I' for Inactive)
REMARK    1  A    between atoms: N3_9  and  C7_10 
REMARK    2  A    between atoms: C10_13  and  O1_14 
REMARK    3  A    between atoms: O1_14  and  C11_15 
REMARK    4  A    between atoms: C11_15  and  C12_16 
REMARK    5  A    between atoms: C21_25  and  N4_26 
REMARK    6  A    between atoms: N4_26  and  C22_27 
REMARK    7  A    between atoms: C22_27  and  O2_28 
REMARK    8  A    between atoms: C22_27  and  C23_29 
ROOT
HETATM    1  C1  UNL     1      24.890  -0.771  54.702  1.00  0.00     0.046 C 
HETATM    2  C2  UNL     1      24.525   0.138  53.592  1.00  0.00    -0.046 C 
HETATM    3  C3  UNL     1      23.301  -0.439  53.410  1.00  0.00     0.070 C 
HETATM    4  C4  UNL     1      22.048  -0.413  52.622  1.00  0.00     0.101 C 
HETATM    5  N1  UNL     1      21.176  -0.030  51.713  1.00  0.00    -0.258 NA
HETATM    6  C5  UNL     1      21.496   1.070  50.825  1.00  0.00     0.227 C 
HETATM    7  N2  UNL     1      22.607   1.590  51.113  1.00  0.00    -0.263 NA
HETATM    8  C6  UNL     1      23.317   2.658  50.541  1.00  0.00     0.279 C 
HETATM    9  N3  UNL     1      24.693   2.736  51.083  1.00  0.00    -0.336 N 
HETATM   10  C20 UNL     1      25.389   2.086  52.173  1.00  0.00     0.122 C 
HETATM   11  C21 UNL     1      25.480   1.188  53.133  1.00  0.00     0.048 C 
ENDROOT
BRANCH   9  12
HETATM   12  C7  UNL     1      25.439   3.713  50.327  1.00  0.00     0.035 A 
HETATM   13  C8  UNL     1      26.560   3.417  49.631  1.00  0.00     0.032 A 
HETATM   14  C9  UNL     1      27.268   4.346  48.936  1.00  0.00     0.039 A 
HETATM   15  C10 UNL     1      26.901   5.660  48.887  1.00  0.00     0.069 A 
HETATM   16  C18 UNL     1      25.743   5.992  49.600  1.00  0.00     0.039 A 
HETATM   17  C19 UNL     1      25.007   5.036  50.319  1.00  0.00     0.032 A 
BRANCH  15  18
HETATM   18  O1  UNL     1      27.361   6.783  48.319  1.00  0.00    -0.347 OA
BRANCH  18  19
HETATM   19  C11 UNL     1      28.445   7.004  47.511  1.00  0.00     0.214 C 
BRANCH  19  20
HETATM   20  C12 UNL     1      29.770   6.963  48.153  1.00  0.00    -0.034 A 
HETATM   21  C13 UNL     1      30.478   7.856  48.902  1.00  0.00     0.009 A 
HETATM   22  C14 UNL     1      31.730   7.598  49.389  1.00  0.00     0.001 A 
HETATM   23  C15 UNL     1      32.366   6.404  49.152  1.00  0.00     0.000 A 
HETATM   24  C16 UNL     1      31.690   5.472  48.400  1.00  0.00     0.001 A 
HETATM   25  C17 UNL     1      30.431   5.756  47.922  1.00  0.00     0.009 A 
ENDBRANCH  19  20
ENDBRANCH  18  19
ENDBRANCH  15  18
ENDBRANCH   9  12
BRANCH  11  26
HETATM   26  N4  UNL     1      26.655   1.145  53.908  1.00  0.00    -0.357 N 
HETATM   27  H21 UNL     1      26.433   0.758  54.870  1.00  0.00     0.162 HD
BRANCH  26  28
HETATM   28  C22 UNL     1      27.987   1.547  53.522  1.00  0.00     0.280 C 
BRANCH  28  29
HETATM   29  O2  UNL     1      28.315   2.776  54.041  1.00  0.00    -0.370 OA
HETATM   30  H23 UNL     1      28.236   3.468  53.330  1.00  0.00     0.212 HD
ENDBRANCH  28  29
BRANCH  28  31
HETATM   31  C23 UNL     1      28.922   0.474  53.950  1.00  0.00     0.284 C 
HETATM   32  O3  UNL     1      28.394  -0.347  54.705  1.00  0.00    -0.302 OA
ENDBRANCH  28  31
ENDBRANCH  26  28
ENDBRANCH  11  26
TORSDOF 8
ENDMDL
MODEL 2
REMARK VINA RESULT:      -8.5      1.034      1.679
REMARK  8 active torsions:
REMARK  status: ('A' for Active; 'I' for Inactive)
REMARK    1  A    between atoms: N3_9  and  C7_10 
REMARK    2  A    between atoms: C10_13  and  O1_14 
REMARK    3  A    between atoms: O1_14  and  C11_15 
REMARK    4  A    between atoms: C11_15  and  C12_16 
REMARK    5  A    between atoms: C21_25  and  N4_26 
REMARK    6  A    between atoms: N4_26  and  C22_27 
REMARK    7  A    between atoms: C22_27  and  O2_28 
REMARK    8  A    between atoms: C22_27  and  C23_29 
ROOT
HETATM    1  C1  UNL     1      25.377  -0.485  54.744  1.00  0.00     0.046 C 
HETATM    2  C2  UNL     1      24.935   0.376  53.624  1.00  0.00    -0.046 C 
HETATM    3  C3  UNL     1      23.755  -0.292  53.465  1.00  0.00     0.070 C 
HETATM    4  C4  UNL     1      22.495  -0.372  52.691  1.00  0.00     0.101 C 
HETATM    5  N1  UNL     1      21.587  -0.068  51.787  1.00  0.00    -0.258 NA
HETATM    6  C5  UNL     1      21.816   1.037  50.878  1.00  0.00     0.227 C 
HETATM    7  N2  UNL     1      22.889   1.642  51.145  1.00  0.00    -0.263 NA
HETATM    8  C6  UNL     1      23.512   2.750  50.548  1.00  0.00     0.279 C 
HETATM    9  N3  UNL     1      24.884   2.937  51.073  1.00  0.00    -0.336 N 
HETATM   10  C20 UNL     1      25.638   2.359  52.165  1.00  0.00     0.122 C 
HETATM   11  C21 UNL     1      25.804   1.486  53.137  1.00  0.00     0.048 C 
ENDROOT
BRANCH   9  12
HETATM   12  C7  UNL     1      25.549   3.955  50.293  1.00  0.00     0.035 A 
HETATM   13  C8  UNL     1      25.077   5.214  50.158  1.00  0.00     0.032 A 
HETATM   14  C9  UNL     1      25.698   6.162  49.407  1.00  0.00     0.039 A 
HETATM   15  C10 UNL     1      26.855   5.914  48.726  1.00  0.00     0.069 A 
HETATM   16  C18 UNL     1      27.365   4.616  48.851  1.00  0.00     0.039 A 
HETATM   17  C19 UNL     1      26.727   3.633  49.625  1.00  0.00     0.032 A 
BRANCH  15  18
HETATM   18  O1  UNL     1      27.686   6.599  47.929  1.00  0.00    -0.347 OA
BRANCH  18  19
HETATM   19  C11 UNL     1      29.032   6.472  47.711  1.00  0.00     0.214 C 
BRANCH  19  20
HETATM   20  C12 UNL     1      29.825   7.714  47.717  1.00  0.00    -0.034 A 
HETATM   21  C13 UNL     1      30.526   8.384  46.758  1.00  0.00     0.009 A 
HETATM   22  C14 UNL     1      31.217   9.538  47.006  1.00  0.00     0.001 A 
HETATM   23  C15 UNL     1      31.250  10.107  48.255  1.00  0.00     0.000 A 
HETATM   24  C16 UNL     1      30.556   9.466  49.255  1.00  0.00     0.001 A 
HETATM   25  C17 UNL     1      29.869   8.306  48.980  1.00  0.00     0.009 A 
ENDBRANCH  19  20
ENDBRANCH  18  19
ENDBRANCH  15  18
ENDBRANCH   9  12
BRANCH  11  26
HETATM   26  N4  UNL     1      26.988   1.542  53.899  1.00  0.00    -0.357 N 
HETATM   27  H21 UNL     1      26.753   1.792  54.903  1.00  0.00     0.162 HD
BRANCH  26  28
HETATM   28  C22 UNL     1      28.341   1.310  53.454  1.00  0.00     0.280 C 
BRANCH  28  29
HETATM   29  O2  UNL     1      29.018   2.490  53.255  1.00  0.00    -0.370 OA
HETATM   30  H23 UNL     1      28.364   3.226  53.111  1.00  0.00     0.212 HD
ENDBRANCH  28  29
BRANCH  28  31
HETATM   31  C23 UNL     1      29.000   0.433  54.456  1.00  0.00     0.284 C 
HETATM   32  O3  UNL     1      28.796  -0.767  54.250  1.00  0.00    -0.302 OA
ENDBRANCH  28  31
ENDBRANCH  26  28
ENDBRANCH  11  26
TORSDOF 8
ENDMDL
MODEL 3
REMARK VINA RESULT:      -8.3      2.748      4.554
REMARK  8 active torsions:
REMARK  status: ('A' for Active; 'I' for Inactive)
REMARK    1  A    between atoms: N3_9  and  C7_10 
REMARK    2  A    between atoms: C10_13  and  O1_14 
REMARK    3  A    between atoms: O1_14  and  C11_15 
REMARK    4  A    between atoms: C11_15  and  C12_16 
REMARK    5  A    between atoms: C21_25  and  N4_26 
REMARK    6  A    between atoms: N4_26  and  C22_27 
REMARK    7  A    between atoms: C22_27  and  O2_28 
REMARK    8  A    between atoms: C22_27  and  C23_29 
ROOT
HETATM    1  C1  UNL     1      20.810  -1.194  54.061  1.00  0.00     0.046 C 
HETATM    2  C2  UNL     1      22.114  -0.565  53.752  1.00  0.00    -0.046 C 
HETATM    3  C3  UNL     1      22.741  -1.144  54.819  1.00  0.00     0.070 C 
HETATM    4  C4  UNL     1      24.020  -1.279  55.552  1.00  0.00     0.101 C 
HETATM    5  N1  UNL     1      25.290  -1.100  55.852  1.00  0.00    -0.258 NA
HETATM    6  C5  UNL     1      26.111  -0.238  55.026  1.00  0.00     0.227 C 
HETATM    7  N2  UNL     1      25.474   0.190  54.027  1.00  0.00    -0.263 NA
HETATM    8  C6  UNL     1      25.848   1.039  52.973  1.00  0.00     0.279 C 
HETATM    9  N3  UNL     1      24.671   1.442  52.168  1.00  0.00    -0.336 N 
HETATM   10  C20 UNL     1      23.288   1.020  52.119  1.00  0.00     0.122 C 
HETATM   11  C21 UNL     1      22.254   0.343  52.578  1.00  0.00     0.048 C 
ENDROOT
BRANCH   9  12
HETATM   12  C7  UNL     1      25.073   2.461  51.229  1.00  0.00     0.035 A 
HETATM   13  C8  UNL     1      26.297   2.506  50.658  1.00  0.00     0.032 A 
HETATM   14  C9  UNL     1      26.675   3.480  49.788  1.00  0.00     0.039 A 
HETATM   15  C10 UNL     1      25.841   4.496  49.421  1.00  0.00     0.069 A 
HETATM   16  C18 UNL     1      24.566   4.473  49.999  1.00  0.00     0.039 A 
HETATM   17  C19 UNL     1      24.171   3.469  50.898  1.00  0.00     0.032 A 
BRANCH  15  18
HETATM   18  O1  UNL     1      25.902   5.570  48.621  1.00  0.00    -0.347 OA
BRANCH  18  19
HETATM   19  C11 UNL     1      26.649   6.714  48.706  1.00  0.00     0.214 C 
BRANCH  19  20
HETATM   20  C12 UNL     1      28.010   6.661  48.146  1.00  0.00    -0.034 A 
HETATM   21  C13 UNL     1      29.086   5.853  48.368  1.00  0.00     0.009 A 
HETATM   22  C14 UNL     1      30.284   6.008  47.726  1.00  0.00     0.001 A 
HETATM   23  C15 UNL     1      30.484   7.003  46.800  1.00  0.00     0.000 A 
HETATM   24  C16 UNL     1      29.426   7.843  46.543  1.00  0.00     0.001 A 
HETATM   25  C17 UNL     1      28.232   7.666  47.203  1.00  0.00     0.009 A 
ENDBRANCH  19  20
ENDBRANCH  18  19
ENDBRANCH  15  18
ENDBRANCH   9  12
BRANCH  11  26
HETATM   26  N4  UNL     1      21.026   0.443  51.895  1.00  0.00    -0.357 N 
HETATM   27  H21 UNL     1      20.506  -0.480  51.961  1.00  0.00     0.162 HD
BRANCH  26  28
HETATM   28  C22 UNL     1      20.491   1.586  51.193  1.00  0.00     0.280 C 
BRANCH  28  29
HETATM   29  O2  UNL     1      20.089   1.255  49.921  1.00  0.00    -0.370 OA
HETATM   30  H23 UNL     1      19.693   0.342  49.927  1.00  0.00     0.212 HD
ENDBRANCH  28  29
BRANCH  28  31
HETATM   31  C23 UNL     1      19.389   2.145  52.017  1.00  0.00     0.284 C 
HETATM   32  O3  UNL     1      19.578   3.323  52.334  1.00  0.00    -0.302 OA
ENDBRANCH  28  31
ENDBRANCH  26  28
ENDBRANCH  11  26
TORSDOF 8
ENDMDL
MODEL 4
REMARK VINA RESULT:      -8.1      2.489      4.205
REMARK  8 active torsions:
REMARK  status: ('A' for Active; 'I' for Inactive)
REMARK    1  A    between atoms: N3_9  and  C7_10 
REMARK    2  A    between atoms: C10_13  and  O1_14 
REMARK    3  A    between atoms: O1_14  and  C11_15 
REMARK    4  A    between atoms: C11_15  and  C12_16 
REMARK    5  A    between atoms: C21_25  and  N4_26 
REMARK    6  A    between atoms: N4_26  and  C22_27 
REMARK    7  A    between atoms: C22_27  and  O2_28 
REMARK    8  A    between atoms: C22_27  and  C23_29 
ROOT
HETATM    1  C1  UNL     1      21.743  -0.099  53.469  1.00  0.00     0.046 C 
HETATM    2  C2  UNL     1      23.024   0.458  52.977  1.00  0.00    -0.046 C 
HETATM    3  C3  UNL     1      23.781  -0.376  53.750  1.00  0.00     0.070 C 
HETATM    4  C4  UNL     1      25.156  -0.770  54.128  1.00  0.00     0.101 C 
HETATM    5  N1  UNL     1      26.473  -0.770  54.148  1.00  0.00    -0.258 NA
HETATM    6  C5  UNL     1      27.207   0.161  53.315  1.00  0.00     0.227 C 
HETATM    7  N2  UNL     1      26.435   0.835  52.582  1.00  0.00    -0.263 NA
HETATM    8  C6  UNL     1      26.686   1.838  51.632  1.00  0.00     0.279 C 
HETATM    9  N3  UNL     1      25.429   2.498  51.208  1.00  0.00    -0.336 N 
HETATM   10  C20 UNL     1      24.023   2.222  51.413  1.00  0.00     0.122 C 
HETATM   11  C21 UNL     1      23.030   1.565  51.977  1.00  0.00     0.048 C 
ENDROOT
BRANCH   9  12
HETATM   12  C7  UNL     1      25.754   3.643  50.392  1.00  0.00     0.035 A 
HETATM   13  C8  UNL     1      26.825   3.690  49.569  1.00  0.00     0.032 A 
HETATM   14  C9  UNL     1      27.136   4.778  48.816  1.00  0.00     0.039 A 
HETATM   15  C10 UNL     1      26.384   5.918  48.834  1.00  0.00     0.069 A 
HETATM   16  C18 UNL     1      25.268   5.895  49.678  1.00  0.00     0.039 A 
HETATM   17  C19 UNL     1      24.942   4.772  50.458  1.00  0.00     0.032 A 
BRANCH  15  18
HETATM   18  O1  UNL     1      26.415   7.118  48.238  1.00  0.00    -0.347 OA
BRANCH  18  19
HETATM   19  C11 UNL     1      27.361   7.701  47.438  1.00  0.00     0.214 C 
BRANCH  19  20
HETATM   20  C12 UNL     1      28.702   7.883  48.020  1.00  0.00    -0.034 A 
HETATM   21  C13 UNL     1      29.852   7.151  47.974  1.00  0.00     0.009 A 
HETATM   22  C14 UNL     1      30.999   7.518  48.624  1.00  0.00     0.001 A 
HETATM   23  C15 UNL     1      31.068   8.665  49.377  1.00  0.00     0.000 A 
HETATM   24  C16 UNL     1      29.931   9.435  49.453  1.00  0.00     0.001 A 
HETATM   25  C17 UNL     1      28.790   9.044  48.789  1.00  0.00     0.009 A 
ENDBRANCH  19  20
ENDBRANCH  18  19
ENDBRANCH  15  18
ENDBRANCH   9  12
BRANCH  11  26
HETATM   26  N4  UNL     1      21.709   1.910  51.629  1.00  0.00    -0.357 N 
HETATM   27  H21 UNL     1      21.041   1.169  51.991  1.00  0.00     0.162 HD
BRANCH  26  28
HETATM   28  C22 UNL     1      21.259   3.070  50.898  1.00  0.00     0.280 C 
BRANCH  28  29
HETATM   29  O2  UNL     1      20.824   2.736  49.638  1.00  0.00    -0.370 OA
HETATM   30  H23 UNL     1      21.085   3.451  48.997  1.00  0.00     0.212 HD
ENDBRANCH  28  29
BRANCH  28  31
HETATM   31  C23 UNL     1      20.207   3.734  51.711  1.00  0.00     0.284 C 
HETATM   32  O3  UNL     1      19.987   3.150  52.777  1.00  0.00    -0.302 OA
ENDBRANCH  28  31
ENDBRANCH  26  28
ENDBRANCH  11  26
TORSDOF 8
ENDMDL
MODEL 5
REMARK VINA RESULT:      -7.8      4.053      9.279
REMARK  8 active torsions:
REMARK  status: ('A' for Active; 'I' for Inactive)
REMARK    1  A    between atoms: N3_9  and  C7_10 
REMARK    2  A    between atoms: C10_13  and  O1_14 
REMARK    3  A    between atoms: O1_14  and  C11_15 
REMARK    4  A    between atoms: C11_15  and  C12_16 
REMARK    5  A    between atoms: C21_25  and  N4_26 
REMARK    6  A    between atoms: N4_26  and  C22_27 
REMARK    7  A    between atoms: C22_27  and  O2_28 
REMARK    8  A    between atoms: C22_27  and  C23_29 
ROOT
HETATM    1  C1  UNL     1      30.932  11.543  49.024  1.00  0.00     0.046 C 
HETATM    2  C2  UNL     1      29.650  10.813  48.897  1.00  0.00    -0.046 C 
HETATM    3  C3  UNL     1      28.928  11.949  48.669  1.00  0.00     0.070 C 
HETATM    4  C4  UNL     1      27.582  12.503  48.401  1.00  0.00     0.101 C 
HETATM    5  N1  UNL     1      26.281  12.527  48.196  1.00  0.00    -0.258 NA
HETATM    6  C5  UNL     1      25.527  11.289  48.208  1.00  0.00     0.227 C 
HETATM    7  N2  UNL     1      26.280  10.288  48.348  1.00  0.00    -0.263 NA
HETATM    8  C6  UNL     1      26.005   8.913  48.417  1.00  0.00     0.279 C 
HETATM    9  N3  UNL     1      27.205   8.149  48.830  1.00  0.00    -0.336 N 
HETATM   10  C20 UNL     1      28.605   8.477  48.995  1.00  0.00     0.122 C 
HETATM   11  C21 UNL     1      29.609   9.330  49.049  1.00  0.00     0.048 C 
ENDROOT
BRANCH   9  12
HETATM   12  C7  UNL     1      26.826   6.779  49.079  1.00  0.00     0.035 A 
HETATM   13  C8  UNL     1      27.541   5.718  48.642  1.00  0.00     0.032 A 
HETATM   14  C9  UNL     1      27.168   4.430  48.864  1.00  0.00     0.039 A 
HETATM   15  C10 UNL     1      26.034   4.106  49.550  1.00  0.00     0.069 A 
HETATM   16  C18 UNL     1      25.275   5.186  50.014  1.00  0.00     0.039 A 
HETATM   17  C19 UNL     1      25.656   6.520  49.788  1.00  0.00     0.032 A 
BRANCH  15  18
HETATM   18  O1  UNL     1      25.406   2.982  49.926  1.00  0.00    -0.347 OA
BRANCH  18  19
HETATM   19  C11 UNL     1      24.404   2.773  50.836  1.00  0.00     0.214 C 
BRANCH  19  20
HETATM   20  C12 UNL     1      24.559   1.620  51.740  1.00  0.00    -0.034 A 
HETATM   21  C13 UNL     1      25.622   0.846  52.100  1.00  0.00     0.009 A 
HETATM   22  C14 UNL     1      25.521  -0.208  52.966  1.00  0.00     0.001 A 
HETATM   23  C15 UNL     1      24.322  -0.562  53.537  1.00  0.00     0.000 A 
HETATM   24  C16 UNL     1      23.221   0.191  53.202  1.00  0.00     0.001 A 
HETATM   25  C17 UNL     1      23.350   1.247  52.329  1.00  0.00     0.009 A 
ENDBRANCH  19  20
ENDBRANCH  18  19
ENDBRANCH  15  18
ENDBRANCH   9  12
BRANCH  11  26
HETATM   26  N4  UNL     1      30.904   8.832  49.292  1.00  0.00    -0.357 N 
HETATM   27  H21 UNL     1      31.328   9.336  50.124  1.00  0.00     0.162 HD
BRANCH  26  28
HETATM   28  C22 UNL     1      31.609   7.802  48.566  1.00  0.00     0.280 C 
BRANCH  28  29
HETATM   29  O2  UNL     1      32.766   8.285  48.000  1.00  0.00    -0.370 OA
HETATM   30  H23 UNL     1      32.566   8.641  47.093  1.00  0.00     0.212 HD
ENDBRANCH  28  29
BRANCH  28  31
HETATM   31  C23 UNL     1      31.855   6.678  49.505  1.00  0.00     0.284 C 
HETATM   32  O3  UNL     1      31.050   5.753  49.365  1.00  0.00    -0.302 OA
ENDBRANCH  28  31
ENDBRANCH  26  28
ENDBRANCH  11  26
TORSDOF 8
ENDMDL
MODEL 6
REMARK VINA RESULT:      -7.7      4.131      9.408
REMARK  8 active torsions:
REMARK  status: ('A' for Active; 'I' for Inactive)
REMARK    1  A    between atoms: N3_9  and  C7_10 
REMARK    2  A    between atoms: C10_13  and  O1_14 
REMARK    3  A    between atoms: O1_14  and  C11_15 
REMARK    4  A    between atoms: C11_15  and  C12_16 
REMARK    5  A    between atoms: C21_25  and  N4_26 
REMARK    6  A    between atoms: N4_26  and  C22_27 
REMARK    7  A    between atoms: C22_27  and  O2_28 
REMARK    8  A    between atoms: C22_27  and  C23_29 
ROOT
HETATM    1  C1  UNL     1      33.280   8.951  47.282  1.00  0.00     0.046 C 
HETATM    2  C2  UNL     1      31.812   8.888  47.468  1.00  0.00    -0.046 C 
HETATM    3  C3  UNL     1      31.647  10.232  47.291  1.00  0.00     0.070 C 
HETATM    4  C4  UNL     1      30.670  11.343  47.245  1.00  0.00     0.101 C 
HETATM    5  N1  UNL     1      29.508  11.960  47.296  1.00  0.00    -0.258 NA
HETATM    6  C5  UNL     1      28.300  11.203  47.558  1.00  0.00     0.227 C 
HETATM    7  N2  UNL     1      28.535   9.967  47.631  1.00  0.00    -0.263 NA
HETATM    8  C6  UNL     1      27.694   8.867  47.867  1.00  0.00     0.279 C 
HETATM    9  N3  UNL     1      28.480   7.634  48.101  1.00  0.00    -0.336 N 
HETATM   10  C20 UNL     1      29.878   7.285  47.962  1.00  0.00     0.122 C 
HETATM   11  C21 UNL     1      31.143   7.585  47.749  1.00  0.00     0.048 C 
ENDROOT
BRANCH   9  12
HETATM   12  C7  UNL     1      27.589   6.585  48.532  1.00  0.00     0.035 A 
HETATM   13  C8  UNL     1      26.324   6.809  48.953  1.00  0.00     0.032 A 
HETATM   14  C9  UNL     1      25.495   5.818  49.375  1.00  0.00     0.039 A 
HETATM   15  C10 UNL     1      25.879   4.509  49.407  1.00  0.00     0.069 A 
HETATM   16  C18 UNL     1      27.184   4.249  48.976  1.00  0.00     0.039 A 
HETATM   17  C19 UNL     1      28.045   5.269  48.538  1.00  0.00     0.032 A 
BRANCH  15  18
HETATM   18  O1  UNL     1      25.328   3.337  49.755  1.00  0.00    -0.347 OA
BRANCH  18  19
HETATM   19  C11 UNL     1      24.721   2.938  50.916  1.00  0.00     0.214 C 
BRANCH  19  20
HETATM   20  C12 UNL     1      25.295   1.766  51.597  1.00  0.00    -0.034 A 
HETATM   21  C13 UNL     1      26.528   1.183  51.582  1.00  0.00     0.009 A 
HETATM   22  C14 UNL     1      26.834   0.060  52.302  1.00  0.00     0.001 A 
HETATM   23  C15 UNL     1      25.904  -0.563  53.099  1.00  0.00     0.000 A 
HETATM   24  C16 UNL     1      24.646  -0.010  53.145  1.00  0.00     0.001 A 
HETATM   25  C17 UNL     1      24.365   1.120  52.412  1.00  0.00     0.009 A 
ENDBRANCH  19  20
ENDBRANCH  18  19
ENDBRANCH  15  18
ENDBRANCH   9  12
BRANCH  11  26
HETATM   26  N4  UNL     1      32.096   6.548  47.775  1.00  0.00    -0.357 N 
HETATM   27  H21 UNL     1      32.297   6.224  46.784  1.00  0.00     0.162 HD
BRANCH  26  28
HETATM   28  C22 UNL     1      32.741   5.964  48.927  1.00  0.00     0.280 C 
BRANCH  28  29
HETATM   29  O2  UNL     1      31.864   5.211  49.671  1.00  0.00    -0.370 OA
HETATM   30  H23 UNL     1      31.447   5.783  50.369  1.00  0.00     0.212 HD
ENDBRANCH  28  29
BRANCH  28  31
HETATM   31  C23 UNL     1      33.905   5.178  48.442  1.00  0.00     0.284 C 
HETATM   32  O3  UNL     1      34.659   5.837  47.720  1.00  0.00    -0.302 OA
ENDBRANCH  28  31
ENDBRANCH  26  28
ENDBRANCH  11  26
TORSDOF 8
ENDMDL
MODEL 7
REMARK VINA RESULT:      -7.7      3.229      4.983
REMARK  8 active torsions:
REMARK  status: ('A' for Active; 'I' for Inactive)
REMARK    1  A    between atoms: N3_9  and  C7_10 
REMARK    2  A    between atoms: C10_13  and  O1_14 
REMARK    3  A    between atoms: O1_14  and  C11_15 
REMARK    4  A    between atoms: C11_15  and  C12_16 
REMARK    5  A    between atoms: C21_25  and  N4_26 
REMARK    6  A    between atoms: N4_26  and  C22_27 
REMARK    7  A    between atoms: C22_27  and  O2_28 
REMARK    8  A    between atoms: C22_27  and  C23_29 
ROOT
HETATM    1  C1  UNL     1      20.982  -1.288  53.987  1.00  0.00     0.046 C 
HETATM    2  C2  UNL     1      22.263  -0.609  53.684  1.00  0.00    -0.046 C 
HETATM    3  C3  UNL     1      22.906  -1.161  54.754  1.00  0.00     0.070 C 
HETATM    4  C4  UNL     1      24.185  -1.246  55.495  1.00  0.00     0.101 C 
HETATM    5  N1  UNL     1      25.445  -1.018  55.801  1.00  0.00    -0.258 NA
HETATM    6  C5  UNL     1      26.237  -0.126  54.978  1.00  0.00     0.227 C 
HETATM    7  N2  UNL     1      25.590   0.275  53.973  1.00  0.00    -0.263 NA
HETATM    8  C6  UNL     1      25.936   1.135  52.919  1.00  0.00     0.279 C 
HETATM    9  N3  UNL     1      24.749   1.490  52.108  1.00  0.00    -0.336 N 
HETATM   10  C20 UNL     1      23.383   1.016  52.053  1.00  0.00     0.122 C 
HETATM   11  C21 UNL     1      22.374   0.301  52.508  1.00  0.00     0.048 C 
ENDROOT
BRANCH   9  12
HETATM   12  C7  UNL     1      25.116   2.523  51.168  1.00  0.00     0.035 A 
HETATM   13  C8  UNL     1      26.364   2.663  50.667  1.00  0.00     0.032 A 
HETATM   14  C9  UNL     1      26.707   3.649  49.797  1.00  0.00     0.039 A 
HETATM   15  C10 UNL     1      25.812   4.581  49.358  1.00  0.00     0.069 A 
HETATM   16  C18 UNL     1      24.512   4.457  49.861  1.00  0.00     0.039 A 
HETATM   17  C19 UNL     1      24.152   3.440  50.761  1.00  0.00     0.032 A 
BRANCH  15  18
HETATM   18  O1  UNL     1      25.827   5.640  48.536  1.00  0.00    -0.347 OA
BRANCH  18  19
HETATM   19  C11 UNL     1      25.084   6.790  48.538  1.00  0.00     0.214 C 
BRANCH  19  20
HETATM   20  C12 UNL     1      25.826   8.059  48.621  1.00  0.00    -0.034 A 
HETATM   21  C13 UNL     1      25.902   9.157  47.816  1.00  0.00     0.009 A 
HETATM   22  C14 UNL     1      26.693  10.238  48.096  1.00  0.00     0.001 A 
HETATM   23  C15 UNL     1      27.474  10.289  49.225  1.00  0.00     0.000 A 
HETATM   24  C16 UNL     1      27.430   9.203  50.067  1.00  0.00     0.001 A 
HETATM   25  C17 UNL     1      26.626   8.128  49.762  1.00  0.00     0.009 A 
ENDBRANCH  19  20
ENDBRANCH  18  19
ENDBRANCH  15  18
ENDBRANCH   9  12
BRANCH  11  26
HETATM   26  N4  UNL     1      21.146   0.352  51.818  1.00  0.00    -0.357 N 
HETATM   27  H21 UNL     1      20.786  -0.634  51.661  1.00  0.00     0.162 HD
BRANCH  26  28
HETATM   28  C22 UNL     1      20.432   1.521  51.364  1.00  0.00     0.280 C 
BRANCH  28  29
HETATM   29  O2  UNL     1      19.320   1.181  50.631  1.00  0.00    -0.370 OA
HETATM   30  H23 UNL     1      19.377   0.224  50.368  1.00  0.00     0.212 HD
ENDBRANCH  28  29
BRANCH  28  31
HETATM   31  C23 UNL     1      20.103   2.340  52.560  1.00  0.00     0.284 C 
HETATM   32  O3  UNL     1      19.507   3.383  52.277  1.00  0.00    -0.302 OA
ENDBRANCH  28  31
ENDBRANCH  26  28
ENDBRANCH  11  26
TORSDOF 8
ENDMDL
MODEL 8
REMARK VINA RESULT:      -7.7      4.455     11.007
REMARK  8 active torsions:
REMARK  status: ('A' for Active; 'I' for Inactive)
REMARK    1  A    between atoms: N3_9  and  C7_10 
REMARK    2  A    between atoms: C10_13  and  O1_14 
REMARK    3  A    between atoms: O1_14  and  C11_15 
REMARK    4  A    between atoms: C11_15  and  C12_16 
REMARK    5  A    between atoms: C21_25  and  N4_26 
REMARK    6  A    between atoms: N4_26  and  C22_27 
REMARK    7  A    between atoms: C22_27  and  O2_28 
REMARK    8  A    between atoms: C22_27  and  C23_29 
ROOT
HETATM    1  C1  UNL     1      26.448   3.284  50.307  1.00  0.00     0.046 C 
HETATM    2  C2  UNL     1      25.674   2.319  51.121  1.00  0.00    -0.046 C 
HETATM    3  C3  UNL     1      26.791   1.736  51.646  1.00  0.00     0.070 C 
HETATM    4  C4  UNL     1      27.304   0.688  52.557  1.00  0.00     0.101 C 
HETATM    5  N1  UNL     1      27.285  -0.312  53.414  1.00  0.00    -0.258 NA
HETATM    6  C5  UNL     1      26.018  -0.861  53.854  1.00  0.00     0.227 C 
HETATM    7  N2  UNL     1      25.044  -0.215  53.382  1.00  0.00    -0.263 NA
HETATM    8  C6  UNL     1      23.657  -0.377  53.526  1.00  0.00     0.279 C 
HETATM    9  N3  UNL     1      22.918   0.488  52.578  1.00  0.00    -0.336 N 
HETATM   10  C20 UNL     1      23.293   1.564  51.687  1.00  0.00     0.122 C 
HETATM   11  C21 UNL     1      24.183   2.322  51.077  1.00  0.00     0.048 C 
ENDROOT
BRANCH   9  12
HETATM   12  C7  UNL     1      21.517   0.143  52.625  1.00  0.00     0.035 A 
HETATM   13  C8  UNL     1      20.607   0.604  51.737  1.00  0.00     0.032 A 
HETATM   14  C9  UNL     1      19.286   0.291  51.798  1.00  0.00     0.039 A 
HETATM   15  C10 UNL     1      18.771  -0.520  52.768  1.00  0.00     0.069 A 
HETATM   16  C18 UNL     1      19.692  -1.011  53.700  1.00  0.00     0.039 A 
HETATM   17  C19 UNL     1      21.059  -0.691  53.641  1.00  0.00     0.032 A 
BRANCH  15  18
HETATM   18  O1  UNL     1      17.566  -1.005  53.098  1.00  0.00    -0.347 OA
BRANCH  18  19
HETATM   19  C11 UNL     1      16.547  -1.489  52.321  1.00  0.00     0.214 C 
BRANCH  19  20
HETATM   20  C12 UNL     1      16.034  -2.827  52.659  1.00  0.00    -0.034 A 
HETATM   21  C13 UNL     1      14.868  -3.481  52.388  1.00  0.00     0.009 A 
HETATM   22  C14 UNL     1      14.599  -4.746  52.832  1.00  0.00     0.001 A 
HETATM   23  C15 UNL     1      15.499  -5.453  53.592  1.00  0.00     0.000 A 
HETATM   24  C16 UNL     1      16.690  -4.833  53.890  1.00  0.00     0.001 A 
HETATM   25  C17 UNL     1      16.936  -3.560  53.431  1.00  0.00     0.009 A 
ENDBRANCH  19  20
ENDBRANCH  18  19
ENDBRANCH  15  18
ENDBRANCH   9  12
BRANCH  11  26
HETATM   26  N4  UNL     1      23.726   3.335  50.211  1.00  0.00    -0.357 N 
HETATM   27  H21 UNL     1      24.186   3.224  49.261  1.00  0.00     0.162 HD
BRANCH  26  28
HETATM   28  C22 UNL     1      22.784   4.390  50.499  1.00  0.00     0.280 C 
BRANCH  28  29
HETATM   29  O2  UNL     1      23.235   5.209  51.508  1.00  0.00    -0.370 OA
HETATM   30  H23 UNL     1      24.228   5.251  51.480  1.00  0.00     0.212 HD
ENDBRANCH  28  29
BRANCH  28  31
HETATM   31  C23 UNL     1      22.530   5.125  49.233  1.00  0.00     0.284 C 
HETATM   32  O3  UNL     1      23.563   5.348  48.594  1.00  0.00    -0.302 OA
ENDBRANCH  28  31
ENDBRANCH  26  28
ENDBRANCH  11  26
TORSDOF 8
ENDMDL
MODEL 9
REMARK VINA RESULT:      -7.7      4.372     10.005
REMARK  8 active torsions:
REMARK  status: ('A' for Active; 'I' for Inactive)
REMARK    1  A    between atoms: N3_9  and  C7_10 
REMARK    2  A    between atoms: C10_13  and  O1_14 
REMARK    3  A    between atoms: O1_14  and  C11_15 
REMARK    4  A    between atoms: C11_15  and  C12_16 
REMARK    5  A    between atoms: C21_25  and  N4_26 
REMARK    6  A    between atoms: N4_26  and  C22_27 
REMARK    7  A    between atoms: C22_27  and  O2_28 
REMARK    8  A    between atoms: C22_27  and  C23_29 
ROOT
HETATM    1  C1  UNL     1      32.352  11.362  47.413  1.00  0.00     0.046 C 
HETATM    2  C2  UNL     1      31.862   9.966  47.464  1.00  0.00    -0.046 C 
HETATM    3  C3  UNL     1      32.977   9.464  46.856  1.00  0.00     0.070 C 
HETATM    4  C4  UNL     1      33.650   8.239  46.367  1.00  0.00     0.101 C 
HETATM    5  N1  UNL     1      33.839   6.963  46.102  1.00  0.00    -0.258 NA
HETATM    6  C5  UNL     1      32.822   5.994  46.460  1.00  0.00     0.227 C 
HETATM    7  N2  UNL     1      31.867   6.532  47.083  1.00  0.00    -0.263 NA
HETATM    8  C6  UNL     1      30.682   6.003  47.616  1.00  0.00     0.279 C 
HETATM    9  N3  UNL     1      29.761   7.081  48.046  1.00  0.00    -0.336 N 
HETATM   10  C20 UNL     1      29.885   8.515  48.200  1.00  0.00     0.122 C 
HETATM   11  C21 UNL     1      30.530   9.655  48.059  1.00  0.00     0.048 C 
ENDROOT
BRANCH   9  12
HETATM   12  C7  UNL     1      28.489   6.498  48.398  1.00  0.00     0.035 A 
HETATM   13  C8  UNL     1      27.398   7.230  48.717  1.00  0.00     0.032 A 
HETATM   14  C9  UNL     1      26.208   6.675  49.066  1.00  0.00     0.039 A 
HETATM   15  C10 UNL     1      26.020   5.324  49.122  1.00  0.00     0.069 A 
HETATM   16  C18 UNL     1      27.134   4.542  48.795  1.00  0.00     0.039 A 
HETATM   17  C19 UNL     1      28.367   5.112  48.434  1.00  0.00     0.032 A 
BRANCH  15  18
HETATM   18  O1  UNL     1      25.015   4.488  49.418  1.00  0.00    -0.347 OA
BRANCH  18  19
HETATM   19  C11 UNL     1      25.016   3.155  49.731  1.00  0.00     0.214 C 
BRANCH  19  20
HETATM   20  C12 UNL     1      25.522   2.787  51.065  1.00  0.00    -0.034 A 
HETATM   21  C13 UNL     1      26.716   2.309  51.517  1.00  0.00     0.009 A 
HETATM   22  C14 UNL     1      26.956   2.016  52.832  1.00  0.00     0.001 A 
HETATM   23  C15 UNL     1      25.994   2.188  53.798  1.00  0.00     0.000 A 
HETATM   24  C16 UNL     1      24.773   2.669  53.388  1.00  0.00     0.001 A 
HETATM   25  C17 UNL     1      24.557   2.955  52.060  1.00  0.00     0.009 A 
ENDBRANCH  19  20
ENDBRANCH  18  19
ENDBRANCH  15  18
ENDBRANCH   9  12
BRANCH  11  26
HETATM   26  N4  UNL     1      29.921  10.837  48.525  1.00  0.00    -0.357 N 
HETATM   27  H21 UNL     1      30.669  11.540  48.794  1.00  0.00     0.162 HD
BRANCH  26  28
HETATM   28  C22 UNL     1      28.511  11.120  48.646  1.00  0.00     0.280 C 
BRANCH  28  29
HETATM   29  O2  UNL     1      28.023  10.743  49.875  1.00  0.00    -0.370 OA
HETATM   30  H23 UNL     1      28.295  11.413  50.558  1.00  0.00     0.212 HD
ENDBRANCH  28  29
BRANCH  28  31
HETATM   31  C23 UNL     1      28.317  12.566  48.371  1.00  0.00     0.284 C 
HETATM   32  O3  UNL     1      28.116  13.226  49.395  1.00  0.00    -0.302 OA
ENDBRANCH  28  31
ENDBRANCH  26  28
ENDBRANCH  11  26
TORSDOF 8
ENDMDL
