MODEL 1
REMARK VINA RESULT:      -7.6      0.000      0.000
REMARK  5 active torsions:
REMARK  status: ('A' for Active; 'I' for Inactive)
REMARK    1  A    between atoms: C4_4  and  P1_5 
REMARK    2  A    between atoms: C6_7  and  C7_8 
REMARK    3  A    between atoms: C7_8  and  N1_9 
REMARK    4  A    between atoms: C12_14  and  O1_15 
REMARK    5  A    between atoms: C16_19  and  O2_20 
ROOT
HETATM    1  C1  UNL     1      25.540   7.016  49.116  1.00  0.00     0.051 C 
HETATM    2  C2  UNL     1      25.075   5.798  49.830  1.00  0.00    -0.027 A 
HETATM    3  C3  UNL     1      23.756   5.797  50.292  1.00  0.00     0.021 A 
HETATM    4  C4  UNL     1      23.324   4.672  50.950  1.00  0.00    -0.035 A 
HETATM    5  C5  UNL     1      24.117   3.565  51.173  1.00  0.00     0.023 A 
HETATM    6  C6  UNL     1      25.421   3.558  50.720  1.00  0.00     0.004 A 
HETATM    7  C16 UNL     1      25.889   4.686  50.048  1.00  0.00     0.079 A 
ENDROOT
BRANCH   6   8
HETATM    8  C7  UNL     1      26.449   2.491  50.845  1.00  0.00     0.314 C 
BRANCH   8   9
HETATM    9  N1  UNL     1      26.509   1.891  52.150  1.00  0.00     0.101 N 
HETATM   10  C8  UNL     1      27.808   2.039  52.758  1.00  0.00     0.312 A 
HETATM   11  C9  UNL     1      28.241   0.664  53.025  1.00  0.00    -0.022 A 
HETATM   12  C10 UNL     1      29.368   0.112  53.620  1.00  0.00     0.012 A 
HETATM   13  C14 UNL     1      27.330  -0.265  52.585  1.00  0.00    -0.019 A 
HETATM   14  C11 UNL     1      29.568  -1.256  53.766  1.00  0.00     0.037 A 
HETATM   15  C12 UNL     1      28.605  -2.134  53.298  1.00  0.00     0.066 A 
HETATM   16  C13 UNL     1      27.455  -1.624  52.693  1.00  0.00     0.045 A 
HETATM   17  C15 UNL     1      26.226   0.488  51.995  1.00  0.00     0.312 A 
BRANCH  15  18
HETATM   18  O1  UNL     1      28.747  -3.506  53.415  1.00  0.00    -0.361 OA
HETATM   19  H14 UNL     1      29.613  -3.980  53.543  1.00  0.00     0.217 HD
ENDBRANCH  15  18
ENDBRANCH   8   9
ENDBRANCH   6   8
BRANCH   7  20
HETATM   20  O2  UNL     1      27.183   4.831  49.530  1.00  0.00    -0.360 OA
HETATM   21  H18 UNL     1      27.489   5.769  49.317  1.00  0.00     0.217 HD
ENDBRANCH   7  20
BRANCH   4  22
HETATM   22  P1  UNL     1      21.605   4.618  51.577  1.00  0.00    -0.106 P 
HETATM   23  H5  UNL     1      20.905   3.583  50.824  1.00  0.00     0.059 HD
HETATM   24  H6  UNL     1      20.917   5.862  51.366  1.00  0.00     0.059 HD
ENDBRANCH   4  22
TORSDOF 5
ENDMDL
MODEL 2
REMARK VINA RESULT:      -7.5      3.321      4.333
REMARK  5 active torsions:
REMARK  status: ('A' for Active; 'I' for Inactive)
REMARK    1  A    between atoms: C4_4  and  P1_5 
REMARK    2  A    between atoms: C6_7  and  C7_8 
REMARK    3  A    between atoms: C7_8  and  N1_9 
REMARK    4  A    between atoms: C12_14  and  O1_15 
REMARK    5  A    between atoms: C16_19  and  O2_20 
ROOT
HETATM    1  C1  UNL     1      27.556   5.128  48.563  1.00  0.00     0.051 C 
HETATM    2  C2  UNL     1      26.194   5.046  49.153  1.00  0.00    -0.027 A 
HETATM    3  C3  UNL     1      25.189   5.799  48.538  1.00  0.00     0.021 A 
HETATM    4  C4  UNL     1      23.930   5.723  49.080  1.00  0.00    -0.035 A 
HETATM    5  C5  UNL     1      23.618   4.956  50.184  1.00  0.00     0.023 A 
HETATM    6  C6  UNL     1      24.605   4.210  50.798  1.00  0.00     0.004 A 
HETATM    7  C16 UNL     1      25.893   4.266  50.269  1.00  0.00     0.079 A 
ENDROOT
BRANCH   6   8
HETATM    8  C7  UNL     1      24.504   3.322  51.985  1.00  0.00     0.314 C 
BRANCH   8   9
HETATM    9  N1  UNL     1      23.853   2.067  51.720  1.00  0.00     0.101 N 
HETATM   10  C8  UNL     1      22.456   2.091  52.079  1.00  0.00     0.312 A 
HETATM   11  C9  UNL     1      22.314   1.003  53.051  1.00  0.00    -0.022 A 
HETATM   12  C10 UNL     1      21.235   0.478  53.751  1.00  0.00     0.012 A 
HETATM   13  C14 UNL     1      23.511   0.383  53.320  1.00  0.00    -0.019 A 
HETATM   14  C11 UNL     1      21.343  -0.582  54.645  1.00  0.00     0.037 A 
HETATM   15  C12 UNL     1      22.582  -1.158  54.866  1.00  0.00     0.066 A 
HETATM   16  C13 UNL     1      23.695  -0.662  54.184  1.00  0.00     0.045 A 
HETATM   17  C15 UNL     1      24.517   1.061  52.507  1.00  0.00     0.312 A 
BRANCH  15  18
HETATM   18  O1  UNL     1      22.751  -2.216  55.743  1.00  0.00    -0.361 OA
HETATM   19  H14 UNL     1      22.548  -3.168  55.533  1.00  0.00     0.217 HD
ENDBRANCH  15  18
ENDBRANCH   8   9
ENDBRANCH   6   8
BRANCH   7  20
HETATM   20  O2  UNL     1      26.999   3.569  50.778  1.00  0.00    -0.360 OA
HETATM   21  H18 UNL     1      27.727   4.119  51.210  1.00  0.00     0.217 HD
ENDBRANCH   7  20
BRANCH   4  22
HETATM   22  P1  UNL     1      22.576   6.687  48.314  1.00  0.00    -0.106 P 
HETATM   23  H5  UNL     1      21.927   7.441  49.381  1.00  0.00     0.059 HD
HETATM   24  H6  UNL     1      21.588   5.837  47.707  1.00  0.00     0.059 HD
ENDBRANCH   4  22
TORSDOF 5
ENDMDL
MODEL 3
REMARK VINA RESULT:      -7.5      4.027      5.394
REMARK  5 active torsions:
REMARK  status: ('A' for Active; 'I' for Inactive)
REMARK    1  A    between atoms: C4_4  and  P1_5 
REMARK    2  A    between atoms: C6_7  and  C7_8 
REMARK    3  A    between atoms: C7_8  and  N1_9 
REMARK    4  A    between atoms: C12_14  and  O1_15 
REMARK    5  A    between atoms: C16_19  and  O2_20 
ROOT
HETATM    1  C1  UNL     1      18.937  -0.953  53.456  1.00  0.00     0.051 C 
HETATM    2  C2  UNL     1      20.118  -0.346  52.788  1.00  0.00    -0.027 A 
HETATM    3  C3  UNL     1      19.901   0.275  51.555  1.00  0.00     0.021 A 
HETATM    4  C4  UNL     1      20.990   0.838  50.937  1.00  0.00    -0.035 A 
HETATM    5  C5  UNL     1      22.264   0.816  51.467  1.00  0.00     0.023 A 
HETATM    6  C6  UNL     1      22.488   0.205  52.684  1.00  0.00     0.004 A 
HETATM    7  C16 UNL     1      21.401  -0.375  53.336  1.00  0.00     0.079 A 
ENDROOT
BRANCH   6   8
HETATM    8  C7  UNL     1      23.760   0.059  53.438  1.00  0.00     0.314 C 
BRANCH   8   9
HETATM    9  N1  UNL     1      24.938   0.260  52.637  1.00  0.00     0.101 N 
HETATM   10  C8  UNL     1      25.900  -0.799  52.808  1.00  0.00     0.312 A 
HETATM   11  C9  UNL     1      27.114  -0.114  53.266  1.00  0.00    -0.022 A 
HETATM   12  C10 UNL     1      28.397  -0.544  53.577  1.00  0.00     0.012 A 
HETATM   13  C14 UNL     1      26.924   1.238  53.418  1.00  0.00    -0.019 A 
HETATM   14  C11 UNL     1      29.410   0.309  54.003  1.00  0.00     0.037 A 
HETATM   15  C12 UNL     1      29.146   1.661  54.133  1.00  0.00     0.066 A 
HETATM   16  C13 UNL     1      27.869   2.137  53.831  1.00  0.00     0.045 A 
HETATM   17  C15 UNL     1      25.535   1.502  53.052  1.00  0.00     0.312 A 
BRANCH  15  18
HETATM   18  O1  UNL     1      30.114   2.558  54.552  1.00  0.00    -0.361 OA
HETATM   19  H14 UNL     1      30.876   2.335  55.153  1.00  0.00     0.217 HD
ENDBRANCH  15  18
ENDBRANCH   8   9
ENDBRANCH   6   8
BRANCH   7  20
HETATM   20  O2  UNL     1      21.465  -1.031  54.573  1.00  0.00    -0.360 OA
HETATM   21  H18 UNL     1      22.234  -1.671  54.713  1.00  0.00     0.217 HD
ENDBRANCH   7  20
BRANCH   4  22
HETATM   22  P1  UNL     1      20.762   1.665  49.320  1.00  0.00    -0.106 P 
HETATM   23  H5  UNL     1      19.435   2.268  49.329  1.00  0.00     0.059 HD
HETATM   24  H6  UNL     1      20.819   0.733  48.228  1.00  0.00     0.059 HD
ENDBRANCH   4  22
TORSDOF 5
ENDMDL
MODEL 4
REMARK VINA RESULT:      -7.4      5.020      6.543
REMARK  5 active torsions:
REMARK  status: ('A' for Active; 'I' for Inactive)
REMARK    1  A    between atoms: C4_4  and  P1_5 
REMARK    2  A    between atoms: C6_7  and  C7_8 
REMARK    3  A    between atoms: C7_8  and  N1_9 
REMARK    4  A    between atoms: C12_14  and  O1_15 
REMARK    5  A    between atoms: C16_19  and  O2_20 
ROOT
HETATM    1  C1  UNL     1      17.871  -2.371  53.570  1.00  0.00     0.051 C 
HETATM    2  C2  UNL     1      18.591  -1.205  52.993  1.00  0.00    -0.027 A 
HETATM    3  C3  UNL     1      17.961  -0.523  51.948  1.00  0.00     0.021 A 
HETATM    4  C4  UNL     1      18.624   0.555  51.416  1.00  0.00    -0.035 A 
HETATM    5  C5  UNL     1      19.859   0.986  51.855  1.00  0.00     0.023 A 
HETATM    6  C6  UNL     1      20.488   0.318  52.886  1.00  0.00     0.004 A 
HETATM    7  C16 UNL     1      19.840  -0.781  53.447  1.00  0.00     0.079 A 
ENDROOT
BRANCH   6   8
HETATM    8  C7  UNL     1      21.806   0.597  53.515  1.00  0.00     0.314 C 
BRANCH   8   9
HETATM    9  N1  UNL     1      22.930   0.165  52.729  1.00  0.00     0.101 N 
HETATM   10  C8  UNL     1      23.880  -0.592  53.505  1.00  0.00     0.312 A 
HETATM   11  C9  UNL     1      25.135   0.153  53.365  1.00  0.00    -0.022 A 
HETATM   12  C10 UNL     1      26.428  -0.052  53.830  1.00  0.00     0.012 A 
HETATM   13  C14 UNL     1      24.985   1.295  52.615  1.00  0.00    -0.019 A 
HETATM   14  C11 UNL     1      27.485   0.813  53.565  1.00  0.00     0.037 A 
HETATM   15  C12 UNL     1      27.258   1.944  52.801  1.00  0.00     0.066 A 
HETATM   16  C13 UNL     1      25.974   2.191  52.313  1.00  0.00     0.045 A 
HETATM   17  C15 UNL     1      23.579   1.344  52.220  1.00  0.00     0.312 A 
BRANCH  15  18
HETATM   18  O1  UNL     1      28.270   2.841  52.503  1.00  0.00    -0.361 OA
HETATM   19  H14 UNL     1      28.315   3.396  51.677  1.00  0.00     0.217 HD
ENDBRANCH  15  18
ENDBRANCH   8   9
ENDBRANCH   6   8
BRANCH   7  20
HETATM   20  O2  UNL     1      20.347  -1.560  54.496  1.00  0.00    -0.360 OA
HETATM   21  H18 UNL     1      19.899  -2.450  54.664  1.00  0.00     0.217 HD
ENDBRANCH   7  20
BRANCH   4  22
HETATM   22  P1  UNL     1      17.844   1.486  50.046  1.00  0.00    -0.106 P 
HETATM   23  H5  UNL     1      17.723   0.570  48.917  1.00  0.00     0.059 HD
HETATM   24  H6  UNL     1      18.649   2.601  49.628  1.00  0.00     0.059 HD
ENDBRANCH   4  22
TORSDOF 5
ENDMDL
MODEL 5
REMARK VINA RESULT:      -7.2      2.317      2.701
REMARK  5 active torsions:
REMARK  status: ('A' for Active; 'I' for Inactive)
REMARK    1  A    between atoms: C4_4  and  P1_5 
REMARK    2  A    between atoms: C6_7  and  C7_8 
REMARK    3  A    between atoms: C7_8  and  N1_9 
REMARK    4  A    between atoms: C12_14  and  O1_15 
REMARK    5  A    between atoms: C16_19  and  O2_20 
ROOT
HETATM    1  C1  UNL     1      22.506   2.517  48.046  1.00  0.00     0.051 C 
HETATM    2  C2  UNL     1      22.626   2.220  49.498  1.00  0.00    -0.027 A 
HETATM    3  C3  UNL     1      21.519   1.635  50.120  1.00  0.00     0.021 A 
HETATM    4  C4  UNL     1      21.628   1.359  51.460  1.00  0.00    -0.035 A 
HETATM    5  C5  UNL     1      22.756   1.630  52.207  1.00  0.00     0.023 A 
HETATM    6  C6  UNL     1      23.854   2.208  51.600  1.00  0.00     0.004 A 
HETATM    7  C16 UNL     1      23.773   2.500  50.240  1.00  0.00     0.079 A 
ENDROOT
BRANCH   6   8
HETATM    8  C7  UNL     1      25.161   2.587  52.198  1.00  0.00     0.314 C 
BRANCH   8   9
HETATM    9  N1  UNL     1      25.563   1.750  53.297  1.00  0.00     0.101 N 
HETATM   10  C8  UNL     1      26.942   1.958  53.664  1.00  0.00     0.312 A 
HETATM   11  C9  UNL     1      27.556   0.634  53.522  1.00  0.00    -0.022 A 
HETATM   12  C10 UNL     1      28.835   0.142  53.750  1.00  0.00     0.012 A 
HETATM   13  C14 UNL     1      26.668  -0.308  53.063  1.00  0.00    -0.019 A 
HETATM   14  C11 UNL     1      29.196  -1.184  53.539  1.00  0.00     0.037 A 
HETATM   15  C12 UNL     1      28.247  -2.078  53.075  1.00  0.00     0.066 A 
HETATM   16  C13 UNL     1      26.949  -1.627  52.832  1.00  0.00     0.045 A 
HETATM   17  C15 UNL     1      25.394   0.382  52.882  1.00  0.00     0.312 A 
BRANCH  15  18
HETATM   18  O1  UNL     1      28.547  -3.411  52.846  1.00  0.00    -0.361 OA
HETATM   19  H14 UNL     1      28.827  -3.789  51.969  1.00  0.00     0.217 HD
ENDBRANCH  15  18
ENDBRANCH   8   9
ENDBRANCH   6   8
BRANCH   7  20
HETATM   20  O2  UNL     1      24.798   3.085  49.484  1.00  0.00    -0.360 OA
HETATM   21  H18 UNL     1      25.114   4.001  49.771  1.00  0.00     0.217 HD
ENDBRANCH   7  20
BRANCH   4  22
HETATM   22  P1  UNL     1      20.208   0.592  52.325  1.00  0.00    -0.106 P 
HETATM   23  H5  UNL     1      20.191   1.125  53.682  1.00  0.00     0.059 HD
HETATM   24  H6  UNL     1      20.341  -0.837  52.411  1.00  0.00     0.059 HD
ENDBRANCH   4  22
TORSDOF 5
ENDMDL
MODEL 6
REMARK VINA RESULT:      -7.1      3.213      4.104
REMARK  5 active torsions:
REMARK  status: ('A' for Active; 'I' for Inactive)
REMARK    1  A    between atoms: C4_4  and  P1_5 
REMARK    2  A    between atoms: C6_7  and  C7_8 
REMARK    3  A    between atoms: C7_8  and  N1_9 
REMARK    4  A    between atoms: C12_14  and  O1_15 
REMARK    5  A    between atoms: C16_19  and  O2_20 
ROOT
HETATM    1  C1  UNL     1      25.296   8.135  48.151  1.00  0.00     0.051 C 
HETATM    2  C2  UNL     1      26.120   6.919  48.382  1.00  0.00    -0.027 A 
HETATM    3  C3  UNL     1      27.486   7.016  48.101  1.00  0.00     0.021 A 
HETATM    4  C4  UNL     1      28.250   5.895  48.315  1.00  0.00    -0.035 A 
HETATM    5  C5  UNL     1      27.740   4.701  48.783  1.00  0.00     0.023 A 
HETATM    6  C6  UNL     1      26.392   4.597  49.063  1.00  0.00     0.004 A 
HETATM    7  C16 UNL     1      25.591   5.719  48.856  1.00  0.00     0.079 A 
ENDROOT
BRANCH   6   8
HETATM    8  C7  UNL     1      25.630   3.426  49.569  1.00  0.00     0.314 C 
BRANCH   8   9
HETATM    9  N1  UNL     1      25.768   3.208  50.984  1.00  0.00     0.101 N 
HETATM   10  C8  UNL     1      26.688   2.139  51.283  1.00  0.00     0.312 A 
HETATM   11  C9  UNL     1      25.892   1.185  52.062  1.00  0.00    -0.022 A 
HETATM   12  C10 UNL     1      26.182  -0.025  52.678  1.00  0.00     0.012 A 
HETATM   13  C14 UNL     1      24.585   1.585  52.200  1.00  0.00    -0.019 A 
HETATM   14  C11 UNL     1      25.241  -0.774  53.378  1.00  0.00     0.037 A 
HETATM   15  C12 UNL     1      23.942  -0.308  53.476  1.00  0.00     0.066 A 
HETATM   16  C13 UNL     1      23.606   0.904  52.871  1.00  0.00     0.045 A 
HETATM   17  C15 UNL     1      24.469   2.860  51.496  1.00  0.00     0.312 A 
BRANCH  15  18
HETATM   18  O1  UNL     1      22.963  -1.009  54.160  1.00  0.00    -0.361 OA
HETATM   19  H14 UNL     1      22.002  -0.749  54.203  1.00  0.00     0.217 HD
ENDBRANCH  15  18
ENDBRANCH   8   9
ENDBRANCH   6   8
BRANCH   7  20
HETATM   20  O2  UNL     1      24.211   5.772  49.092  1.00  0.00    -0.360 OA
HETATM   21  H18 UNL     1      23.746   6.647  48.899  1.00  0.00     0.217 HD
ENDBRANCH   7  20
BRANCH   4  22
HETATM   22  P1  UNL     1      30.045   5.966  47.964  1.00  0.00    -0.106 P 
HETATM   23  H5  UNL     1      30.679   4.912  48.748  1.00  0.00     0.059 HD
HETATM   24  H6  UNL     1      30.621   7.222  48.362  1.00  0.00     0.059 HD
ENDBRANCH   4  22
TORSDOF 5
ENDMDL
MODEL 7
REMARK VINA RESULT:      -7.1      5.504      7.714
REMARK  5 active torsions:
REMARK  status: ('A' for Active; 'I' for Inactive)
REMARK    1  A    between atoms: C4_4  and  P1_5 
REMARK    2  A    between atoms: C6_7  and  C7_8 
REMARK    3  A    between atoms: C7_8  and  N1_9 
REMARK    4  A    between atoms: C12_14  and  O1_15 
REMARK    5  A    between atoms: C16_19  and  O2_20 
ROOT
HETATM    1  C1  UNL     1      27.329  -0.501  53.043  1.00  0.00     0.051 C 
HETATM    2  C2  UNL     1      26.290   0.438  52.543  1.00  0.00    -0.027 A 
HETATM    3  C3  UNL     1      26.702   1.413  51.630  1.00  0.00     0.021 A 
HETATM    4  C4  UNL     1      25.744   2.280  51.166  1.00  0.00    -0.035 A 
HETATM    5  C5  UNL     1      24.421   2.236  51.554  1.00  0.00     0.023 A 
HETATM    6  C6  UNL     1      24.006   1.276  52.456  1.00  0.00     0.004 A 
HETATM    7  C16 UNL     1      24.956   0.381  52.945  1.00  0.00     0.079 A 
ENDROOT
BRANCH   6   8
HETATM    8  C7  UNL     1      22.648   1.041  53.013  1.00  0.00     0.314 C 
BRANCH   8   9
HETATM    9  N1  UNL     1      21.901   0.027  52.317  1.00  0.00     0.101 N 
HETATM   10  C8  UNL     1      21.121   0.572  51.234  1.00  0.00     0.312 A 
HETATM   11  C9  UNL     1      19.743   0.185  51.552  1.00  0.00    -0.022 A 
HETATM   12  C10 UNL     1      18.525   0.363  50.908  1.00  0.00     0.012 A 
HETATM   13  C14 UNL     1      19.652  -0.493  52.743  1.00  0.00    -0.019 A 
HETATM   14  C11 UNL     1      17.315  -0.101  51.413  1.00  0.00     0.037 A 
HETATM   15  C12 UNL     1      17.300  -0.777  52.621  1.00  0.00     0.066 A 
HETATM   16  C13 UNL     1      18.501  -0.979  53.303  1.00  0.00     0.045 A 
HETATM   17  C15 UNL     1      21.011  -0.583  53.270  1.00  0.00     0.312 A 
BRANCH  15  18
HETATM   18  O1  UNL     1      16.127  -1.263  53.173  1.00  0.00    -0.361 OA
HETATM   19  H14 UNL     1      16.076  -1.990  53.852  1.00  0.00     0.217 HD
ENDBRANCH  15  18
ENDBRANCH   8   9
ENDBRANCH   6   8
BRANCH   7  20
HETATM   20  O2  UNL     1      24.692  -0.645  53.862  1.00  0.00    -0.360 OA
HETATM   21  H18 UNL     1      25.488  -1.139  54.239  1.00  0.00     0.217 HD
ENDBRANCH   7  20
BRANCH   4  22
HETATM   22  P1  UNL     1      26.229   3.576  49.967  1.00  0.00    -0.106 P 
HETATM   23  H5  UNL     1      27.502   4.126  50.418  1.00  0.00     0.059 HD
HETATM   24  H6  UNL     1      25.273   4.649  49.921  1.00  0.00     0.059 HD
ENDBRANCH   4  22
TORSDOF 5
ENDMDL
MODEL 8
REMARK VINA RESULT:      -7.0      2.443      3.101
REMARK  5 active torsions:
REMARK  status: ('A' for Active; 'I' for Inactive)
REMARK    1  A    between atoms: C4_4  and  P1_5 
REMARK    2  A    between atoms: C6_7  and  C7_8 
REMARK    3  A    between atoms: C7_8  and  N1_9 
REMARK    4  A    between atoms: C12_14  and  O1_15 
REMARK    5  A    between atoms: C16_19  and  O2_20 
ROOT
HETATM    1  C1  UNL     1      27.749   7.300  48.218  1.00  0.00     0.051 C 
HETATM    2  C2  UNL     1      26.612   6.389  48.515  1.00  0.00    -0.027 A 
HETATM    3  C3  UNL     1      25.329   6.860  48.221  1.00  0.00     0.021 A 
HETATM    4  C4  UNL     1      24.277   6.020  48.492  1.00  0.00    -0.035 A 
HETATM    5  C5  UNL     1      24.426   4.759  49.034  1.00  0.00     0.023 A 
HETATM    6  C6  UNL     1      25.690   4.287  49.328  1.00  0.00     0.004 A 
HETATM    7  C16 UNL     1      26.778   5.117  49.062  1.00  0.00     0.079 A 
ENDROOT
BRANCH   6   8
HETATM    8  C7  UNL     1      26.088   2.979  49.910  1.00  0.00     0.314 C 
BRANCH   8   9
HETATM    9  N1  UNL     1      25.997   2.928  51.344  1.00  0.00     0.101 N 
HETATM   10  C8  UNL     1      26.922   1.981  51.916  1.00  0.00     0.312 A 
HETATM   11  C9  UNL     1      26.070   1.052  52.665  1.00  0.00    -0.022 A 
HETATM   12  C10 UNL     1      26.330  -0.055  53.463  1.00  0.00     0.012 A 
HETATM   13  C14 UNL     1      24.735   1.351  52.541  1.00  0.00    -0.019 A 
HETATM   14  C11 UNL     1      25.336  -0.802  54.086  1.00  0.00     0.037 A 
HETATM   15  C12 UNL     1      24.011  -0.441  53.915  1.00  0.00     0.066 A 
HETATM   16  C13 UNL     1      23.703   0.665  53.122  1.00  0.00     0.045 A 
HETATM   17  C15 UNL     1      24.656   2.527  51.678  1.00  0.00     0.312 A 
BRANCH  15  18
HETATM   18  O1  UNL     1      22.978  -1.145  54.511  1.00  0.00    -0.361 OA
HETATM   19  H14 UNL     1      22.112  -0.749  54.803  1.00  0.00     0.217 HD
ENDBRANCH  15  18
ENDBRANCH   8   9
ENDBRANCH   6   8
BRANCH   7  20
HETATM   20  O2  UNL     1      28.117   4.784  49.304  1.00  0.00    -0.360 OA
HETATM   21  H18 UNL     1      28.442   3.899  48.941  1.00  0.00     0.217 HD
ENDBRANCH   7  20
BRANCH   4  22
HETATM   22  P1  UNL     1      22.575   6.584  48.126  1.00  0.00    -0.106 P 
HETATM   23  H5  UNL     1      22.521   8.011  48.424  1.00  0.00     0.059 HD
HETATM   24  H6  UNL     1      21.600   5.922  48.950  1.00  0.00     0.059 HD
ENDBRANCH   4  22
TORSDOF 5
ENDMDL
MODEL 9
REMARK VINA RESULT:      -7.0      2.834      6.836
REMARK  5 active torsions:
REMARK  status: ('A' for Active; 'I' for Inactive)
REMARK    1  A    between atoms: C4_4  and  P1_5 
REMARK    2  A    between atoms: C6_7  and  C7_8 
REMARK    3  A    between atoms: C7_8  and  N1_9 
REMARK    4  A    between atoms: C12_14  and  O1_15 
REMARK    5  A    between atoms: C16_19  and  O2_20 
ROOT
HETATM    1  C1  UNL     1      27.004   0.054  54.936  1.00  0.00     0.051 C 
HETATM    2  C2  UNL     1      25.814   0.515  54.173  1.00  0.00    -0.027 A 
HETATM    3  C3  UNL     1      24.735  -0.370  54.085  1.00  0.00     0.021 A 
HETATM    4  C4  UNL     1      23.634   0.054  53.383  1.00  0.00    -0.035 A 
HETATM    5  C5  UNL     1      23.547   1.287  52.771  1.00  0.00     0.023 A 
HETATM    6  C6  UNL     1      24.608   2.167  52.853  1.00  0.00     0.004 A 
HETATM    7  C16 UNL     1      25.740   1.765  53.560  1.00  0.00     0.079 A 
ENDROOT
BRANCH   6   8
HETATM    8  C7  UNL     1      24.738   3.532  52.279  1.00  0.00     0.314 C 
BRANCH   8   9
HETATM    9  N1  UNL     1      24.807   3.555  50.843  1.00  0.00     0.101 N 
HETATM   10  C8  UNL     1      26.131   3.254  50.356  1.00  0.00     0.312 A 
HETATM   11  C9  UNL     1      26.497   4.428  49.558  1.00  0.00    -0.022 A 
HETATM   12  C10 UNL     1      27.612   4.760  48.799  1.00  0.00     0.012 A 
HETATM   13  C14 UNL     1      25.524   5.397  49.577  1.00  0.00    -0.019 A 
HETATM   14  C11 UNL     1      27.742   5.962  48.112  1.00  0.00     0.037 A 
HETATM   15  C12 UNL     1      26.720   6.893  48.177  1.00  0.00     0.066 A 
HETATM   16  C13 UNL     1      25.581   6.601  48.929  1.00  0.00     0.045 A 
HETATM   17  C15 UNL     1      24.445   4.880  50.414  1.00  0.00     0.312 A 
BRANCH  15  18
HETATM   18  O1  UNL     1      26.792   8.107  47.514  1.00  0.00    -0.361 OA
HETATM   19  H14 UNL     1      27.194   8.241  46.613  1.00  0.00     0.217 HD
ENDBRANCH  15  18
ENDBRANCH   8   9
ENDBRANCH   6   8
BRANCH   7  20
HETATM   20  O2  UNL     1      26.894   2.541  53.733  1.00  0.00    -0.360 OA
HETATM   21  H18 UNL     1      27.211   2.686  54.680  1.00  0.00     0.217 HD
ENDBRANCH   7  20
BRANCH   4  22
HETATM   22  P1  UNL     1      22.193  -1.065  53.236  1.00  0.00    -0.106 P 
HETATM   23  H5  UNL     1      21.750  -1.377  54.590  1.00  0.00     0.059 HD
HETATM   24  H6  UNL     1      22.536  -2.300  52.585  1.00  0.00     0.059 HD
ENDBRANCH   4  22
TORSDOF 5
ENDMDL
