MODEL 1
REMARK VINA RESULT:      -9.2      0.000      0.000
REMARK  4 active torsions:
REMARK  status: ('A' for Active; 'I' for Inactive)
REMARK    1  A    between atoms: O1_1  and  C1_2 
REMARK    2  A    between atoms: C3_5  and  N1_6 
REMARK    3  A    between atoms: C4_8  and  C5_9 
REMARK    4  A    between atoms: C11_16  and  C12_17 
ROOT
HETATM    1  N1  UNL     1      26.511   0.810  53.395  1.00  0.00    -0.231 N 
HETATM    2  N2  UNL     1      26.188   2.033  53.963  1.00  0.00    -0.171 NA
HETATM    3  C4  UNL     1      25.358   2.270  53.047  1.00  0.00     0.094 C 
HETATM    4  C11 UNL     1      25.328   0.827  52.610  1.00  0.00     0.200 C 
ENDROOT
BRANCH   1   5
HETATM    5  C3  UNL     1      27.532  -0.167  53.450  1.00  0.00     0.192 A 
HETATM    6  S1  UNL     1      29.326   0.339  53.740  1.00  0.00    -0.058 SA
HETATM    7  C2  UNL     1      30.016  -1.386  53.654  1.00  0.00     0.111 A 
HETATM    8  C1  UNL     1      28.780  -2.024  53.425  1.00  0.00     0.171 A 
HETATM    9  N3  UNL     1      27.570  -1.482  53.321  1.00  0.00    -0.198 NA
BRANCH   8  10
HETATM   10  O1  UNL     1      28.670  -3.427  53.266  1.00  0.00    -0.344 OA
HETATM   11  H1  UNL     1      28.016  -3.880  52.675  1.00  0.00     0.219 HD
ENDBRANCH   8  10
ENDBRANCH   1   5
BRANCH   4  12
HETATM   12  C12 UNL     1      24.179   0.098  53.271  1.00  0.00    -0.027 A 
HETATM   13  C13 UNL     1      23.028   0.136  52.478  1.00  0.00     0.013 A 
HETATM   14  C14 UNL     1      21.865  -0.497  52.933  1.00  0.00     0.043 A 
HETATM   15  C15 UNL     1      21.760  -1.165  54.116  1.00  0.00     0.116 A 
HETATM   16  F2  UNL     1      20.713  -1.802  54.654  1.00  0.00    -0.206 F 
HETATM   17  C16 UNL     1      22.913  -1.208  54.919  1.00  0.00     0.043 A 
HETATM   18  C17 UNL     1      24.041  -0.580  54.452  1.00  0.00     0.013 A 
ENDBRANCH   4  12
BRANCH   3  19
HETATM   19  C5  UNL     1      24.357   3.163  52.418  1.00  0.00    -0.007 A 
HETATM   20  C6  UNL     1      24.746   3.270  51.075  1.00  0.00     0.016 A 
HETATM   21  C7  UNL     1      24.004   4.011  50.157  1.00  0.00     0.043 A 
HETATM   22  C8  UNL     1      22.854   4.647  50.624  1.00  0.00     0.116 A 
HETATM   23  F1  UNL     1      22.013   5.413  49.870  1.00  0.00    -0.206 F 
HETATM   24  C9  UNL     1      22.478   4.538  51.950  1.00  0.00     0.043 A 
HETATM   25  C10 UNL     1      23.228   3.799  52.831  1.00  0.00     0.016 A 
ENDBRANCH   3  19
TORSDOF 4
ENDMDL
MODEL 2
REMARK VINA RESULT:      -9.2      3.608      5.928
REMARK  4 active torsions:
REMARK  status: ('A' for Active; 'I' for Inactive)
REMARK    1  A    between atoms: O1_1  and  C1_2 
REMARK    2  A    between atoms: C3_5  and  N1_6 
REMARK    3  A    between atoms: C4_8  and  C5_9 
REMARK    4  A    between atoms: C11_16  and  C12_17 
ROOT
HETATM    1  N1  UNL     1      25.021   2.971  51.625  1.00  0.00    -0.231 N 
HETATM    2  N2  UNL     1      24.229   3.123  52.753  1.00  0.00    -0.171 NA
HETATM    3  C4  UNL     1      23.874   1.917  52.701  1.00  0.00     0.094 C 
HETATM    4  C11 UNL     1      24.999   1.557  51.763  1.00  0.00     0.200 C 
ENDROOT
BRANCH   1   5
HETATM    5  C3  UNL     1      25.658   3.762  50.642  1.00  0.00     0.192 A 
HETATM    6  S1  UNL     1      24.825   5.318  49.978  1.00  0.00    -0.058 SA
HETATM    7  C2  UNL     1      26.182   5.754  48.782  1.00  0.00     0.111 A 
HETATM    8  C1  UNL     1      27.010   4.657  49.099  1.00  0.00     0.171 A 
HETATM    9  N3  UNL     1      26.800   3.683  49.979  1.00  0.00    -0.198 NA
BRANCH   8  10
HETATM   10  O1  UNL     1      28.260   4.444  48.468  1.00  0.00    -0.344 OA
HETATM   11  H1  UNL     1      28.819   5.157  48.068  1.00  0.00     0.219 HD
ENDBRANCH   8  10
ENDBRANCH   1   5
BRANCH   4  12
HETATM   12  C12 UNL     1      26.186   1.029  52.539  1.00  0.00    -0.027 A 
HETATM   13  C13 UNL     1      26.517  -0.270  52.141  1.00  0.00     0.013 A 
HETATM   14  C14 UNL     1      27.599  -0.915  52.751  1.00  0.00     0.043 A 
HETATM   15  C15 UNL     1      28.377  -0.367  53.727  1.00  0.00     0.116 A 
HETATM   16  F2  UNL     1      29.426  -0.880  54.380  1.00  0.00    -0.206 F 
HETATM   17  C16 UNL     1      28.050   0.939  54.133  1.00  0.00     0.043 A 
HETATM   18  C17 UNL     1      26.985   1.551  53.520  1.00  0.00     0.013 A 
ENDBRANCH   4  12
BRANCH   3  19
HETATM   19  C5  UNL     1      23.087   0.784  53.239  1.00  0.00    -0.007 A 
HETATM   20  C6  UNL     1      21.769   1.014  52.823  1.00  0.00     0.016 A 
HETATM   21  C7  UNL     1      20.742   0.118  53.117  1.00  0.00     0.043 A 
HETATM   22  C8  UNL     1      21.075  -1.023  53.847  1.00  0.00     0.116 A 
HETATM   23  F1  UNL     1      20.202  -2.001  54.225  1.00  0.00    -0.206 F 
HETATM   24  C9  UNL     1      22.378  -1.242  54.255  1.00  0.00     0.043 A 
HETATM   25  C10 UNL     1      23.368  -0.343  53.949  1.00  0.00     0.016 A 
ENDBRANCH   3  19
TORSDOF 4
ENDMDL
MODEL 3
REMARK VINA RESULT:      -8.7      4.222      6.960
REMARK  4 active torsions:
REMARK  status: ('A' for Active; 'I' for Inactive)
REMARK    1  A    between atoms: O1_1  and  C1_2 
REMARK    2  A    between atoms: C3_5  and  N1_6 
REMARK    3  A    between atoms: C4_8  and  C5_9 
REMARK    4  A    between atoms: C11_16  and  C12_17 
ROOT
HETATM    1  N1  UNL     1      22.320  -0.207  53.451  1.00  0.00    -0.231 N 
HETATM    2  N2  UNL     1      23.190  -0.252  54.530  1.00  0.00    -0.171 NA
HETATM    3  C4  UNL     1      24.179  -0.393  53.763  1.00  0.00     0.094 C 
HETATM    4  C11 UNL     1      23.392   0.061  52.558  1.00  0.00     0.200 C 
ENDROOT
BRANCH   1   5
HETATM    5  C3  UNL     1      20.941  -0.348  53.173  1.00  0.00     0.192 A 
HETATM    6  S1  UNL     1      20.217   0.315  51.563  1.00  0.00    -0.058 SA
HETATM    7  C2  UNL     1      18.465  -0.193  51.930  1.00  0.00     0.111 A 
HETATM    8  C1  UNL     1      18.743  -0.764  53.189  1.00  0.00     0.171 A 
HETATM    9  N3  UNL     1      19.909  -0.860  53.821  1.00  0.00    -0.198 NA
BRANCH   8  10
HETATM   10  O1  UNL     1      17.735  -1.349  53.994  1.00  0.00    -0.344 OA
HETATM   11  H1  UNL     1      17.879  -1.717  54.902  1.00  0.00     0.219 HD
ENDBRANCH   8  10
ENDBRANCH   1   5
BRANCH   4  12
HETATM   12  C12 UNL     1      23.597   1.541  52.320  1.00  0.00    -0.027 A 
HETATM   13  C13 UNL     1      23.685   1.829  50.955  1.00  0.00     0.013 A 
HETATM   14  C14 UNL     1      23.869   3.157  50.549  1.00  0.00     0.043 A 
HETATM   15  C15 UNL     1      23.971   4.218  51.397  1.00  0.00     0.116 A 
HETATM   16  F2  UNL     1      24.148   5.518  51.131  1.00  0.00    -0.206 F 
HETATM   17  C16 UNL     1      23.884   3.936  52.772  1.00  0.00     0.043 A 
HETATM   18  C17 UNL     1      23.703   2.627  53.146  1.00  0.00     0.013 A 
ENDBRANCH   4  12
BRANCH   3  19
HETATM   19  C5  UNL     1      25.635  -0.571  53.562  1.00  0.00    -0.007 A 
HETATM   20  C6  UNL     1      26.246   0.215  54.549  1.00  0.00     0.016 A 
HETATM   21  C7  UNL     1      27.632   0.262  54.690  1.00  0.00     0.043 A 
HETATM   22  C8  UNL     1      28.394  -0.504  53.809  1.00  0.00     0.116 A 
HETATM   23  F1  UNL     1      29.757  -0.576  53.800  1.00  0.00    -0.206 F 
HETATM   24  C9  UNL     1      27.784  -1.275  52.837  1.00  0.00     0.043 A 
HETATM   25  C10 UNL     1      26.416  -1.303  52.723  1.00  0.00     0.016 A 
ENDBRANCH   3  19
TORSDOF 4
ENDMDL
MODEL 4
REMARK VINA RESULT:      -8.4      1.967      4.710
REMARK  4 active torsions:
REMARK  status: ('A' for Active; 'I' for Inactive)
REMARK    1  A    between atoms: O1_1  and  C1_2 
REMARK    2  A    between atoms: C3_5  and  N1_6 
REMARK    3  A    between atoms: C4_8  and  C5_9 
REMARK    4  A    between atoms: C11_16  and  C12_17 
ROOT
HETATM    1  N1  UNL     1      25.876   0.391  53.208  1.00  0.00    -0.231 N 
HETATM    2  N2  UNL     1      25.070  -0.530  52.557  1.00  0.00    -0.171 NA
HETATM    3  C4  UNL     1      24.035  -0.025  53.067  1.00  0.00     0.094 C 
HETATM    4  C11 UNL     1      24.763   1.237  53.458  1.00  0.00     0.200 C 
ENDROOT
BRANCH   1   5
HETATM    5  C3  UNL     1      27.233   0.572  53.565  1.00  0.00     0.192 A 
HETATM    6  S1  UNL     1      28.478  -0.825  53.333  1.00  0.00    -0.058 SA
HETATM    7  C2  UNL     1      29.932   0.114  54.014  1.00  0.00     0.111 A 
HETATM    8  C1  UNL     1      29.221   1.300  54.290  1.00  0.00     0.171 A 
HETATM    9  N3  UNL     1      27.932   1.562  54.091  1.00  0.00    -0.198 NA
BRANCH   8  10
HETATM   10  O1  UNL     1      29.840   2.441  54.855  1.00  0.00    -0.344 OA
HETATM   11  H1  UNL     1      30.337   2.449  55.712  1.00  0.00     0.219 HD
ENDBRANCH   8  10
ENDBRANCH   1   5
BRANCH   4  12
HETATM   12  C12 UNL     1      24.587   2.299  52.395  1.00  0.00    -0.027 A 
HETATM   13  C13 UNL     1      23.919   3.419  52.900  1.00  0.00     0.013 A 
HETATM   14  C14 UNL     1      23.676   4.507  52.053  1.00  0.00     0.043 A 
HETATM   15  C15 UNL     1      24.046   4.566  50.743  1.00  0.00     0.116 A 
HETATM   16  F2  UNL     1      23.870   5.540  49.843  1.00  0.00    -0.206 F 
HETATM   17  C16 UNL     1      24.718   3.444  50.228  1.00  0.00     0.043 A 
HETATM   18  C17 UNL     1      24.946   2.389  51.078  1.00  0.00     0.013 A 
ENDBRANCH   4  12
BRANCH   3  19
HETATM   19  C5  UNL     1      22.565  -0.012  53.245  1.00  0.00    -0.007 A 
HETATM   20  C6  UNL     1      22.035   0.146  51.957  1.00  0.00     0.016 A 
HETATM   21  C7  UNL     1      20.659   0.163  51.730  1.00  0.00     0.043 A 
HETATM   22  C8  UNL     1      19.824   0.018  52.838  1.00  0.00     0.116 A 
HETATM   23  F1  UNL     1      18.459   0.015  52.802  1.00  0.00    -0.206 F 
HETATM   24  C9  UNL     1      20.355  -0.135  54.105  1.00  0.00     0.043 A 
HETATM   25  C10 UNL     1      21.714  -0.150  54.297  1.00  0.00     0.016 A 
ENDBRANCH   3  19
TORSDOF 4
ENDMDL
MODEL 5
REMARK VINA RESULT:      -8.3      3.745      5.391
REMARK  4 active torsions:
REMARK  status: ('A' for Active; 'I' for Inactive)
REMARK    1  A    between atoms: O1_1  and  C1_2 
REMARK    2  A    between atoms: C3_5  and  N1_6 
REMARK    3  A    between atoms: C4_8  and  C5_9 
REMARK    4  A    between atoms: C11_16  and  C12_17 
ROOT
HETATM    1  N1  UNL     1      23.446   1.376  52.121  1.00  0.00    -0.231 N 
HETATM    2  N2  UNL     1      23.637   1.541  50.758  1.00  0.00    -0.171 NA
HETATM    3  C4  UNL     1      24.269   2.613  50.947  1.00  0.00     0.094 C 
HETATM    4  C11 UNL     1      24.478   2.308  52.410  1.00  0.00     0.200 C 
ENDROOT
BRANCH   1   5
HETATM    5  C3  UNL     1      22.627   0.647  53.013  1.00  0.00     0.192 A 
HETATM    6  S1  UNL     1      20.808   1.097  53.227  1.00  0.00    -0.058 SA
HETATM    7  C2  UNL     1      20.447  -0.210  54.501  1.00  0.00     0.111 A 
HETATM    8  C1  UNL     1      21.752  -0.743  54.534  1.00  0.00     0.171 A 
HETATM    9  N3  UNL     1      22.822  -0.366  53.840  1.00  0.00    -0.198 NA
BRANCH   8  10
HETATM   10  O1  UNL     1      22.106  -1.827  55.372  1.00  0.00    -0.344 OA
HETATM   11  H1  UNL     1      21.482  -2.302  55.978  1.00  0.00     0.219 HD
ENDBRANCH   8  10
ENDBRANCH   1   5
BRANCH   4  12
HETATM   12  C12 UNL     1      25.821   1.644  52.624  1.00  0.00    -0.027 A 
HETATM   13  C13 UNL     1      26.698   2.481  53.322  1.00  0.00     0.013 A 
HETATM   14  C14 UNL     1      27.988   2.023  53.615  1.00  0.00     0.043 A 
HETATM   15  C15 UNL     1      28.472   0.798  53.268  1.00  0.00     0.116 A 
HETATM   16  F2  UNL     1      29.675   0.255  53.489  1.00  0.00    -0.206 F 
HETATM   17  C16 UNL     1      27.597  -0.049  52.566  1.00  0.00     0.043 A 
HETATM   18  C17 UNL     1      26.337   0.421  52.290  1.00  0.00     0.013 A 
ENDBRANCH   4  12
BRANCH   3  19
HETATM   19  C5  UNL     1      24.996   3.788  50.416  1.00  0.00    -0.007 A 
HETATM   20  C6  UNL     1      26.096   3.263  49.724  1.00  0.00     0.016 A 
HETATM   21  C7  UNL     1      26.997   4.087  49.050  1.00  0.00     0.043 A 
HETATM   22  C8  UNL     1      26.763   5.462  49.089  1.00  0.00     0.116 A 
HETATM   23  F1  UNL     1      27.539   6.412  48.492  1.00  0.00    -0.206 F 
HETATM   24  C9  UNL     1      25.676   5.972  49.776  1.00  0.00     0.043 A 
HETATM   25  C10 UNL     1      24.806   5.135  50.429  1.00  0.00     0.016 A 
ENDBRANCH   3  19
TORSDOF 4
ENDMDL
MODEL 6
REMARK VINA RESULT:      -8.0      1.357      1.569
REMARK  4 active torsions:
REMARK  status: ('A' for Active; 'I' for Inactive)
REMARK    1  A    between atoms: O1_1  and  C1_2 
REMARK    2  A    between atoms: C3_5  and  N1_6 
REMARK    3  A    between atoms: C4_8  and  C5_9 
REMARK    4  A    between atoms: C11_16  and  C12_17 
ROOT
HETATM    1  N1  UNL     1      25.406   1.537  52.977  1.00  0.00    -0.231 N 
HETATM    2  N2  UNL     1      25.068   2.704  53.642  1.00  0.00    -0.171 NA
HETATM    3  C4  UNL     1      24.373   3.093  52.667  1.00  0.00     0.094 C 
HETATM    4  C11 UNL     1      24.335   1.712  52.061  1.00  0.00     0.200 C 
ENDROOT
BRANCH   1   5
HETATM    5  C3  UNL     1      26.367   0.501  53.039  1.00  0.00     0.192 A 
HETATM    6  S1  UNL     1      28.164   0.888  53.460  1.00  0.00    -0.058 SA
HETATM    7  C2  UNL     1      28.764  -0.868  53.322  1.00  0.00     0.111 A 
HETATM    8  C1  UNL     1      27.511  -1.421  52.987  1.00  0.00     0.171 A 
HETATM    9  N3  UNL     1      26.341  -0.805  52.841  1.00  0.00    -0.198 NA
BRANCH   8  10
HETATM   10  O1  UNL     1      27.335  -2.805  52.746  1.00  0.00    -0.344 OA
HETATM   11  H1  UNL     1      27.838  -3.527  53.202  1.00  0.00     0.219 HD
ENDBRANCH   8  10
ENDBRANCH   1   5
BRANCH   4  12
HETATM   12  C12 UNL     1      23.079   0.982  52.485  1.00  0.00    -0.027 A 
HETATM   13  C13 UNL     1      22.139   0.943  51.451  1.00  0.00     0.013 A 
HETATM   14  C14 UNL     1      20.915   0.298  51.667  1.00  0.00     0.043 A 
HETATM   15  C15 UNL     1      20.556  -0.311  52.831  1.00  0.00     0.116 A 
HETATM   16  F2  UNL     1      19.426  -0.952  53.153  1.00  0.00    -0.206 F 
HETATM   17  C16 UNL     1      21.496  -0.276  53.876  1.00  0.00     0.043 A 
HETATM   18  C17 UNL     1      22.689   0.362  53.641  1.00  0.00     0.013 A 
ENDBRANCH   4  12
BRANCH   3  19
HETATM   19  C5  UNL     1      23.502   4.108  52.032  1.00  0.00    -0.007 A 
HETATM   20  C6  UNL     1      24.255   4.634  50.973  1.00  0.00     0.016 A 
HETATM   21  C7  UNL     1      23.732   5.602  50.116  1.00  0.00     0.043 A 
HETATM   22  C8  UNL     1      22.427   6.031  50.351  1.00  0.00     0.116 A 
HETATM   23  F1  UNL     1      21.759   6.969  49.618  1.00  0.00    -0.206 F 
HETATM   24  C9  UNL     1      21.691   5.508  51.399  1.00  0.00     0.043 A 
HETATM   25  C10 UNL     1      22.232   4.555  52.225  1.00  0.00     0.016 A 
ENDBRANCH   3  19
TORSDOF 4
ENDMDL
MODEL 7
REMARK VINA RESULT:      -8.0      4.114      6.409
REMARK  4 active torsions:
REMARK  status: ('A' for Active; 'I' for Inactive)
REMARK    1  A    between atoms: O1_1  and  C1_2 
REMARK    2  A    between atoms: C3_5  and  N1_6 
REMARK    3  A    between atoms: C4_8  and  C5_9 
REMARK    4  A    between atoms: C11_16  and  C12_17 
ROOT
HETATM    1  N1  UNL     1      24.124   3.099  51.217  1.00  0.00    -0.231 N 
HETATM    2  N2  UNL     1      24.998   2.331  50.462  1.00  0.00    -0.171 NA
HETATM    3  C4  UNL     1      25.573   1.913  51.500  1.00  0.00     0.094 C 
HETATM    4  C11 UNL     1      24.437   2.358  52.388  1.00  0.00     0.200 C 
ENDROOT
BRANCH   1   5
HETATM    5  C3  UNL     1      23.234   4.186  51.060  1.00  0.00     0.192 A 
HETATM    6  S1  UNL     1      23.842   5.958  51.272  1.00  0.00    -0.058 SA
HETATM    7  C2  UNL     1      22.190   6.755  50.960  1.00  0.00     0.111 A 
HETATM    8  C1  UNL     1      21.487   5.550  50.754  1.00  0.00     0.171 A 
HETATM    9  N3  UNL     1      21.945   4.302  50.792  1.00  0.00    -0.198 NA
BRANCH   8  10
HETATM   10  O1  UNL     1      20.102   5.522  50.460  1.00  0.00    -0.344 OA
HETATM   11  H1  UNL     1      19.713   5.231  49.597  1.00  0.00     0.219 HD
ENDBRANCH   8  10
ENDBRANCH   1   5
BRANCH   4  12
HETATM   12  C12 UNL     1      23.476   1.215  52.629  1.00  0.00    -0.027 A 
HETATM   13  C13 UNL     1      23.815   0.499  53.782  1.00  0.00     0.013 A 
HETATM   14  C14 UNL     1      23.026  -0.593  54.162  1.00  0.00     0.043 A 
HETATM   15  C15 UNL     1      21.926  -1.026  53.486  1.00  0.00     0.116 A 
HETATM   16  F2  UNL     1      21.101  -2.047  53.749  1.00  0.00    -0.206 F 
HETATM   17  C16 UNL     1      21.578  -0.311  52.326  1.00  0.00     0.043 A 
HETATM   18  C17 UNL     1      22.367   0.756  51.973  1.00  0.00     0.013 A 
ENDBRANCH   4  12
BRANCH   3  19
HETATM   19  C5  UNL     1      26.623   1.094  52.147  1.00  0.00    -0.007 A 
HETATM   20  C6  UNL     1      27.498   2.012  52.743  1.00  0.00     0.016 A 
HETATM   21  C7  UNL     1      28.602   1.594  53.486  1.00  0.00     0.043 A 
HETATM   22  C8  UNL     1      28.806   0.221  53.615  1.00  0.00     0.116 A 
HETATM   23  F1  UNL     1      29.832  -0.364  54.300  1.00  0.00    -0.206 F 
HETATM   24  C9  UNL     1      27.939  -0.679  53.023  1.00  0.00     0.043 A 
HETATM   25  C10 UNL     1      26.860  -0.237  52.299  1.00  0.00     0.016 A 
ENDBRANCH   3  19
TORSDOF 4
ENDMDL
MODEL 8
REMARK VINA RESULT:      -7.6      4.967      7.426
REMARK  4 active torsions:
REMARK  status: ('A' for Active; 'I' for Inactive)
REMARK    1  A    between atoms: O1_1  and  C1_2 
REMARK    2  A    between atoms: C3_5  and  N1_6 
REMARK    3  A    between atoms: C4_8  and  C5_9 
REMARK    4  A    between atoms: C11_16  and  C12_17 
ROOT
HETATM    1  N1  UNL     1      20.583   0.336  52.615  1.00  0.00    -0.231 N 
HETATM    2  N2  UNL     1      21.426   1.016  53.480  1.00  0.00    -0.171 NA
HETATM    3  C4  UNL     1      22.439   0.640  52.834  1.00  0.00     0.094 C 
HETATM    4  C11 UNL     1      21.609   0.242  51.638  1.00  0.00     0.200 C 
ENDROOT
BRANCH   1   5
HETATM    5  C3  UNL     1      19.254  -0.146  52.563  1.00  0.00     0.192 A 
HETATM    6  S1  UNL     1      17.965   0.717  51.490  1.00  0.00    -0.058 SA
HETATM    7  C2  UNL     1      16.561  -0.414  51.951  1.00  0.00     0.111 A 
HETATM    8  C1  UNL     1      17.313  -1.229  52.822  1.00  0.00     0.171 A 
HETATM    9  N3  UNL     1      18.601  -1.138  53.143  1.00  0.00    -0.198 NA
BRANCH   8  10
HETATM   10  O1  UNL     1      16.744  -2.326  53.512  1.00  0.00    -0.344 OA
HETATM   11  H1  UNL     1      16.665  -3.244  53.148  1.00  0.00     0.219 HD
ENDBRANCH   8  10
ENDBRANCH   1   5
BRANCH   4  12
HETATM   12  C12 UNL     1      21.560   1.370  50.630  1.00  0.00    -0.027 A 
HETATM   13  C13 UNL     1      21.576   0.883  49.320  1.00  0.00     0.013 A 
HETATM   14  C14 UNL     1      21.529   1.791  48.255  1.00  0.00     0.043 A 
HETATM   15  C15 UNL     1      21.466   3.145  48.394  1.00  0.00     0.116 A 
HETATM   16  F2  UNL     1      21.418   4.103  47.462  1.00  0.00    -0.206 F 
HETATM   17  C16 UNL     1      21.449   3.642  49.709  1.00  0.00     0.043 A 
HETATM   18  C17 UNL     1      21.496   2.733  50.737  1.00  0.00     0.013 A 
ENDBRANCH   4  12
BRANCH   3  19
HETATM   19  C5  UNL     1      23.907   0.611  52.647  1.00  0.00    -0.007 A 
HETATM   20  C6  UNL     1      24.357  -0.484  53.398  1.00  0.00     0.016 A 
HETATM   21  C7  UNL     1      25.703  -0.847  53.428  1.00  0.00     0.043 A 
HETATM   22  C8  UNL     1      26.592  -0.076  52.679  1.00  0.00     0.116 A 
HETATM   23  F1  UNL     1      27.939  -0.283  52.594  1.00  0.00    -0.206 F 
HETATM   24  C9  UNL     1      26.141   1.004  51.943  1.00  0.00     0.043 A 
HETATM   25  C10 UNL     1      24.809   1.336  51.932  1.00  0.00     0.016 A 
ENDBRANCH   3  19
TORSDOF 4
ENDMDL
MODEL 9
REMARK VINA RESULT:      -7.6      8.395     10.832
REMARK  4 active torsions:
REMARK  status: ('A' for Active; 'I' for Inactive)
REMARK    1  A    between atoms: O1_1  and  C1_2 
REMARK    2  A    between atoms: C3_5  and  N1_6 
REMARK    3  A    between atoms: C4_8  and  C5_9 
REMARK    4  A    between atoms: C11_16  and  C12_17 
ROOT
HETATM    1  N1  UNL     1      31.657   6.621  48.010  1.00  0.00    -0.231 N 
HETATM    2  N2  UNL     1      30.777   6.184  47.032  1.00  0.00    -0.171 NA
HETATM    3  C4  UNL     1      29.789   6.426  47.773  1.00  0.00     0.094 C 
HETATM    4  C11 UNL     1      30.610   7.292  48.696  1.00  0.00     0.200 C 
ENDROOT
BRANCH   1   5
HETATM    5  C3  UNL     1      33.029   6.531  48.343  1.00  0.00     0.192 A 
HETATM    6  S1  UNL     1      34.227   7.899  47.840  1.00  0.00    -0.058 SA
HETATM    7  C2  UNL     1      35.738   7.089  48.563  1.00  0.00     0.111 A 
HETATM    8  C1  UNL     1      35.070   5.945  49.047  1.00  0.00     0.171 A 
HETATM    9  N3  UNL     1      33.779   5.638  48.964  1.00  0.00    -0.198 NA
BRANCH   8  10
HETATM   10  O1  UNL     1      35.746   4.906  49.731  1.00  0.00    -0.344 OA
HETATM   11  H1  UNL     1      36.054   4.062  49.315  1.00  0.00     0.219 HD
ENDBRANCH   8  10
ENDBRANCH   1   5
BRANCH   4  12
HETATM   12  C12 UNL     1      30.491   8.747  48.301  1.00  0.00    -0.027 A 
HETATM   13  C13 UNL     1      30.618   9.589  49.410  1.00  0.00     0.013 A 
HETATM   14  C14 UNL     1      30.540  10.974  49.227  1.00  0.00     0.043 A 
HETATM   15  C15 UNL     1      30.347  11.587  48.025  1.00  0.00     0.116 A 
HETATM   16  F2  UNL     1      30.256  12.888  47.729  1.00  0.00    -0.206 F 
HETATM   17  C16 UNL     1      30.220  10.747  46.905  1.00  0.00     0.043 A 
HETATM   18  C17 UNL     1      30.299   9.392  47.109  1.00  0.00     0.013 A 
ENDBRANCH   4  12
BRANCH   3  19
HETATM   19  C5  UNL     1      28.327   6.428  48.007  1.00  0.00    -0.007 A 
HETATM   20  C6  UNL     1      28.039   5.179  48.575  1.00  0.00     0.016 A 
HETATM   21  C7  UNL     1      26.746   4.836  48.969  1.00  0.00     0.043 A 
HETATM   22  C8  UNL     1      25.743   5.785  48.776  1.00  0.00     0.116 A 
HETATM   23  F1  UNL     1      24.427   5.620  49.099  1.00  0.00    -0.206 F 
HETATM   24  C9  UNL     1      26.035   7.014  48.214  1.00  0.00     0.043 A 
HETATM   25  C10 UNL     1      27.318   7.324  47.838  1.00  0.00     0.016 A 
ENDBRANCH   3  19
TORSDOF 4
ENDMDL
