MODEL 1
REMARK VINA RESULT:      -7.6      0.000      0.000
REMARK  4 active torsions:
REMARK  status: ('A' for Active; 'I' for Inactive)
REMARK    1  A    between atoms: C3_3  and  N1_4 
REMARK    2  A    between atoms: C3_3  and  C4_5 
REMARK    3  A    between atoms: C7_8  and  N2_9 
REMARK    4  A    between atoms: N2_9  and  C8_10 
ROOT
HETATM    1  C1  UNL     1      30.010  -0.688  53.847  1.00  0.00     0.014 C 
HETATM    2  C2  UNL     1      29.066  -1.087  53.233  1.00  0.00    -0.076 C 
HETATM    3  C3  UNL     1      27.914  -1.564  52.512  1.00  0.00     0.344 C 
ENDROOT
BRANCH   3   4
HETATM    4  N1  UNL     1      27.390  -2.780  53.101  1.00  0.00     0.100 N 
HETATM    5  H3  UNL     1      28.088  -3.533  53.131  1.00  0.00     0.315 HD
HETATM    6  H4  UNL     1      26.822  -2.644  53.940  1.00  0.00     0.315 HD
ENDBRANCH   3   4
BRANCH   3   7
HETATM    7  C4  UNL     1      26.848  -0.504  52.616  1.00  0.00     0.051 C 
HETATM    8  C5  UNL     1      26.868   0.688  51.970  1.00  0.00     0.011 C 
HETATM    9  C6  UNL     1      26.328   2.040  51.595  1.00  0.00     0.169 C 
HETATM   10  C7  UNL     1      25.141   2.534  52.101  1.00  0.00     0.111 C 
HETATM   11  N3  UNL     1      24.057   2.175  53.036  1.00  0.00    -0.256 NA
HETATM   12  C14 UNL     1      23.720   0.885  52.994  1.00  0.00     0.230 C 
HETATM   13  N4  UNL     1      23.039  -0.354  53.303  1.00  0.00    -0.239 NA
HETATM   14  C15 UNL     1      23.537  -0.909  54.373  1.00  0.00     0.103 C 
HETATM   15  C16 UNL     1      24.838  -0.699  54.543  1.00  0.00     0.122 C 
HETATM   16  N5  UNL     1      25.717  -0.815  53.447  1.00  0.00    -0.365 N 
HETATM   17  H14 UNL     1      25.385  -1.620  52.824  1.00  0.00     0.165 HD
BRANCH  10  18
HETATM   18  N2  UNL     1      24.948   3.810  51.537  1.00  0.00    -0.366 N 
HETATM   19  H7  UNL     1      25.344   4.637  52.077  1.00  0.00     0.162 HD
BRANCH  18  20
HETATM   20  C8  UNL     1      24.281   4.148  50.315  1.00  0.00     0.030 A 
HETATM   21  C9  UNL     1      23.347   3.323  49.706  1.00  0.00     0.029 A 
HETATM   22  C10 UNL     1      22.769   3.755  48.530  1.00  0.00     0.004 A 
HETATM   23  C11 UNL     1      23.059   4.960  47.916  1.00  0.00     0.019 A 
HETATM   24  C12 UNL     1      23.990   5.761  48.544  1.00  0.00     0.013 A 
HETATM   25 BR1  UNL     1      24.379   7.419  47.686  1.00  0.00    -0.051 Br
HETATM   26  C13 UNL     1      24.590   5.356  49.727  1.00  0.00     0.048 A 
ENDBRANCH  18  20
ENDBRANCH  10  18
ENDBRANCH   3   7
TORSDOF 4
ENDMDL
MODEL 2
REMARK VINA RESULT:      -7.5      3.814      5.742
REMARK  4 active torsions:
REMARK  status: ('A' for Active; 'I' for Inactive)
REMARK    1  A    between atoms: C3_3  and  N1_4 
REMARK    2  A    between atoms: C3_3  and  C4_5 
REMARK    3  A    between atoms: C7_8  and  N2_9 
REMARK    4  A    between atoms: N2_9  and  C8_10 
ROOT
HETATM    1  C1  UNL     1      29.959  -1.425  53.465  1.00  0.00     0.014 C 
HETATM    2  C2  UNL     1      29.368  -0.549  54.021  1.00  0.00    -0.076 C 
HETATM    3  C3  UNL     1      28.648   0.516  54.671  1.00  0.00     0.344 C 
ENDROOT
BRANCH   3   4
HETATM    4  N1  UNL     1      29.237   1.806  54.375  1.00  0.00     0.100 N 
HETATM    5  H3  UNL     1      30.166   1.724  53.943  1.00  0.00     0.315 HD
HETATM    6  H4  UNL     1      28.596   2.490  53.964  1.00  0.00     0.315 HD
ENDBRANCH   3   4
BRANCH   3   7
HETATM    7  C4  UNL     1      27.245   0.511  54.122  1.00  0.00     0.051 C 
HETATM    8  C5  UNL     1      26.199  -0.163  54.659  1.00  0.00     0.011 C 
HETATM    9  C6  UNL     1      24.769  -0.620  54.731  1.00  0.00     0.169 C 
HETATM   10  C7  UNL     1      23.821  -0.250  53.796  1.00  0.00     0.111 C 
HETATM   11  N3  UNL     1      23.685   0.530  52.550  1.00  0.00    -0.256 NA
HETATM   12  C14 UNL     1      24.407   1.651  52.540  1.00  0.00     0.230 C 
HETATM   13  N4  UNL     1      24.981   2.895  52.073  1.00  0.00    -0.239 NA
HETATM   14  C15 UNL     1      26.005   2.676  51.295  1.00  0.00     0.103 C 
HETATM   15  C16 UNL     1      26.705   1.591  51.604  1.00  0.00     0.122 C 
HETATM   16  N5  UNL     1      27.015   1.315  52.952  1.00  0.00    -0.365 N 
HETATM   17  H14 UNL     1      27.217   2.238  53.454  1.00  0.00     0.165 HD
BRANCH  10  18
HETATM   18  N2  UNL     1      22.606  -0.852  54.176  1.00  0.00    -0.366 N 
HETATM   19  H7  UNL     1      22.652  -1.570  54.960  1.00  0.00     0.162 HD
BRANCH  18  20
HETATM   20  C8  UNL     1      21.297  -0.624  53.640  1.00  0.00     0.030 A 
HETATM   21  C9  UNL     1      20.956   0.517  52.928  1.00  0.00     0.029 A 
HETATM   22  C10 UNL     1      19.663   0.627  52.460  1.00  0.00     0.004 A 
HETATM   23  C11 UNL     1      18.680  -0.328  52.654  1.00  0.00     0.019 A 
HETATM   24  C12 UNL     1      19.048  -1.452  53.364  1.00  0.00     0.013 A 
HETATM   25 BR1  UNL     1      17.683  -2.758  53.623  1.00  0.00    -0.051 Br
HETATM   26  C13 UNL     1      20.339  -1.593  53.849  1.00  0.00     0.048 A 
ENDBRANCH  18  20
ENDBRANCH  10  18
ENDBRANCH   3   7
TORSDOF 4
ENDMDL
MODEL 3
REMARK VINA RESULT:      -7.4      1.970      2.434
REMARK  4 active torsions:
REMARK  status: ('A' for Active; 'I' for Inactive)
REMARK    1  A    between atoms: C3_3  and  N1_4 
REMARK    2  A    between atoms: C3_3  and  C4_5 
REMARK    3  A    between atoms: C7_8  and  N2_9 
REMARK    4  A    between atoms: N2_9  and  C8_10 
ROOT
HETATM    1  C1  UNL     1      29.825  -1.677  53.396  1.00  0.00     0.014 C 
HETATM    2  C2  UNL     1      29.441  -0.658  53.886  1.00  0.00    -0.076 C 
HETATM    3  C3  UNL     1      28.974   0.581  54.455  1.00  0.00     0.344 C 
ENDROOT
BRANCH   3   4
HETATM    4  N1  UNL     1      29.909   1.659  54.206  1.00  0.00     0.100 N 
HETATM    5  H3  UNL     1      30.308   2.040  55.072  1.00  0.00     0.315 HD
HETATM    6  H4  UNL     1      30.557   1.499  53.431  1.00  0.00     0.315 HD
ENDBRANCH   3   4
BRANCH   3   7
HETATM    7  C4  UNL     1      27.676   0.927  53.774  1.00  0.00     0.051 C 
HETATM    8  C5  UNL     1      27.546   1.791  52.737  1.00  0.00     0.011 C 
HETATM    9  C6  UNL     1      26.782   2.553  51.690  1.00  0.00     0.169 C 
HETATM   10  C7  UNL     1      25.411   2.451  51.547  1.00  0.00     0.111 C 
HETATM   11  N3  UNL     1      24.242   1.786  52.156  1.00  0.00    -0.256 NA
HETATM   12  C14 UNL     1      24.483   0.533  52.545  1.00  0.00     0.230 C 
HETATM   13  N4  UNL     1      24.264  -0.782  53.107  1.00  0.00    -0.239 NA
HETATM   14  C15 UNL     1      24.364  -0.760  54.408  1.00  0.00     0.103 C 
HETATM   15  C16 UNL     1      25.239   0.125  54.874  1.00  0.00     0.122 C 
HETATM   16  N5  UNL     1      26.501   0.256  54.259  1.00  0.00    -0.365 N 
HETATM   17  H14 UNL     1      26.837  -0.713  53.953  1.00  0.00     0.165 HD
BRANCH  10  18
HETATM   18  N2  UNL     1      25.041   3.291  50.478  1.00  0.00    -0.366 N 
HETATM   19  H7  UNL     1      24.071   3.142  50.067  1.00  0.00     0.162 HD
BRANCH  18  20
HETATM   20  C8  UNL     1      25.808   4.332  49.862  1.00  0.00     0.030 A 
HETATM   21  C9  UNL     1      26.944   4.091  49.103  1.00  0.00     0.029 A 
HETATM   22  C10 UNL     1      27.601   5.175  48.558  1.00  0.00     0.004 A 
HETATM   23  C11 UNL     1      27.201   6.490  48.717  1.00  0.00     0.019 A 
HETATM   24  C12 UNL     1      26.067   6.699  49.475  1.00  0.00     0.013 A 
HETATM   25 BR1  UNL     1      25.528   8.516  49.684  1.00  0.00    -0.051 Br
HETATM   26  C13 UNL     1      25.384   5.631  50.037  1.00  0.00     0.048 A 
ENDBRANCH  18  20
ENDBRANCH  10  18
ENDBRANCH   3   7
TORSDOF 4
ENDMDL
MODEL 4
REMARK VINA RESULT:      -7.2      2.542      4.511
REMARK  4 active torsions:
REMARK  status: ('A' for Active; 'I' for Inactive)
REMARK    1  A    between atoms: C3_3  and  N1_4 
REMARK    2  A    between atoms: C3_3  and  C4_5 
REMARK    3  A    between atoms: C7_8  and  N2_9 
REMARK    4  A    between atoms: N2_9  and  C8_10 
ROOT
HETATM    1  C1  UNL     1      20.621   0.575  50.850  1.00  0.00     0.014 C 
HETATM    2  C2  UNL     1      21.277   0.699  51.840  1.00  0.00    -0.076 C 
HETATM    3  C3  UNL     1      22.085   0.834  53.025  1.00  0.00     0.344 C 
ENDROOT
BRANCH   3   4
HETATM    4  N1  UNL     1      22.163  -0.416  53.754  1.00  0.00     0.100 N 
HETATM    5  H3  UNL     1      21.675  -1.182  53.273  1.00  0.00     0.315 HD
HETATM    6  H4  UNL     1      23.082  -0.630  54.149  1.00  0.00     0.315 HD
ENDBRANCH   3   4
BRANCH   3   7
HETATM    7  C4  UNL     1      23.477   1.198  52.581  1.00  0.00     0.051 C 
HETATM    8  C5  UNL     1      23.780   1.906  51.466  1.00  0.00     0.011 C 
HETATM    9  C6  UNL     1      24.709   2.567  50.485  1.00  0.00     0.169 C 
HETATM   10  C7  UNL     1      26.083   2.543  50.629  1.00  0.00     0.111 C 
HETATM   11  N3  UNL     1      27.133   2.002  51.515  1.00  0.00    -0.256 NA
HETATM   12  C14 UNL     1      26.810   2.036  52.809  1.00  0.00     0.230 C 
HETATM   13  N4  UNL     1      26.914   1.863  54.241  1.00  0.00    -0.239 NA
HETATM   14  C15 UNL     1      26.620   0.639  54.588  1.00  0.00     0.103 C 
HETATM   15  C16 UNL     1      25.704   0.058  53.822  1.00  0.00     0.122 C 
HETATM   16  N5  UNL     1      24.552   0.775  53.438  1.00  0.00    -0.365 N 
HETATM   17  H14 UNL     1      24.246   1.396  54.254  1.00  0.00     0.165 HD
BRANCH  10  18
HETATM   18  N2  UNL     1      26.627   3.256  49.542  1.00  0.00    -0.366 N 
HETATM   19  H7  UNL     1      27.069   2.679  48.765  1.00  0.00     0.162 HD
BRANCH  18  20
HETATM   20  C8  UNL     1      26.664   4.674  49.341  1.00  0.00     0.030 A 
HETATM   21  C9  UNL     1      25.739   5.544  49.899  1.00  0.00     0.029 A 
HETATM   22  C10 UNL     1      25.875   6.892  49.634  1.00  0.00     0.004 A 
HETATM   23  C11 UNL     1      26.877   7.434  48.848  1.00  0.00     0.019 A 
HETATM   24  C12 UNL     1      27.782   6.545  48.307  1.00  0.00     0.013 A 
HETATM   25 BR1  UNL     1      29.156   7.307  47.227  1.00  0.00    -0.051 Br
HETATM   26  C13 UNL     1      27.673   5.184  48.553  1.00  0.00     0.048 A 
ENDBRANCH  18  20
ENDBRANCH  10  18
ENDBRANCH   3   7
TORSDOF 4
ENDMDL
MODEL 5
REMARK VINA RESULT:      -7.1      8.102     10.805
REMARK  4 active torsions:
REMARK  status: ('A' for Active; 'I' for Inactive)
REMARK    1  A    between atoms: C3_3  and  N1_4 
REMARK    2  A    between atoms: C3_3  and  C4_5 
REMARK    3  A    between atoms: C7_8  and  N2_9 
REMARK    4  A    between atoms: N2_9  and  C8_10 
ROOT
HETATM    1  C1  UNL     1      27.197   4.316  48.899  1.00  0.00     0.014 C 
HETATM    2  C2  UNL     1      27.348   5.490  48.740  1.00  0.00    -0.076 C 
HETATM    3  C3  UNL     1      27.545   6.907  48.567  1.00  0.00     0.344 C 
ENDROOT
BRANCH   3   4
HETATM    4  N1  UNL     1      26.917   7.659  49.634  1.00  0.00     0.100 N 
HETATM    5  H3  UNL     1      26.435   8.499  49.292  1.00  0.00     0.315 HD
HETATM    6  H4  UNL     1      26.422   7.094  50.328  1.00  0.00     0.315 HD
ENDBRANCH   3   4
BRANCH   3   7
HETATM    7  C4  UNL     1      29.027   7.167  48.628  1.00  0.00     0.051 C 
HETATM    8  C5  UNL     1      29.990   6.217  48.532  1.00  0.00     0.011 C 
HETATM    9  C6  UNL     1      31.407   5.716  48.504  1.00  0.00     0.169 C 
HETATM   10  C7  UNL     1      32.496   6.554  48.647  1.00  0.00     0.111 C 
HETATM   11  N3  UNL     1      32.825   7.974  48.878  1.00  0.00    -0.256 NA
HETATM   12  C14 UNL     1      32.021   8.821  48.233  1.00  0.00     0.230 C 
HETATM   13  N4  UNL     1      31.448  10.066  47.770  1.00  0.00    -0.239 NA
HETATM   14  C15 UNL     1      30.643  10.573  48.662  1.00  0.00     0.103 C 
HETATM   15  C16 UNL     1      29.997   9.670  49.392  1.00  0.00     0.122 C 
HETATM   16  N5  UNL     1      29.429   8.540  48.770  1.00  0.00    -0.365 N 
HETATM   17  H14 UNL     1      29.038   8.832  47.818  1.00  0.00     0.165 HD
BRANCH  10  18
HETATM   18  N2  UNL     1      33.651   5.752  48.567  1.00  0.00    -0.366 N 
HETATM   19  H7  UNL     1      34.252   5.689  49.443  1.00  0.00     0.162 HD
BRANCH  18  20
HETATM   20  C8  UNL     1      34.132   4.998  47.448  1.00  0.00     0.030 A 
HETATM   21  C9  UNL     1      34.725   3.750  47.572  1.00  0.00     0.029 A 
HETATM   22  C10 UNL     1      35.150   3.117  46.422  1.00  0.00     0.004 A 
HETATM   23  C11 UNL     1      35.023   3.646  45.149  1.00  0.00     0.019 A 
HETATM   24  C12 UNL     1      34.429   4.887  45.056  1.00  0.00     0.013 A 
HETATM   25 BR1  UNL     1      34.262   5.602  43.297  1.00  0.00    -0.051 Br
HETATM   26  C13 UNL     1      33.992   5.550  46.193  1.00  0.00     0.048 A 
ENDBRANCH  18  20
ENDBRANCH  10  18
ENDBRANCH   3   7
TORSDOF 4
ENDMDL
MODEL 6
REMARK VINA RESULT:      -7.1      2.106      2.937
REMARK  4 active torsions:
REMARK  status: ('A' for Active; 'I' for Inactive)
REMARK    1  A    between atoms: C3_3  and  N1_4 
REMARK    2  A    between atoms: C3_3  and  C4_5 
REMARK    3  A    between atoms: C7_8  and  N2_9 
REMARK    4  A    between atoms: N2_9  and  C8_10 
ROOT
HETATM    1  C1  UNL     1      27.242  -1.935  52.693  1.00  0.00     0.014 C 
HETATM    2  C2  UNL     1      26.603  -1.149  53.325  1.00  0.00    -0.076 C 
HETATM    3  C3  UNL     1      25.839  -0.182  54.072  1.00  0.00     0.344 C 
ENDROOT
BRANCH   3   4
HETATM    4  N1  UNL     1      26.706   0.736  54.784  1.00  0.00     0.100 N 
HETATM    5  H3  UNL     1      26.367   1.705  54.747  1.00  0.00     0.315 HD
HETATM    6  H4  UNL     1      27.043   0.399  55.689  1.00  0.00     0.315 HD
ENDBRANCH   3   4
BRANCH   3   7
HETATM    7  C4  UNL     1      25.033   0.617  53.083  1.00  0.00     0.051 C 
HETATM    8  C5  UNL     1      25.548   1.466  52.160  1.00  0.00     0.011 C 
HETATM    9  C6  UNL     1      25.473   2.454  51.029  1.00  0.00     0.169 C 
HETATM   10  C7  UNL     1      24.274   2.863  50.477  1.00  0.00     0.111 C 
HETATM   11  N3  UNL     1      22.819   2.676  50.632  1.00  0.00    -0.256 NA
HETATM   12  C14 UNL     1      22.470   1.423  50.928  1.00  0.00     0.230 C 
HETATM   13  N4  UNL     1      21.639   0.281  51.244  1.00  0.00    -0.239 NA
HETATM   14  C15 UNL     1      21.322   0.268  52.510  1.00  0.00     0.103 C 
HETATM   15  C16 UNL     1      22.254   0.769  53.313  1.00  0.00     0.122 C 
HETATM   16  N5  UNL     1      23.608   0.426  53.118  1.00  0.00    -0.365 N 
HETATM   17  H14 UNL     1      23.662  -0.600  52.816  1.00  0.00     0.165 HD
BRANCH  10  18
HETATM   18  N2  UNL     1      24.581   3.778  49.451  1.00  0.00    -0.366 N 
HETATM   19  H7  UNL     1      24.353   3.475  48.457  1.00  0.00     0.162 HD
BRANCH  18  20
HETATM   20  C8  UNL     1      25.168   5.080  49.568  1.00  0.00     0.030 A 
HETATM   21  C9  UNL     1      24.658   6.071  50.394  1.00  0.00     0.029 A 
HETATM   22  C10 UNL     1      25.308   7.287  50.425  1.00  0.00     0.004 A 
HETATM   23  C11 UNL     1      26.438   7.585  49.685  1.00  0.00     0.019 A 
HETATM   24  C12 UNL     1      26.924   6.581  48.873  1.00  0.00     0.013 A 
HETATM   25 BR1  UNL     1      28.481   7.008  47.859  1.00  0.00    -0.051 Br
HETATM   26  C13 UNL     1      26.293   5.347  48.819  1.00  0.00     0.048 A 
ENDBRANCH  18  20
ENDBRANCH  10  18
ENDBRANCH   3   7
TORSDOF 4
ENDMDL
MODEL 7
REMARK VINA RESULT:      -7.0      3.483      7.259
REMARK  4 active torsions:
REMARK  status: ('A' for Active; 'I' for Inactive)
REMARK    1  A    between atoms: C3_3  and  N1_4 
REMARK    2  A    between atoms: C3_3  and  C4_5 
REMARK    3  A    between atoms: C7_8  and  N2_9 
REMARK    4  A    between atoms: N2_9  and  C8_10 
ROOT
HETATM    1  C1  UNL     1      28.866   6.020  48.035  1.00  0.00     0.014 C 
HETATM    2  C2  UNL     1      27.797   6.425  48.381  1.00  0.00    -0.076 C 
HETATM    3  C3  UNL     1      26.497   6.893  48.789  1.00  0.00     0.344 C 
ENDROOT
BRANCH   3   4
HETATM    4  N1  UNL     1      25.694   7.276  47.645  1.00  0.00     0.100 N 
HETATM    5  H3  UNL     1      24.907   7.883  47.904  1.00  0.00     0.315 HD
HETATM    6  H4  UNL     1      26.226   7.540  46.812  1.00  0.00     0.315 HD
ENDBRANCH   3   4
BRANCH   3   7
HETATM    7  C4  UNL     1      25.803   5.748  49.479  1.00  0.00     0.051 C 
HETATM    8  C5  UNL     1      26.369   4.550  49.763  1.00  0.00     0.011 C 
HETATM    9  C6  UNL     1      26.385   3.149  50.309  1.00  0.00     0.169 C 
HETATM   10  C7  UNL     1      25.277   2.565  50.894  1.00  0.00     0.111 C 
HETATM   11  N3  UNL     1      23.862   2.850  51.204  1.00  0.00    -0.256 NA
HETATM   12  C14 UNL     1      23.643   4.105  51.598  1.00  0.00     0.230 C 
HETATM   13  N4  UNL     1      22.937   5.286  52.044  1.00  0.00    -0.239 NA
HETATM   14  C15 UNL     1      22.374   5.903  51.041  1.00  0.00     0.103 C 
HETATM   15  C16 UNL     1      23.043   5.809  49.897  1.00  0.00     0.122 C 
HETATM   16  N5  UNL     1      24.442   5.978  49.885  1.00  0.00    -0.365 N 
HETATM   17  H14 UNL     1      24.703   6.739  50.592  1.00  0.00     0.165 HD
BRANCH  10  18
HETATM   18  N2  UNL     1      25.653   1.267  51.290  1.00  0.00    -0.366 N 
HETATM   19  H7  UNL     1      25.472   0.484  50.592  1.00  0.00     0.162 HD
BRANCH  18  20
HETATM   20  C8  UNL     1      26.254   0.853  52.523  1.00  0.00     0.030 A 
HETATM   21  C9  UNL     1      25.647   1.025  53.758  1.00  0.00     0.029 A 
HETATM   22  C10 UNL     1      26.322   0.586  54.879  1.00  0.00     0.004 A 
HETATM   23  C11 UNL     1      27.568  -0.015  54.852  1.00  0.00     0.019 A 
HETATM   24  C12 UNL     1      28.147  -0.174  53.610  1.00  0.00     0.013 A 
HETATM   25 BR1  UNL     1      29.864  -1.004  53.589  1.00  0.00    -0.051 Br
HETATM   26  C13 UNL     1      27.495   0.257  52.464  1.00  0.00     0.048 A 
ENDBRANCH  18  20
ENDBRANCH  10  18
ENDBRANCH   3   7
TORSDOF 4
ENDMDL
MODEL 8
REMARK VINA RESULT:      -6.8      3.803      5.147
REMARK  4 active torsions:
REMARK  status: ('A' for Active; 'I' for Inactive)
REMARK    1  A    between atoms: C3_3  and  N1_4 
REMARK    2  A    between atoms: C3_3  and  C4_5 
REMARK    3  A    between atoms: C7_8  and  N2_9 
REMARK    4  A    between atoms: N2_9  and  C8_10 
ROOT
HETATM    1  C1  UNL     1      28.641  -0.714  53.291  1.00  0.00     0.014 C 
HETATM    2  C2  UNL     1      28.040   0.266  53.614  1.00  0.00    -0.076 C 
HETATM    3  C3  UNL     1      27.316   1.457  53.981  1.00  0.00     0.344 C 
ENDROOT
BRANCH   3   4
HETATM    4  N1  UNL     1      28.147   2.637  53.857  1.00  0.00     0.100 N 
HETATM    5  H3  UNL     1      28.818   2.728  54.630  1.00  0.00     0.315 HD
HETATM    6  H4  UNL     1      28.502   2.819  52.915  1.00  0.00     0.315 HD
ENDBRANCH   3   4
BRANCH   3   7
HETATM    7  C4  UNL     1      26.166   1.598  53.019  1.00  0.00     0.051 C 
HETATM    8  C5  UNL     1      24.970   0.970  53.135  1.00  0.00     0.011 C 
HETATM    9  C6  UNL     1      23.571   0.621  52.709  1.00  0.00     0.169 C 
HETATM   10  C7  UNL     1      22.994   1.128  51.561  1.00  0.00     0.111 C 
HETATM   11  N3  UNL     1      23.305   2.001  50.412  1.00  0.00    -0.256 NA
HETATM   12  C14 UNL     1      24.047   3.061  50.732  1.00  0.00     0.230 C 
HETATM   13  N4  UNL     1      24.802   4.287  50.586  1.00  0.00    -0.239 NA
HETATM   14  C15 UNL     1      26.010   4.045  50.154  1.00  0.00     0.103 C 
HETATM   15  C16 UNL     1      26.518   2.890  50.569  1.00  0.00     0.122 C 
HETATM   16  N5  UNL     1      26.364   2.497  51.914  1.00  0.00    -0.365 N 
HETATM   17  H14 UNL     1      26.440   3.364  52.536  1.00  0.00     0.165 HD
BRANCH  10  18
HETATM   18  N2  UNL     1      21.692   0.595  51.480  1.00  0.00    -0.366 N 
HETATM   19  H7  UNL     1      21.612  -0.463  51.403  1.00  0.00     0.162 HD
BRANCH  18  20
HETATM   20  C8  UNL     1      20.444   1.298  51.490  1.00  0.00     0.030 A 
HETATM   21  C9  UNL     1      20.322   2.625  51.877  1.00  0.00     0.029 A 
HETATM   22  C10 UNL     1      19.067   3.197  51.845  1.00  0.00     0.004 A 
HETATM   23  C11 UNL     1      17.918   2.534  51.450  1.00  0.00     0.019 A 
HETATM   24  C12 UNL     1      18.069   1.217  51.070  1.00  0.00     0.013 A 
HETATM   25 BR1  UNL     1      16.477   0.317  50.530  1.00  0.00    -0.051 Br
HETATM   26  C13 UNL     1      19.317   0.612  51.091  1.00  0.00     0.048 A 
ENDBRANCH  18  20
ENDBRANCH  10  18
ENDBRANCH   3   7
TORSDOF 4
ENDMDL
MODEL 9
REMARK VINA RESULT:      -6.8      2.535      3.769
REMARK  4 active torsions:
REMARK  status: ('A' for Active; 'I' for Inactive)
REMARK    1  A    between atoms: C3_3  and  N1_4 
REMARK    2  A    between atoms: C3_3  and  C4_5 
REMARK    3  A    between atoms: C7_8  and  N2_9 
REMARK    4  A    between atoms: N2_9  and  C8_10 
ROOT
HETATM    1  C1  UNL     1      26.364  -0.261  53.613  1.00  0.00     0.014 C 
HETATM    2  C2  UNL     1      25.182  -0.342  53.461  1.00  0.00    -0.076 C 
HETATM    3  C3  UNL     1      23.753  -0.420  53.294  1.00  0.00     0.344 C 
ENDROOT
BRANCH   3   4
HETATM    4  N1  UNL     1      23.107  -0.882  54.505  1.00  0.00     0.100 N 
HETATM    5  H3  UNL     1      22.713  -0.112  55.059  1.00  0.00     0.315 HD
HETATM    6  H4  UNL     1      22.524  -1.715  54.394  1.00  0.00     0.315 HD
ENDBRANCH   3   4
BRANCH   3   7
HETATM    7  C4  UNL     1      23.257   0.973  53.007  1.00  0.00     0.051 C 
HETATM    8  C5  UNL     1      24.033   2.083  52.959  1.00  0.00     0.011 C 
HETATM    9  C6  UNL     1      24.294   3.553  52.781  1.00  0.00     0.169 C 
HETATM   10  C7  UNL     1      23.287   4.460  52.510  1.00  0.00     0.111 C 
HETATM   11  N3  UNL     1      21.824   4.526  52.327  1.00  0.00    -0.256 NA
HETATM   12  C14 UNL     1      21.320   3.484  51.665  1.00  0.00     0.230 C 
HETATM   13  N4  UNL     1      20.353   2.612  51.035  1.00  0.00    -0.239 NA
HETATM   14  C15 UNL     1      19.757   1.857  51.918  1.00  0.00     0.103 C 
HETATM   15  C16 UNL     1      20.519   1.518  52.952  1.00  0.00     0.122 C 
HETATM   16  N5  UNL     1      21.851   1.107  52.738  1.00  0.00    -0.365 N 
HETATM   17  H14 UNL     1      21.892   0.531  51.836  1.00  0.00     0.165 HD
BRANCH  10  18
HETATM   18  N2  UNL     1      23.889   5.729  52.405  1.00  0.00    -0.366 N 
HETATM   19  H7  UNL     1      24.251   6.163  53.307  1.00  0.00     0.162 HD
BRANCH  18  20
HETATM   20  C8  UNL     1      24.083   6.525  51.229  1.00  0.00     0.030 A 
HETATM   21  C9  UNL     1      23.190   7.506  50.821  1.00  0.00     0.029 A 
HETATM   22  C10 UNL     1      23.482   8.210  49.671  1.00  0.00     0.004 A 
HETATM   23  C11 UNL     1      24.609   8.002  48.895  1.00  0.00     0.019 A 
HETATM   24  C12 UNL     1      25.479   7.022  49.326  1.00  0.00     0.013 A 
HETATM   25 BR1  UNL     1      27.027   6.747  48.246  1.00  0.00    -0.051 Br
HETATM   26  C13 UNL     1      25.214   6.296  50.477  1.00  0.00     0.048 A 
ENDBRANCH  18  20
ENDBRANCH  10  18
ENDBRANCH   3   7
TORSDOF 4
ENDMDL
