MODEL 1
REMARK VINA RESULT:      -9.3      0.000      0.000
REMARK  6 active torsions:
REMARK  status: ('A' for Active; 'I' for Inactive)
REMARK    1  A    between atoms: N1_5  and  C5_6 
REMARK    2  A    between atoms: C10_13  and  N4_14 
REMARK       I    between atoms: N4_14  and  C11_15 
REMARK    3  A    between atoms: C11_15  and  C12_17 
REMARK    4  A    between atoms: C12_17  and  O2_18 
REMARK    5  A    between atoms: O2_18  and  C13_19 
REMARK    6  A    between atoms: C13_19  and  N5_20 
ROOT
HETATM    1  C5  UNL     1      24.628  -0.301  54.087  1.00  0.00     0.140 A 
HETATM    2  N2  UNL     1      24.683  -1.136  55.166  1.00  0.00    -0.224 NA
HETATM    3  C6  UNL     1      23.603  -1.676  55.743  1.00  0.00     0.236 A 
HETATM    4  N3  UNL     1      22.384  -1.409  55.267  1.00  0.00    -0.241 NA
HETATM    5  C7  UNL     1      22.202  -0.608  54.219  1.00  0.00     0.072 A 
HETATM    6  C8  UNL     1      20.982  -0.276  53.679  1.00  0.00     0.035 A 
HETATM    7  C9  UNL     1      20.830   0.576  52.590  1.00  0.00     0.032 A 
HETATM    8  C10 UNL     1      22.007   1.103  52.043  1.00  0.00     0.035 A 
HETATM    9  C19 UNL     1      23.208   0.758  52.598  1.00  0.00     0.047 A 
HETATM   10  C20 UNL     1      23.343  -0.085  53.671  1.00  0.00     0.041 A 
ENDROOT
BRANCH   8  11
HETATM   11  N4  UNL     1      21.815   1.970  50.933  1.00  0.00    -0.325 N 
HETATM   12  C11 UNL     1      21.628   3.383  51.097  1.00  0.00     0.245 C 
HETATM   13  O1  UNL     1      21.674   3.623  52.328  1.00  0.00    -0.271 OA
HETATM   14  H10 UNL     1      21.847   1.345  50.076  1.00  0.00     0.169 HD
BRANCH  12  15
HETATM   15  C12 UNL     1      21.449   4.058  49.779  1.00  0.00     0.273 C 
BRANCH  15  16
HETATM   16  O2  UNL     1      22.672   4.330  49.222  1.00  0.00    -0.353 OA
BRANCH  16  17
HETATM   17  C13 UNL     1      23.358   5.368  49.797  1.00  0.00     0.440 C 
BRANCH  17  18
HETATM   18  N5  UNL     1      24.720   5.054  50.183  1.00  0.00     0.111 N 
HETATM   19  C14 UNL     1      25.594   6.199  49.988  1.00  0.00     0.275 C 
HETATM   20  C15 UNL     1      26.321   6.066  48.679  1.00  0.00     0.030 C 
HETATM   21  C16 UNL     1      27.319   4.926  48.696  1.00  0.00     0.003 C 
HETATM   22  C17 UNL     1      26.735   3.828  49.527  1.00  0.00     0.030 C 
HETATM   23  C18 UNL     1      25.225   3.902  49.458  1.00  0.00     0.275 C 
ENDBRANCH  17  18
ENDBRANCH  16  17
ENDBRANCH  15  16
ENDBRANCH  12  15
ENDBRANCH   8  11
BRANCH   1  24
HETATM   24  N1  UNL     1      25.884   0.126  53.573  1.00  0.00    -0.357 N 
HETATM   25  C4  UNL     1      26.445  -0.696  52.492  1.00  0.00     0.152 C 
HETATM   26  C3  UNL     1      27.800  -1.182  52.765  1.00  0.00    -0.005 C 
HETATM   27  C2  UNL     1      28.537  -0.544  53.652  1.00  0.00    -0.084 C 
HETATM   28  C1  UNL     1      29.912  -1.126  53.857  1.00  0.00     0.043 C 
HETATM   29  C23 UNL     1      28.078   0.652  54.406  1.00  0.00     0.058 C 
HETATM   30  C21 UNL     1      26.832   1.177  53.734  1.00  0.00     0.086 C 
HETATM   31  C22 UNL     1      27.331   1.738  52.378  1.00  0.00     0.032 C 
ENDBRANCH   1  24
TORSDOF 6
ENDMDL
MODEL 2
REMARK VINA RESULT:      -8.5      1.206      1.585
REMARK  6 active torsions:
REMARK  status: ('A' for Active; 'I' for Inactive)
REMARK    1  A    between atoms: N1_5  and  C5_6 
REMARK    2  A    between atoms: C10_13  and  N4_14 
REMARK       I    between atoms: N4_14  and  C11_15 
REMARK    3  A    between atoms: C11_15  and  C12_17 
REMARK    4  A    between atoms: C12_17  and  O2_18 
REMARK    5  A    between atoms: O2_18  and  C13_19 
REMARK    6  A    between atoms: C13_19  and  N5_20 
ROOT
HETATM    1  C5  UNL     1      24.200  -0.249  53.771  1.00  0.00     0.140 A 
HETATM    2  N2  UNL     1      24.460  -0.929  54.926  1.00  0.00    -0.224 NA
HETATM    3  C6  UNL     1      23.521  -1.541  55.656  1.00  0.00     0.236 A 
HETATM    4  N3  UNL     1      22.243  -1.508  55.268  1.00  0.00    -0.241 NA
HETATM    5  C7  UNL     1      21.864  -0.875  54.159  1.00  0.00     0.072 A 
HETATM    6  C8  UNL     1      20.572  -0.787  53.701  1.00  0.00     0.035 A 
HETATM    7  C9  UNL     1      20.212  -0.105  52.542  1.00  0.00     0.032 A 
HETATM    8  C10 UNL     1      21.252   0.512  51.835  1.00  0.00     0.035 A 
HETATM    9  C19 UNL     1      22.530   0.410  52.312  1.00  0.00     0.047 A 
HETATM   10  C20 UNL     1      22.870  -0.269  53.454  1.00  0.00     0.041 A 
ENDROOT
BRANCH   8  11
HETATM   11  N4  UNL     1      20.849   1.201  50.659  1.00  0.00    -0.325 N 
HETATM   12  C11 UNL     1      20.439   2.575  50.686  1.00  0.00     0.245 C 
HETATM   13  O1  UNL     1      20.522   2.962  51.877  1.00  0.00    -0.271 OA
HETATM   14  H10 UNL     1      20.931   0.492  49.873  1.00  0.00     0.169 HD
BRANCH  12  15
HETATM   15  C12 UNL     1      20.068   3.053  49.323  1.00  0.00     0.273 C 
BRANCH  15  16
HETATM   16  O2  UNL     1      21.198   3.230  48.565  1.00  0.00    -0.353 OA
BRANCH  16  17
HETATM   17  C13 UNL     1      21.801   4.454  48.692  1.00  0.00     0.440 C 
BRANCH  17  18
HETATM   18  N5  UNL     1      23.246   4.433  48.568  1.00  0.00     0.111 N 
HETATM   19  C14 UNL     1      23.858   3.784  49.715  1.00  0.00     0.275 C 
HETATM   20  C15 UNL     1      24.322   4.821  50.699  1.00  0.00     0.030 C 
HETATM   21  C16 UNL     1      25.481   5.636  50.162  1.00  0.00     0.003 C 
HETATM   22  C17 UNL     1      25.267   5.808  48.692  1.00  0.00     0.030 C 
HETATM   23  C18 UNL     1      23.783   5.771  48.397  1.00  0.00     0.275 C 
ENDBRANCH  17  18
ENDBRANCH  16  17
ENDBRANCH  15  16
ENDBRANCH  12  15
ENDBRANCH   8  11
BRANCH   1  24
HETATM   24  N1  UNL     1      25.335   0.284  53.100  1.00  0.00    -0.357 N 
HETATM   25  C4  UNL     1      26.190  -0.695  52.414  1.00  0.00     0.152 C 
HETATM   26  C3  UNL     1      27.596  -0.636  52.822  1.00  0.00    -0.005 C 
HETATM   27  C2  UNL     1      28.053   0.472  53.369  1.00  0.00    -0.084 C 
HETATM   28  C1  UNL     1      29.510   0.426  53.751  1.00  0.00     0.043 C 
HETATM   29  C23 UNL     1      27.224   1.684  53.605  1.00  0.00     0.058 C 
HETATM   30  C21 UNL     1      25.948   1.537  52.813  1.00  0.00     0.086 C 
HETATM   31  C22 UNL     1      26.395   1.653  51.333  1.00  0.00     0.032 C 
ENDBRANCH   1  24
TORSDOF 6
ENDMDL
MODEL 3
REMARK VINA RESULT:      -8.3      1.784      2.606
REMARK  6 active torsions:
REMARK  status: ('A' for Active; 'I' for Inactive)
REMARK    1  A    between atoms: N1_5  and  C5_6 
REMARK    2  A    between atoms: C10_13  and  N4_14 
REMARK       I    between atoms: N4_14  and  C11_15 
REMARK    3  A    between atoms: C11_15  and  C12_17 
REMARK    4  A    between atoms: C12_17  and  O2_18 
REMARK    5  A    between atoms: O2_18  and  C13_19 
REMARK    6  A    between atoms: C13_19  and  N5_20 
ROOT
HETATM    1  C5  UNL     1      23.672  -0.159  53.689  1.00  0.00     0.140 A 
HETATM    2  N2  UNL     1      23.101  -1.159  54.421  1.00  0.00    -0.224 NA
HETATM    3  C6  UNL     1      21.790  -1.237  54.679  1.00  0.00     0.236 A 
HETATM    4  N3  UNL     1      20.959  -0.301  54.212  1.00  0.00    -0.241 NA
HETATM    5  C7  UNL     1      21.397   0.725  53.486  1.00  0.00     0.072 A 
HETATM    6  C8  UNL     1      20.608   1.731  52.981  1.00  0.00     0.035 A 
HETATM    7  C9  UNL     1      21.104   2.796  52.236  1.00  0.00     0.032 A 
HETATM    8  C10 UNL     1      22.486   2.808  52.011  1.00  0.00     0.035 A 
HETATM    9  C19 UNL     1      23.250   1.795  52.524  1.00  0.00     0.047 A 
HETATM   10  C20 UNL     1      22.746   0.750  53.255  1.00  0.00     0.041 A 
ENDROOT
BRANCH   8  11
HETATM   11  N4  UNL     1      22.959   3.910  51.249  1.00  0.00    -0.325 N 
HETATM   12  C11 UNL     1      23.506   5.083  51.868  1.00  0.00     0.245 C 
HETATM   13  O1  UNL     1      23.464   4.901  53.109  1.00  0.00    -0.271 OA
HETATM   14  H10 UNL     1      22.806   3.640  50.234  1.00  0.00     0.169 HD
BRANCH  12  15
HETATM   15  C12 UNL     1      23.925   6.085  50.845  1.00  0.00     0.273 C 
BRANCH  15  16
HETATM   16  O2  UNL     1      24.838   5.525  49.988  1.00  0.00    -0.353 OA
BRANCH  16  17
HETATM   17  C13 UNL     1      25.348   6.375  49.042  1.00  0.00     0.440 C 
BRANCH  17  18
HETATM   18  N5  UNL     1      26.692   6.849  49.315  1.00  0.00     0.111 N 
HETATM   19  C14 UNL     1      26.679   8.238  49.740  1.00  0.00     0.275 C 
HETATM   20  C15 UNL     1      26.994   9.130  48.571  1.00  0.00     0.030 C 
HETATM   21  C16 UNL     1      28.428   8.972  48.106  1.00  0.00     0.003 C 
HETATM   22  C17 UNL     1      28.802   7.534  48.280  1.00  0.00     0.030 C 
HETATM   23  C18 UNL     1      27.558   6.679  48.162  1.00  0.00     0.275 C 
ENDBRANCH  17  18
ENDBRANCH  16  17
ENDBRANCH  15  16
ENDBRANCH  12  15
ENDBRANCH   8  11
BRANCH   1  24
HETATM   24  N1  UNL     1      25.072  -0.278  53.467  1.00  0.00    -0.357 N 
HETATM   25  C4  UNL     1      25.915  -0.239  54.670  1.00  0.00     0.152 C 
HETATM   26  C3  UNL     1      26.962   0.784  54.622  1.00  0.00    -0.005 C 
HETATM   27  C2  UNL     1      27.345   1.248  53.450  1.00  0.00    -0.084 C 
HETATM   28  C1  UNL     1      28.426   2.297  53.514  1.00  0.00     0.043 C 
HETATM   29  C23 UNL     1      26.777   0.793  52.153  1.00  0.00     0.058 C 
HETATM   30  C21 UNL     1      25.998  -0.475  52.403  1.00  0.00     0.086 C 
HETATM   31  C22 UNL     1      27.079  -1.531  52.747  1.00  0.00     0.032 C 
ENDBRANCH   1  24
TORSDOF 6
ENDMDL
MODEL 4
REMARK VINA RESULT:      -8.3      2.245      5.689
REMARK  6 active torsions:
REMARK  status: ('A' for Active; 'I' for Inactive)
REMARK    1  A    between atoms: N1_5  and  C5_6 
REMARK    2  A    between atoms: C10_13  and  N4_14 
REMARK       I    between atoms: N4_14  and  C11_15 
REMARK    3  A    between atoms: C11_15  and  C12_17 
REMARK    4  A    between atoms: C12_17  and  O2_18 
REMARK    5  A    between atoms: O2_18  and  C13_19 
REMARK    6  A    between atoms: C13_19  and  N5_20 
ROOT
HETATM    1  C5  UNL     1      26.155   2.201  52.116  1.00  0.00     0.140 A 
HETATM    2  N2  UNL     1      27.421   2.544  52.496  1.00  0.00    -0.224 NA
HETATM    3  C6  UNL     1      28.075   1.966  53.510  1.00  0.00     0.236 A 
HETATM    4  N3  UNL     1      27.490   0.995  54.218  1.00  0.00    -0.241 NA
HETATM    5  C7  UNL     1      26.257   0.574  53.944  1.00  0.00     0.072 A 
HETATM    6  C8  UNL     1      25.586  -0.408  54.631  1.00  0.00     0.035 A 
HETATM    7  C9  UNL     1      24.290  -0.813  54.323  1.00  0.00     0.032 A 
HETATM    8  C10 UNL     1      23.672  -0.159  53.250  1.00  0.00     0.035 A 
HETATM    9  C19 UNL     1      24.361   0.816  52.582  1.00  0.00     0.047 A 
HETATM   10  C20 UNL     1      25.639   1.203  52.895  1.00  0.00     0.041 A 
ENDROOT
BRANCH   8  11
HETATM   11  N4  UNL     1      22.350  -0.595  52.964  1.00  0.00    -0.325 N 
HETATM   12  C11 UNL     1      21.239  -0.253  53.805  1.00  0.00     0.245 C 
HETATM   13  O1  UNL     1      21.688   0.449  54.744  1.00  0.00    -0.271 OA
HETATM   14  H10 UNL     1      22.426  -1.166  52.073  1.00  0.00     0.169 HD
BRANCH  12  15
HETATM   15  C12 UNL     1      19.970  -0.836  53.282  1.00  0.00     0.273 C 
BRANCH  15  16
HETATM   16  O2  UNL     1      19.189   0.152  52.739  1.00  0.00    -0.353 OA
BRANCH  16  17
HETATM   17  C13 UNL     1      19.146   0.177  51.370  1.00  0.00     0.440 C 
BRANCH  17  18
HETATM   18  N5  UNL     1      19.314   1.492  50.782  1.00  0.00     0.111 N 
HETATM   19  C14 UNL     1      20.720   1.795  50.576  1.00  0.00     0.275 C 
HETATM   20  C15 UNL     1      21.231   2.638  51.711  1.00  0.00     0.030 C 
HETATM   21  C16 UNL     1      20.621   4.026  51.708  1.00  0.00     0.003 C 
HETATM   22  C17 UNL     1      19.208   3.895  51.236  1.00  0.00     0.030 C 
HETATM   23  C18 UNL     1      18.688   2.520  51.595  1.00  0.00     0.275 C 
ENDBRANCH  17  18
ENDBRANCH  16  17
ENDBRANCH  15  16
ENDBRANCH  12  15
ENDBRANCH   8  11
BRANCH   1  24
HETATM   24  N1  UNL     1      25.647   2.883  50.975  1.00  0.00    -0.357 N 
HETATM   25  C4  UNL     1      26.471   2.800  49.762  1.00  0.00     0.152 C 
HETATM   26  C3  UNL     1      26.823   4.106  49.199  1.00  0.00    -0.005 C 
HETATM   27  C2  UNL     1      26.079   5.151  49.503  1.00  0.00    -0.084 C 
HETATM   28  C1  UNL     1      26.528   6.444  48.873  1.00  0.00     0.043 C 
HETATM   29  C23 UNL     1      24.890   5.091  50.395  1.00  0.00     0.058 C 
HETATM   30  C21 UNL     1      24.511   3.640  50.570  1.00  0.00     0.086 C 
HETATM   31  C22 UNL     1      23.978   3.210  49.179  1.00  0.00     0.032 C 
ENDBRANCH   1  24
TORSDOF 6
ENDMDL
MODEL 5
REMARK VINA RESULT:      -7.9      2.608      4.828
REMARK  6 active torsions:
REMARK  status: ('A' for Active; 'I' for Inactive)
REMARK    1  A    between atoms: N1_5  and  C5_6 
REMARK    2  A    between atoms: C10_13  and  N4_14 
REMARK       I    between atoms: N4_14  and  C11_15 
REMARK    3  A    between atoms: C11_15  and  C12_17 
REMARK    4  A    between atoms: C12_17  and  O2_18 
REMARK    5  A    between atoms: O2_18  and  C13_19 
REMARK    6  A    between atoms: C13_19  and  N5_20 
ROOT
HETATM    1  C5  UNL     1      24.421  -0.205  53.985  1.00  0.00     0.140 A 
HETATM    2  N2  UNL     1      24.620  -1.098  54.999  1.00  0.00    -0.224 NA
HETATM    3  C6  UNL     1      23.629  -1.649  55.709  1.00  0.00     0.236 A 
HETATM    4  N3  UNL     1      22.358  -1.334  55.442  1.00  0.00    -0.241 NA
HETATM    5  C7  UNL     1      22.037  -0.474  54.477  1.00  0.00     0.072 A 
HETATM    6  C8  UNL     1      20.758  -0.092  54.152  1.00  0.00     0.035 A 
HETATM    7  C9  UNL     1      20.462   0.821  53.144  1.00  0.00     0.032 A 
HETATM    8  C10 UNL     1      21.554   1.356  52.448  1.00  0.00     0.035 A 
HETATM    9  C19 UNL     1      22.817   0.959  52.791  1.00  0.00     0.047 A 
HETATM   10  C20 UNL     1      23.094   0.057  53.786  1.00  0.00     0.041 A 
ENDROOT
BRANCH   8  11
HETATM   11  N4  UNL     1      21.215   2.286  51.428  1.00  0.00    -0.325 N 
HETATM   12  C11 UNL     1      20.944   1.870  50.082  1.00  0.00     0.245 C 
HETATM   13  O1  UNL     1      21.068   0.622  50.047  1.00  0.00    -0.271 OA
HETATM   14  H10 UNL     1      21.224   3.237  51.897  1.00  0.00     0.169 HD
BRANCH  12  15
HETATM   15  C12 UNL     1      20.617   3.038  49.214  1.00  0.00     0.273 C 
BRANCH  15  16
HETATM   16  O2  UNL     1      19.798   3.908  49.889  1.00  0.00    -0.353 OA
BRANCH  16  17
HETATM   17  C13 UNL     1      18.462   3.605  49.843  1.00  0.00     0.440 C 
BRANCH  17  18
HETATM   18  N5  UNL     1      17.823   3.487  51.140  1.00  0.00     0.111 N 
HETATM   19  C14 UNL     1      17.465   2.107  51.420  1.00  0.00     0.275 C 
HETATM   20  C15 UNL     1      16.015   1.881  51.092  1.00  0.00     0.030 C 
HETATM   21  C16 UNL     1      15.095   2.628  52.037  1.00  0.00     0.003 C 
HETATM   22  C17 UNL     1      15.759   3.923  52.382  1.00  0.00     0.030 C 
HETATM   23  C18 UNL     1      16.654   4.343  51.236  1.00  0.00     0.275 C 
ENDBRANCH  17  18
ENDBRANCH  16  17
ENDBRANCH  15  16
ENDBRANCH  12  15
ENDBRANCH   8  11
BRANCH   1  24
HETATM   24  N1  UNL     1      25.593   0.227  53.304  1.00  0.00    -0.357 N 
HETATM   25  C4  UNL     1      26.255  -0.784  52.468  1.00  0.00     0.152 C 
HETATM   26  C3  UNL     1      27.670  -0.980  52.791  1.00  0.00    -0.005 C 
HETATM   27  C2  UNL     1      28.318  -0.021  53.423  1.00  0.00    -0.084 C 
HETATM   28  C1  UNL     1      29.766  -0.325  53.707  1.00  0.00     0.043 C 
HETATM   29  C23 UNL     1      27.696   1.266  53.835  1.00  0.00     0.058 C 
HETATM   30  C21 UNL     1      26.378   1.400  53.113  1.00  0.00     0.086 C 
HETATM   31  C22 UNL     1      26.770   1.615  51.629  1.00  0.00     0.032 C 
ENDBRANCH   1  24
TORSDOF 6
ENDMDL
MODEL 6
REMARK VINA RESULT:      -7.8      2.642      3.847
REMARK  6 active torsions:
REMARK  status: ('A' for Active; 'I' for Inactive)
REMARK    1  A    between atoms: N1_5  and  C5_6 
REMARK    2  A    between atoms: C10_13  and  N4_14 
REMARK       I    between atoms: N4_14  and  C11_15 
REMARK    3  A    between atoms: C11_15  and  C12_17 
REMARK    4  A    between atoms: C12_17  and  O2_18 
REMARK    5  A    between atoms: O2_18  and  C13_19 
REMARK    6  A    between atoms: C13_19  and  N5_20 
ROOT
HETATM    1  C5  UNL     1      23.965   1.468  52.951  1.00  0.00     0.140 A 
HETATM    2  N2  UNL     1      23.233   0.339  53.181  1.00  0.00    -0.224 NA
HETATM    3  C6  UNL     1      21.900   0.282  53.075  1.00  0.00     0.236 A 
HETATM    4  N3  UNL     1      21.209   1.372  52.728  1.00  0.00    -0.241 NA
HETATM    5  C7  UNL     1      21.811   2.533  52.479  1.00  0.00     0.072 A 
HETATM    6  C8  UNL     1      21.169   3.697  52.129  1.00  0.00     0.035 A 
HETATM    7  C9  UNL     1      21.832   4.897  51.889  1.00  0.00     0.032 A 
HETATM    8  C10 UNL     1      23.226   4.876  52.022  1.00  0.00     0.035 A 
HETATM    9  C19 UNL     1      23.841   3.705  52.371  1.00  0.00     0.047 A 
HETATM   10  C20 UNL     1      23.175   2.529  52.603  1.00  0.00     0.041 A 
ENDROOT
BRANCH   8  11
HETATM   11  N4  UNL     1      23.870   6.118  51.771  1.00  0.00    -0.325 N 
HETATM   12  C11 UNL     1      24.204   6.545  50.443  1.00  0.00     0.245 C 
HETATM   13  O1  UNL     1      23.823   5.645  49.657  1.00  0.00    -0.271 OA
HETATM   14  H10 UNL     1      24.007   6.563  52.724  1.00  0.00     0.169 HD
BRANCH  12  15
HETATM   15  C12 UNL     1      24.870   7.879  50.460  1.00  0.00     0.273 C 
BRANCH  15  16
HETATM   16  O2  UNL     1      26.233   7.723  50.416  1.00  0.00    -0.353 OA
BRANCH  16  17
HETATM   17  C13 UNL     1      26.756   7.501  49.169  1.00  0.00     0.440 C 
BRANCH  17  18
HETATM   18  N5  UNL     1      28.024   8.160  48.918  1.00  0.00     0.111 N 
HETATM   19  C14 UNL     1      28.154   9.363  49.722  1.00  0.00     0.275 C 
HETATM   20  C15 UNL     1      27.782  10.566  48.901  1.00  0.00     0.030 C 
HETATM   21  C16 UNL     1      28.785  10.833  47.796  1.00  0.00     0.003 C 
HETATM   22  C17 UNL     1      29.271   9.508  47.301  1.00  0.00     0.030 C 
HETATM   23  C18 UNL     1      28.189   8.471  47.509  1.00  0.00     0.275 C 
ENDBRANCH  17  18
ENDBRANCH  16  17
ENDBRANCH  15  16
ENDBRANCH  12  15
ENDBRANCH   8  11
BRANCH   1  24
HETATM   24  N1  UNL     1      25.376   1.320  53.052  1.00  0.00    -0.357 N 
HETATM   25  C4  UNL     1      26.071   0.956  51.810  1.00  0.00     0.152 C 
HETATM   26  C3  UNL     1      26.896  -0.249  51.928  1.00  0.00    -0.005 C 
HETATM   27  C2  UNL     1      27.296  -0.631  53.125  1.00  0.00    -0.084 C 
HETATM   28  C1  UNL     1      28.137  -1.881  53.134  1.00  0.00     0.043 C 
HETATM   29  C23 UNL     1      26.960   0.092  54.381  1.00  0.00     0.058 C 
HETATM   30  C21 UNL     1      26.425   1.452  54.008  1.00  0.00     0.086 C 
HETATM   31  C22 UNL     1      27.652   2.209  53.439  1.00  0.00     0.032 C 
ENDBRANCH   1  24
TORSDOF 6
ENDMDL
MODEL 7
REMARK VINA RESULT:      -7.7      2.588      4.286
REMARK  6 active torsions:
REMARK  status: ('A' for Active; 'I' for Inactive)
REMARK    1  A    between atoms: N1_5  and  C5_6 
REMARK    2  A    between atoms: C10_13  and  N4_14 
REMARK       I    between atoms: N4_14  and  C11_15 
REMARK    3  A    between atoms: C11_15  and  C12_17 
REMARK    4  A    between atoms: C12_17  and  O2_18 
REMARK    5  A    between atoms: O2_18  and  C13_19 
REMARK    6  A    between atoms: C13_19  and  N5_20 
ROOT
HETATM    1  C5  UNL     1      23.508   1.660  52.692  1.00  0.00     0.140 A 
HETATM    2  N2  UNL     1      22.497   0.824  53.070  1.00  0.00    -0.224 NA
HETATM    3  C6  UNL     1      21.204   1.165  53.053  1.00  0.00     0.236 A 
HETATM    4  N3  UNL     1      20.838   2.386  52.650  1.00  0.00    -0.241 NA
HETATM    5  C7  UNL     1      21.733   3.291  52.258  1.00  0.00     0.072 A 
HETATM    6  C8  UNL     1      21.437   4.567  51.842  1.00  0.00     0.035 A 
HETATM    7  C9  UNL     1      22.401   5.490  51.451  1.00  0.00     0.032 A 
HETATM    8  C10 UNL     1      23.733   5.058  51.499  1.00  0.00     0.035 A 
HETATM    9  C19 UNL     1      24.001   3.784  51.917  1.00  0.00     0.047 A 
HETATM   10  C20 UNL     1      23.040   2.883  52.297  1.00  0.00     0.041 A 
ENDROOT
BRANCH   8  11
HETATM   11  N4  UNL     1      24.691   6.027  51.095  1.00  0.00    -0.325 N 
HETATM   12  C11 UNL     1      25.211   6.070  49.759  1.00  0.00     0.245 C 
HETATM   13  O1  UNL     1      24.663   5.140  49.118  1.00  0.00    -0.271 OA
HETATM   14  H10 UNL     1      24.876   6.619  51.956  1.00  0.00     0.169 HD
BRANCH  12  15
HETATM   15  C12 UNL     1      26.197   7.177  49.601  1.00  0.00     0.273 C 
BRANCH  15  16
HETATM   16  O2  UNL     1      26.938   6.986  48.462  1.00  0.00    -0.353 OA
BRANCH  16  17
HETATM   17  C13 UNL     1      27.945   7.894  48.261  1.00  0.00     0.440 C 
BRANCH  17  18
HETATM   18  N5  UNL     1      29.277   7.395  48.548  1.00  0.00     0.111 N 
HETATM   19  C14 UNL     1      30.291   8.242  47.945  1.00  0.00     0.275 C 
HETATM   20  C15 UNL     1      30.744   7.645  46.641  1.00  0.00     0.030 C 
HETATM   21  C16 UNL     1      31.512   6.354  46.843  1.00  0.00     0.003 C 
HETATM   22  C17 UNL     1      30.897   5.642  48.006  1.00  0.00     0.030 C 
HETATM   23  C18 UNL     1      29.435   6.021  48.105  1.00  0.00     0.275 C 
ENDBRANCH  17  18
ENDBRANCH  16  17
ENDBRANCH  15  16
ENDBRANCH  12  15
ENDBRANCH   8  11
BRANCH   1  24
HETATM   24  N1  UNL     1      24.815   1.100  52.718  1.00  0.00    -0.357 N 
HETATM   25  C4  UNL     1      25.360   0.813  54.051  1.00  0.00     0.152 C 
HETATM   26  C3  UNL     1      26.660   1.440  54.304  1.00  0.00    -0.005 C 
HETATM   27  C2  UNL     1      27.403   1.800  53.276  1.00  0.00    -0.084 C 
HETATM   28  C1  UNL     1      28.718   2.436  53.646  1.00  0.00     0.043 C 
HETATM   29  C23 UNL     1      27.002   1.609  51.857  1.00  0.00     0.058 C 
HETATM   30  C21 UNL     1      25.833   0.655  51.826  1.00  0.00     0.086 C 
HETATM   31  C22 UNL     1      26.435  -0.709  52.248  1.00  0.00     0.032 C 
ENDBRANCH   1  24
TORSDOF 6
ENDMDL
MODEL 8
REMARK VINA RESULT:      -7.6      1.964      5.043
REMARK  6 active torsions:
REMARK  status: ('A' for Active; 'I' for Inactive)
REMARK    1  A    between atoms: N1_5  and  C5_6 
REMARK    2  A    between atoms: C10_13  and  N4_14 
REMARK       I    between atoms: N4_14  and  C11_15 
REMARK    3  A    between atoms: C11_15  and  C12_17 
REMARK    4  A    between atoms: C12_17  and  O2_18 
REMARK    5  A    between atoms: O2_18  and  C13_19 
REMARK    6  A    between atoms: C13_19  and  N5_20 
ROOT
HETATM    1  C5  UNL     1      24.545  -0.081  53.061  1.00  0.00     0.140 A 
HETATM    2  N2  UNL     1      25.481  -0.965  53.516  1.00  0.00    -0.224 NA
HETATM    3  C6  UNL     1      26.799  -0.799  53.359  1.00  0.00     0.236 A 
HETATM    4  N3  UNL     1      27.268   0.280  52.725  1.00  0.00    -0.241 NA
HETATM    5  C7  UNL     1      26.453   1.213  52.235  1.00  0.00     0.072 A 
HETATM    6  C8  UNL     1      26.857   2.341  51.563  1.00  0.00     0.035 A 
HETATM    7  C9  UNL     1      25.975   3.289  51.053  1.00  0.00     0.032 A 
HETATM    8  C10 UNL     1      24.611   3.043  51.256  1.00  0.00     0.035 A 
HETATM    9  C19 UNL     1      24.235   1.912  51.928  1.00  0.00     0.047 A 
HETATM   10  C20 UNL     1      25.116   0.987  52.427  1.00  0.00     0.041 A 
ENDROOT
BRANCH   8  11
HETATM   11  N4  UNL     1      23.739   4.029  50.721  1.00  0.00    -0.325 N 
HETATM   12  C11 UNL     1      23.146   5.044  51.543  1.00  0.00     0.245 C 
HETATM   13  O1  UNL     1      23.552   4.856  52.715  1.00  0.00    -0.271 OA
HETATM   14  H10 UNL     1      23.671   3.815  49.684  1.00  0.00     0.169 HD
BRANCH  12  15
HETATM   15  C12 UNL     1      22.275   5.948  50.737  1.00  0.00     0.273 C 
BRANCH  15  16
HETATM   16  O2  UNL     1      22.464   5.710  49.399  1.00  0.00    -0.353 OA
BRANCH  16  17
HETATM   17  C13 UNL     1      21.318   5.599  48.658  1.00  0.00     0.440 C 
BRANCH  17  18
HETATM   18  N5  UNL     1      21.174   4.341  47.949  1.00  0.00     0.111 N 
HETATM   19  C14 UNL     1      20.238   3.464  48.631  1.00  0.00     0.275 C 
HETATM   20  C15 UNL     1      20.990   2.479  49.482  1.00  0.00     0.030 C 
HETATM   21  C16 UNL     1      21.776   1.489  48.646  1.00  0.00     0.003 C 
HETATM   22  C17 UNL     1      22.275   2.216  47.438  1.00  0.00     0.030 C 
HETATM   23  C18 UNL     1      22.455   3.680  47.777  1.00  0.00     0.275 C 
ENDBRANCH  17  18
ENDBRANCH  16  17
ENDBRANCH  15  16
ENDBRANCH  12  15
ENDBRANCH   8  11
BRANCH   1  24
HETATM   24  N1  UNL     1      23.194  -0.396  53.376  1.00  0.00    -0.357 N 
HETATM   25  C4  UNL     1      22.429  -1.063  52.315  1.00  0.00     0.152 C 
HETATM   26  C3  UNL     1      21.184  -0.374  51.964  1.00  0.00    -0.005 C 
HETATM   27  C2  UNL     1      20.647   0.452  52.839  1.00  0.00    -0.084 C 
HETATM   28  C1  UNL     1      19.370   1.107  52.379  1.00  0.00     0.043 C 
HETATM   29  C23 UNL     1      21.229   0.735  54.178  1.00  0.00     0.058 C 
HETATM   30  C21 UNL     1      22.277  -0.313  54.463  1.00  0.00     0.086 C 
HETATM   31  C22 UNL     1      21.470  -1.622  54.658  1.00  0.00     0.032 C 
ENDBRANCH   1  24
TORSDOF 6
ENDMDL
MODEL 9
REMARK VINA RESULT:      -7.5      2.074      5.046
REMARK  6 active torsions:
REMARK  status: ('A' for Active; 'I' for Inactive)
REMARK    1  A    between atoms: N1_5  and  C5_6 
REMARK    2  A    between atoms: C10_13  and  N4_14 
REMARK       I    between atoms: N4_14  and  C11_15 
REMARK    3  A    between atoms: C11_15  and  C12_17 
REMARK    4  A    between atoms: C12_17  and  O2_18 
REMARK    5  A    between atoms: O2_18  and  C13_19 
REMARK    6  A    between atoms: C13_19  and  N5_20 
ROOT
HETATM    1  C5  UNL     1      23.573   0.415  52.727  1.00  0.00     0.140 A 
HETATM    2  N2  UNL     1      24.087  -0.556  53.538  1.00  0.00    -0.224 NA
HETATM    3  C6  UNL     1      25.396  -0.726  53.756  1.00  0.00     0.236 A 
HETATM    4  N3  UNL     1      26.283   0.079  53.166  1.00  0.00    -0.241 NA
HETATM    5  C7  UNL     1      25.904   1.063  52.353  1.00  0.00     0.072 A 
HETATM    6  C8  UNL     1      26.756   1.923  51.701  1.00  0.00     0.035 A 
HETATM    7  C9  UNL     1      26.322   2.932  50.847  1.00  0.00     0.032 A 
HETATM    8  C10 UNL     1      24.938   3.045  50.668  1.00  0.00     0.035 A 
HETATM    9  C19 UNL     1      24.112   2.177  51.328  1.00  0.00     0.047 A 
HETATM   10  C20 UNL     1      24.553   1.187  52.169  1.00  0.00     0.041 A 
ENDROOT
BRANCH   8  11
HETATM   11  N4  UNL     1      24.531   4.085  49.789  1.00  0.00    -0.325 N 
HETATM   12  C11 UNL     1      24.034   5.340  50.276  1.00  0.00     0.245 C 
HETATM   13  O1  UNL     1      24.053   5.284  51.529  1.00  0.00    -0.271 OA
HETATM   14  H10 UNL     1      24.684   3.705  48.810  1.00  0.00     0.169 HD
BRANCH  12  15
HETATM   15  C12 UNL     1      23.678   6.250  49.150  1.00  0.00     0.273 C 
BRANCH  15  16
HETATM   16  O2  UNL     1      24.603   7.259  49.052  1.00  0.00    -0.353 OA
BRANCH  16  17
HETATM   17  C13 UNL     1      25.595   7.054  48.129  1.00  0.00     0.440 C 
BRANCH  17  18
HETATM   18  N5  UNL     1      26.924   6.903  48.691  1.00  0.00     0.111 N 
HETATM   19  C14 UNL     1      27.785   8.004  48.295  1.00  0.00     0.275 C 
HETATM   20  C15 UNL     1      28.631   7.591  47.122  1.00  0.00     0.030 C 
HETATM   21  C16 UNL     1      29.649   6.534  47.500  1.00  0.00     0.003 C 
HETATM   22  C17 UNL     1      29.017   5.645  48.524  1.00  0.00     0.030 C 
HETATM   23  C18 UNL     1      27.518   5.633  48.314  1.00  0.00     0.275 C 
ENDBRANCH  17  18
ENDBRANCH  16  17
ENDBRANCH  15  16
ENDBRANCH  12  15
ENDBRANCH   8  11
BRANCH   1  24
HETATM   24  N1  UNL     1      22.153   0.481  52.667  1.00  0.00    -0.357 N 
HETATM   25  C4  UNL     1      21.534  -0.140  51.488  1.00  0.00     0.152 C 
HETATM   26  C3  UNL     1      20.654   0.762  50.742  1.00  0.00    -0.005 C 
HETATM   27  C2  UNL     1      20.153   1.815  51.356  1.00  0.00    -0.084 C 
HETATM   28  C1  UNL     1      19.263   2.676  50.498  1.00  0.00     0.043 C 
HETATM   29  C23 UNL     1      20.428   2.154  52.778  1.00  0.00     0.058 C 
HETATM   30  C21 UNL     1      21.045   0.943  53.435  1.00  0.00     0.086 C 
HETATM   31  C22 UNL     1      19.894  -0.092  53.496  1.00  0.00     0.032 C 
ENDBRANCH   1  24
TORSDOF 6
ENDMDL
