MODEL 1
REMARK VINA RESULT:      -7.5      0.000      0.000
REMARK  8 active torsions:
REMARK  status: ('A' for Active; 'I' for Inactive)
REMARK    1  A    between atoms: O1_2  and  C2_3 
REMARK    2  A    between atoms: C2_3  and  C4_5 
REMARK    3  A    between atoms: C5_6  and  O2_7 
REMARK    4  A    between atoms: C7_9  and  C8_10 
REMARK    5  A    between atoms: C9_11  and  N1_12 
REMARK    6  A    between atoms: C10_13  and  N2_14 
REMARK    7  A    between atoms: C11_15  and  N3_16 
REMARK    8  A    between atoms: N3_16  and  C12_17 
ROOT
HETATM    1  N1  UNL     1      23.856   0.211  53.383  1.00  0.00    -0.254 NA
HETATM    2  C10 UNL     1      22.735  -0.246  52.981  1.00  0.00     0.233 C 
ENDROOT
BRANCH   1   3
HETATM    3  C9  UNL     1      24.695   1.102  52.674  1.00  0.00     0.118 C 
HETATM    4  C8  UNL     1      25.780   0.706  52.027  1.00  0.00     0.020 C 
BRANCH   4   5
HETATM    5  C7  UNL     1      26.168  -0.700  52.017  1.00  0.00     0.016 C 
HETATM    6  C6  UNL     1      27.224  -1.093  52.720  1.00  0.00     0.009 A 
HETATM    7  C4  UNL     1      28.375  -0.968  53.604  1.00  0.00     0.017 A 
HETATM    8  C5  UNL     1      28.090  -2.184  53.133  1.00  0.00     0.086 A 
BRANCH   7   9
HETATM    9  C2  UNL     1      29.201  -0.016  54.422  1.00  0.00     0.153 C 
HETATM   10  C3  UNL     1      30.398   0.390  53.559  1.00  0.00     0.045 C 
BRANCH   9  11
HETATM   11  O1  UNL     1      28.488   1.134  54.699  1.00  0.00    -0.386 OA
HETATM   12  C1  UNL     1      28.717   2.173  53.801  1.00  0.00     0.202 C 
ENDBRANCH   9  11
ENDBRANCH   7   9
BRANCH   8  13
HETATM   13  O2  UNL     1      28.399  -3.547  53.074  1.00  0.00    -0.359 OA
HETATM   14  H8  UNL     1      28.357  -4.071  52.205  1.00  0.00     0.217 HD
ENDBRANCH   8  13
ENDBRANCH   4   5
ENDBRANCH   1   3
BRANCH   2  15
HETATM   15  N2  UNL     1      21.703  -1.113  53.435  1.00  0.00    -0.237 NA
HETATM   16  C11 UNL     1      20.569  -0.576  53.746  1.00  0.00     0.208 C 
BRANCH  16  17
HETATM   17  N3  UNL     1      19.671  -1.613  54.177  1.00  0.00    -0.351 N 
HETATM   18  H14 UNL     1      19.810  -2.295  54.980  1.00  0.00     0.166 HD
BRANCH  17  19
HETATM   19  C12 UNL     1      18.399  -1.917  53.582  1.00  0.00     0.034 A 
HETATM   20  C13 UNL     1      17.876  -0.905  52.775  1.00  0.00     0.032 A 
HETATM   21  C14 UNL     1      16.659  -1.066  52.142  1.00  0.00     0.046 A 
HETATM   22  C15 UNL     1      15.936  -2.253  52.305  1.00  0.00     0.138 A 
HETATM   23  F1  UNL     1      14.743  -2.409  51.683  1.00  0.00    -0.204 F 
HETATM   24  C16 UNL     1      16.486  -3.245  53.117  1.00  0.00     0.074 A 
HETATM   25 CL1  UNL     1      15.621  -4.759  53.359  1.00  0.00    -0.081 Cl
HETATM   26  C17 UNL     1      17.698  -3.099  53.756  1.00  0.00     0.056 A 
ENDBRANCH  17  19
ENDBRANCH  16  17
ENDBRANCH   2  15
TORSDOF 8
ENDMDL
MODEL 2
REMARK VINA RESULT:      -7.2      7.661     10.245
REMARK  8 active torsions:
REMARK  status: ('A' for Active; 'I' for Inactive)
REMARK    1  A    between atoms: O1_2  and  C2_3 
REMARK    2  A    between atoms: C2_3  and  C4_5 
REMARK    3  A    between atoms: C5_6  and  O2_7 
REMARK    4  A    between atoms: C7_9  and  C8_10 
REMARK    5  A    between atoms: C9_11  and  N1_12 
REMARK    6  A    between atoms: C10_13  and  N2_14 
REMARK    7  A    between atoms: C11_15  and  N3_16 
REMARK    8  A    between atoms: N3_16  and  C12_17 
ROOT
HETATM    1  N1  UNL     1      28.392   4.983  48.609  1.00  0.00    -0.254 NA
HETATM    2  C10 UNL     1      27.289   4.455  48.970  1.00  0.00     0.233 C 
ENDROOT
BRANCH   1   3
HETATM    3  C9  UNL     1      28.543   6.200  47.904  1.00  0.00     0.118 C 
HETATM    4  C8  UNL     1      29.663   6.904  47.917  1.00  0.00     0.020 C 
BRANCH   4   5
HETATM    5  C7  UNL     1      30.820   6.446  48.678  1.00  0.00     0.016 C 
HETATM    6  C6  UNL     1      31.883   5.975  48.034  1.00  0.00     0.009 A 
HETATM    7  C4  UNL     1      32.705   5.588  46.896  1.00  0.00     0.017 A 
HETATM    8  C5  UNL     1      33.220   5.416  48.115  1.00  0.00     0.086 A 
BRANCH   7   9
HETATM    9  C2  UNL     1      32.771   5.507  45.396  1.00  0.00     0.153 C 
HETATM   10  C3  UNL     1      33.749   6.590  44.935  1.00  0.00     0.045 C 
BRANCH   9  11
HETATM   11  O1  UNL     1      33.290   4.290  44.997  1.00  0.00    -0.386 OA
HETATM   12  C1  UNL     1      34.681   4.251  44.964  1.00  0.00     0.202 C 
ENDBRANCH   9  11
ENDBRANCH   7   9
BRANCH   8  13
HETATM   13  O2  UNL     1      34.290   4.994  48.913  1.00  0.00    -0.359 OA
HETATM   14  H8  UNL     1      35.247   5.279  48.724  1.00  0.00     0.217 HD
ENDBRANCH   8  13
ENDBRANCH   4   5
ENDBRANCH   1   3
BRANCH   2  15
HETATM   15  N2  UNL     1      26.825   3.300  49.657  1.00  0.00    -0.237 NA
HETATM   16  C11 UNL     1      26.078   3.486  50.696  1.00  0.00     0.208 C 
BRANCH  16  17
HETATM   17  N3  UNL     1      25.719   2.205  51.240  1.00  0.00    -0.351 N 
HETATM   18  H14 UNL     1      24.779   1.713  51.169  1.00  0.00     0.166 HD
BRANCH  17  19
HETATM   19  C12 UNL     1      26.587   1.345  51.995  1.00  0.00     0.034 A 
HETATM   20  C13 UNL     1      27.505   2.012  52.808  1.00  0.00     0.032 A 
HETATM   21  C14 UNL     1      28.400   1.306  53.589  1.00  0.00     0.046 A 
HETATM   22  C15 UNL     1      28.392  -0.093  53.571  1.00  0.00     0.138 A 
HETATM   23  F1  UNL     1      29.270  -0.784  54.337  1.00  0.00    -0.204 F 
HETATM   24  C16 UNL     1      27.462  -0.730  52.749  1.00  0.00     0.074 A 
HETATM   25 CL1  UNL     1      27.407  -2.489  52.686  1.00  0.00    -0.081 Cl
HETATM   26  C17 UNL     1      26.565  -0.040  51.965  1.00  0.00     0.056 A 
ENDBRANCH  17  19
ENDBRANCH  16  17
ENDBRANCH   2  15
TORSDOF 8
ENDMDL
MODEL 3
REMARK VINA RESULT:      -7.2      7.303     10.457
REMARK  8 active torsions:
REMARK  status: ('A' for Active; 'I' for Inactive)
REMARK    1  A    between atoms: O1_2  and  C2_3 
REMARK    2  A    between atoms: C2_3  and  C4_5 
REMARK    3  A    between atoms: C5_6  and  O2_7 
REMARK    4  A    between atoms: C7_9  and  C8_10 
REMARK    5  A    between atoms: C9_11  and  N1_12 
REMARK    6  A    between atoms: C10_13  and  N2_14 
REMARK    7  A    between atoms: C11_15  and  N3_16 
REMARK    8  A    between atoms: N3_16  and  C12_17 
ROOT
HETATM    1  N1  UNL     1      25.003   1.981  51.678  1.00  0.00    -0.254 NA
HETATM    2  C10 UNL     1      25.456   3.062  51.176  1.00  0.00     0.233 C 
ENDROOT
BRANCH   1   3
HETATM    3  C9  UNL     1      24.312   1.857  52.905  1.00  0.00     0.118 C 
HETATM    4  C8  UNL     1      24.155   0.701  53.529  1.00  0.00     0.020 C 
BRANCH   4   5
HETATM    5  C7  UNL     1      24.701  -0.528  52.963  1.00  0.00     0.016 C 
HETATM    6  C6  UNL     1      25.983  -0.823  53.153  1.00  0.00     0.009 A 
HETATM    7  C4  UNL     1      27.346  -0.654  53.638  1.00  0.00     0.017 A 
HETATM    8  C5  UNL     1      27.079  -1.747  52.921  1.00  0.00     0.086 A 
BRANCH   7   9
HETATM    9  C2  UNL     1      28.272   0.234  54.421  1.00  0.00     0.153 C 
HETATM   10  C3  UNL     1      29.596   0.281  53.655  1.00  0.00     0.045 C 
BRANCH   9  11
HETATM   11  O1  UNL     1      27.783   1.525  54.472  1.00  0.00    -0.386 OA
HETATM   12  C1  UNL     1      28.417   2.406  53.602  1.00  0.00     0.202 C 
ENDBRANCH   9  11
ENDBRANCH   7   9
BRANCH   8  13
HETATM   13  O2  UNL     1      27.530  -2.942  52.348  1.00  0.00    -0.359 OA
HETATM   14  H8  UNL     1      27.013  -3.811  52.438  1.00  0.00     0.217 HD
ENDBRANCH   8  13
ENDBRANCH   4   5
ENDBRANCH   1   3
BRANCH   2  15
HETATM   15  N2  UNL     1      26.159   3.497  50.019  1.00  0.00    -0.237 NA
HETATM   16  C11 UNL     1      26.252   4.772  49.825  1.00  0.00     0.208 C 
BRANCH  16  17
HETATM   17  N3  UNL     1      26.993   5.000  48.614  1.00  0.00    -0.351 N 
HETATM   18  H14 UNL     1      26.880   4.501  47.683  1.00  0.00     0.166 HD
BRANCH  17  19
HETATM   19  C12 UNL     1      28.044   5.965  48.446  1.00  0.00     0.034 A 
HETATM   20  C13 UNL     1      29.311   5.418  48.238  1.00  0.00     0.032 A 
HETATM   21  C14 UNL     1      30.412   6.233  48.061  1.00  0.00     0.046 A 
HETATM   22  C15 UNL     1      30.265   7.624  48.089  1.00  0.00     0.138 A 
HETATM   23  F1  UNL     1      31.345   8.422  47.915  1.00  0.00    -0.204 F 
HETATM   24  C16 UNL     1      28.986   8.141  48.299  1.00  0.00     0.074 A 
HETATM   25 CL1  UNL     1      28.742   9.883  48.344  1.00  0.00    -0.081 Cl
HETATM   26  C17 UNL     1      27.879   7.340  48.478  1.00  0.00     0.056 A 
ENDBRANCH  17  19
ENDBRANCH  16  17
ENDBRANCH   2  15
TORSDOF 8
ENDMDL
MODEL 4
REMARK VINA RESULT:      -7.0      8.363     12.486
REMARK  8 active torsions:
REMARK  status: ('A' for Active; 'I' for Inactive)
REMARK    1  A    between atoms: O1_2  and  C2_3 
REMARK    2  A    between atoms: C2_3  and  C4_5 
REMARK    3  A    between atoms: C5_6  and  O2_7 
REMARK    4  A    between atoms: C7_9  and  C8_10 
REMARK    5  A    between atoms: C9_11  and  N1_12 
REMARK    6  A    between atoms: C10_13  and  N2_14 
REMARK    7  A    between atoms: C11_15  and  N3_16 
REMARK    8  A    between atoms: N3_16  and  C12_17 
ROOT
HETATM    1  N1  UNL     1      27.266   4.238  49.205  1.00  0.00    -0.254 NA
HETATM    2  C10 UNL     1      27.799   5.233  48.609  1.00  0.00     0.233 C 
ENDROOT
BRANCH   1   3
HETATM    3  C9  UNL     1      26.030   4.242  49.892  1.00  0.00     0.118 C 
HETATM    4  C8  UNL     1      25.677   3.291  50.742  1.00  0.00     0.020 C 
BRANCH   4   5
HETATM    5  C7  UNL     1      26.569   2.170  51.014  1.00  0.00     0.016 C 
HETATM    6  C6  UNL     1      26.169   1.195  51.823  1.00  0.00     0.009 A 
HETATM    7  C4  UNL     1      25.276   0.468  52.716  1.00  0.00     0.017 A 
HETATM    8  C5  UNL     1      26.473  -0.068  52.471  1.00  0.00     0.086 A 
BRANCH   7   9
HETATM    9  C2  UNL     1      23.925   0.469  53.374  1.00  0.00     0.153 C 
HETATM   10  C3  UNL     1      22.886   0.575  52.254  1.00  0.00     0.045 C 
BRANCH   9  11
HETATM   11  O1  UNL     1      23.701  -0.727  54.028  1.00  0.00    -0.386 OA
HETATM   12  C1  UNL     1      22.387  -0.903  54.453  1.00  0.00     0.202 C 
ENDBRANCH   9  11
ENDBRANCH   7   9
BRANCH   8  13
HETATM   13  O2  UNL     1      27.384  -1.110  52.683  1.00  0.00    -0.359 OA
HETATM   14  H8  UNL     1      27.771  -1.307  53.601  1.00  0.00     0.217 HD
ENDBRANCH   8  13
ENDBRANCH   4   5
ENDBRANCH   1   3
BRANCH   2  15
HETATM   15  N2  UNL     1      28.971   5.536  47.863  1.00  0.00    -0.237 NA
HETATM   16  C11 UNL     1      30.002   5.953  48.522  1.00  0.00     0.208 C 
BRANCH  16  17
HETATM   17  N3  UNL     1      31.071   6.201  47.594  1.00  0.00    -0.351 N 
HETATM   18  H14 UNL     1      31.301   7.115  47.102  1.00  0.00     0.166 HD
BRANCH  17  19
HETATM   19  C12 UNL     1      32.040   5.235  47.156  1.00  0.00     0.034 A 
HETATM   20  C13 UNL     1      33.206   5.781  46.617  1.00  0.00     0.032 A 
HETATM   21  C14 UNL     1      34.220   4.964  46.157  1.00  0.00     0.046 A 
HETATM   22  C15 UNL     1      34.088   3.573  46.230  1.00  0.00     0.138 A 
HETATM   23  F1  UNL     1      35.084   2.774  45.779  1.00  0.00    -0.204 F 
HETATM   24  C16 UNL     1      32.911   3.058  46.775  1.00  0.00     0.074 A 
HETATM   25 CL1  UNL     1      32.689   1.316  46.892  1.00  0.00    -0.081 Cl
HETATM   26  C17 UNL     1      31.890   3.860  47.237  1.00  0.00     0.056 A 
ENDBRANCH  17  19
ENDBRANCH  16  17
ENDBRANCH   2  15
TORSDOF 8
ENDMDL
MODEL 5
REMARK VINA RESULT:      -6.9      7.511     10.830
REMARK  8 active torsions:
REMARK  status: ('A' for Active; 'I' for Inactive)
REMARK    1  A    between atoms: O1_2  and  C2_3 
REMARK    2  A    between atoms: C2_3  and  C4_5 
REMARK    3  A    between atoms: C5_6  and  O2_7 
REMARK    4  A    between atoms: C7_9  and  C8_10 
REMARK    5  A    between atoms: C9_11  and  N1_12 
REMARK    6  A    between atoms: C10_13  and  N2_14 
REMARK    7  A    between atoms: C11_15  and  N3_16 
REMARK    8  A    between atoms: N3_16  and  C12_17 
ROOT
HETATM    1  N1  UNL     1      23.063   3.722  50.810  1.00  0.00    -0.254 NA
HETATM    2  C10 UNL     1      24.049   3.680  50.002  1.00  0.00     0.233 C 
ENDROOT
BRANCH   1   3
HETATM    3  C9  UNL     1      22.580   2.648  51.594  1.00  0.00     0.118 C 
HETATM    4  C8  UNL     1      23.185   2.233  52.695  1.00  0.00     0.020 C 
BRANCH   4   5
HETATM    5  C7  UNL     1      24.406   2.881  53.161  1.00  0.00     0.016 C 
HETATM    6  C6  UNL     1      25.497   2.151  53.367  1.00  0.00     0.009 A 
HETATM    7  C4  UNL     1      26.326   0.955  53.420  1.00  0.00     0.017 A 
HETATM    8  C5  UNL     1      26.891   2.111  53.773  1.00  0.00     0.086 A 
BRANCH   7   9
HETATM    9  C2  UNL     1      26.360  -0.531  53.190  1.00  0.00     0.153 C 
HETATM   10  C3  UNL     1      27.824  -0.911  52.958  1.00  0.00     0.045 C 
BRANCH   9  11
HETATM   11  O1  UNL     1      25.935  -1.208  54.317  1.00  0.00    -0.386 OA
HETATM   12  C1  UNL     1      24.625  -0.918  54.691  1.00  0.00     0.202 C 
ENDBRANCH   9  11
ENDBRANCH   7   9
BRANCH   8  13
HETATM   13  O2  UNL     1      28.023   2.803  54.220  1.00  0.00    -0.359 OA
HETATM   14  H8  UNL     1      28.421   3.576  53.697  1.00  0.00     0.217 HD
ENDBRANCH   8  13
ENDBRANCH   4   5
ENDBRANCH   1   3
BRANCH   2  15
HETATM   15  N2  UNL     1      24.747   4.543  49.114  1.00  0.00    -0.237 NA
HETATM   16  C11 UNL     1      25.883   5.014  49.514  1.00  0.00     0.208 C 
BRANCH  16  17
HETATM   17  N3  UNL     1      26.422   5.855  48.481  1.00  0.00    -0.351 N 
HETATM   18  H14 UNL     1      25.934   6.186  47.596  1.00  0.00     0.166 HD
BRANCH  17  19
HETATM   19  C12 UNL     1      27.747   6.410  48.461  1.00  0.00     0.034 A 
HETATM   20  C13 UNL     1      28.763   5.483  48.227  1.00  0.00     0.032 A 
HETATM   21  C14 UNL     1      30.086   5.881  48.182  1.00  0.00     0.046 A 
HETATM   22  C15 UNL     1      30.419   7.227  48.370  1.00  0.00     0.138 A 
HETATM   23  F1  UNL     1      31.715   7.615  48.326  1.00  0.00    -0.204 F 
HETATM   24  C16 UNL     1      29.380   8.129  48.602  1.00  0.00     0.074 A 
HETATM   25 CL1  UNL     1      29.740   9.835  48.846  1.00  0.00    -0.081 Cl
HETATM   26  C17 UNL     1      28.057   7.747  48.650  1.00  0.00     0.056 A 
ENDBRANCH  17  19
ENDBRANCH  16  17
ENDBRANCH   2  15
TORSDOF 8
ENDMDL
MODEL 6
REMARK VINA RESULT:      -6.9      4.719      5.808
REMARK  8 active torsions:
REMARK  status: ('A' for Active; 'I' for Inactive)
REMARK    1  A    between atoms: O1_2  and  C2_3 
REMARK    2  A    between atoms: C2_3  and  C4_5 
REMARK    3  A    between atoms: C5_6  and  O2_7 
REMARK    4  A    between atoms: C7_9  and  C8_10 
REMARK    5  A    between atoms: C9_11  and  N1_12 
REMARK    6  A    between atoms: C10_13  and  N2_14 
REMARK    7  A    between atoms: C11_15  and  N3_16 
REMARK    8  A    between atoms: N3_16  and  C12_17 
ROOT
HETATM    1  N1  UNL     1      20.143   2.742  51.482  1.00  0.00    -0.254 NA
HETATM    2  C10 UNL     1      18.895   2.972  51.350  1.00  0.00     0.233 C 
ENDROOT
BRANCH   1   3
HETATM    3  C9  UNL     1      20.963   2.044  50.567  1.00  0.00     0.118 C 
HETATM    4  C8  UNL     1      21.429   0.827  50.802  1.00  0.00     0.020 C 
BRANCH   4   5
HETATM    5  C7  UNL     1      21.108   0.137  52.047  1.00  0.00     0.016 C 
HETATM    6  C6  UNL     1      22.087  -0.209  52.875  1.00  0.00     0.009 A 
HETATM    7  C4  UNL     1      23.452  -0.340  53.365  1.00  0.00     0.017 A 
HETATM    8  C5  UNL     1      22.475  -0.836  54.126  1.00  0.00     0.086 A 
BRANCH   7   9
HETATM    9  C2  UNL     1      24.898  -0.048  53.074  1.00  0.00     0.153 C 
HETATM   10  C3  UNL     1      25.106   1.449  53.314  1.00  0.00     0.045 C 
BRANCH   9  11
HETATM   11  O1  UNL     1      25.719  -0.722  53.957  1.00  0.00    -0.386 OA
HETATM   12  C1  UNL     1      26.381   0.105  54.860  1.00  0.00     0.202 C 
ENDBRANCH   9  11
ENDBRANCH   7   9
BRANCH   8  13
HETATM   13  O2  UNL     1      22.089  -1.495  55.299  1.00  0.00    -0.359 OA
HETATM   14  H8  UNL     1      22.064  -1.022  56.198  1.00  0.00     0.217 HD
ENDBRANCH   8  13
ENDBRANCH   4   5
ENDBRANCH   1   3
BRANCH   2  15
HETATM   15  N2  UNL     1      17.840   3.613  52.056  1.00  0.00    -0.237 NA
HETATM   16  C11 UNL     1      16.629   3.299  51.728  1.00  0.00     0.208 C 
BRANCH  16  17
HETATM   17  N3  UNL     1      15.721   4.050  52.551  1.00  0.00    -0.351 N 
HETATM   18  H14 UNL     1      15.837   5.048  52.899  1.00  0.00     0.166 HD
BRANCH  17  19
HETATM   19  C12 UNL     1      14.465   3.573  53.061  1.00  0.00     0.034 A 
HETATM   20  C13 UNL     1      13.689   4.542  53.698  1.00  0.00     0.032 A 
HETATM   21  C14 UNL     1      12.457   4.219  54.235  1.00  0.00     0.046 A 
HETATM   22  C15 UNL     1      11.975   2.909  54.143  1.00  0.00     0.138 A 
HETATM   23  F1  UNL     1      10.768   2.594  54.670  1.00  0.00    -0.204 F 
HETATM   24  C16 UNL     1      12.775   1.963  53.501  1.00  0.00     0.074 A 
HETATM   25 CL1  UNL     1      12.220   0.299  53.356  1.00  0.00    -0.081 Cl
HETATM   26  C17 UNL     1      14.005   2.270  52.961  1.00  0.00     0.056 A 
ENDBRANCH  17  19
ENDBRANCH  16  17
ENDBRANCH   2  15
TORSDOF 8
ENDMDL
MODEL 7
REMARK VINA RESULT:      -6.9      6.963      8.897
REMARK  8 active torsions:
REMARK  status: ('A' for Active; 'I' for Inactive)
REMARK    1  A    between atoms: O1_2  and  C2_3 
REMARK    2  A    between atoms: C2_3  and  C4_5 
REMARK    3  A    between atoms: C5_6  and  O2_7 
REMARK    4  A    between atoms: C7_9  and  C8_10 
REMARK    5  A    between atoms: C9_11  and  N1_12 
REMARK    6  A    between atoms: C10_13  and  N2_14 
REMARK    7  A    between atoms: C11_15  and  N3_16 
REMARK    8  A    between atoms: N3_16  and  C12_17 
ROOT
HETATM    1  N1  UNL     1      26.339   5.616  48.910  1.00  0.00    -0.254 NA
HETATM    2  C10 UNL     1      25.471   5.488  49.835  1.00  0.00     0.233 C 
ENDROOT
BRANCH   1   3
HETATM    3  C9  UNL     1      26.937   6.827  48.489  1.00  0.00     0.118 C 
HETATM    4  C8  UNL     1      28.216   6.922  48.162  1.00  0.00     0.020 C 
BRANCH   4   5
HETATM    5  C7  UNL     1      29.087   5.753  48.223  1.00  0.00     0.016 C 
HETATM    6  C6  UNL     1      30.382   5.913  48.469  1.00  0.00     0.009 A 
HETATM    7  C4  UNL     1      31.621   6.626  48.749  1.00  0.00     0.017 A 
HETATM    8  C5  UNL     1      31.684   5.297  48.651  1.00  0.00     0.086 A 
BRANCH   7   9
HETATM    9  C2  UNL     1      32.240   7.978  48.972  1.00  0.00     0.153 C 
HETATM   10  C3  UNL     1      33.712   7.864  48.567  1.00  0.00     0.045 C 
BRANCH   9  11
HETATM   11  O1  UNL     1      31.660   8.921  48.146  1.00  0.00    -0.386 OA
HETATM   12  C1  UNL     1      32.176   8.936  46.853  1.00  0.00     0.202 C 
ENDBRANCH   9  11
ENDBRANCH   7   9
BRANCH   8  13
HETATM   13  O2  UNL     1      32.455   4.129  48.694  1.00  0.00    -0.359 OA
HETATM   14  H8  UNL     1      33.110   3.944  49.447  1.00  0.00     0.217 HD
ENDBRANCH   8  13
ENDBRANCH   4   5
ENDBRANCH   1   3
BRANCH   2  15
HETATM   15  N2  UNL     1      24.715   4.461  50.464  1.00  0.00    -0.237 NA
HETATM   16  C11 UNL     1      24.675   3.309  49.878  1.00  0.00     0.208 C 
BRANCH  16  17
HETATM   17  N3  UNL     1      23.869   2.419  50.668  1.00  0.00    -0.351 N 
HETATM   18  H14 UNL     1      22.812   2.304  50.637  1.00  0.00     0.166 HD
BRANCH  17  19
HETATM   19  C12 UNL     1      24.360   1.507  51.663  1.00  0.00     0.034 A 
HETATM   20  C13 UNL     1      23.373   0.938  52.470  1.00  0.00     0.032 A 
HETATM   21  C14 UNL     1      23.707   0.043  53.468  1.00  0.00     0.046 A 
HETATM   22  C15 UNL     1      25.046  -0.304  53.679  1.00  0.00     0.138 A 
HETATM   23  F1  UNL     1      25.371  -1.182  54.657  1.00  0.00    -0.204 F 
HETATM   24  C16 UNL     1      26.008   0.281  52.855  1.00  0.00     0.074 A 
HETATM   25 CL1  UNL     1      27.709  -0.118  53.075  1.00  0.00    -0.081 Cl
HETATM   26  C17 UNL     1      25.691   1.176  51.857  1.00  0.00     0.056 A 
ENDBRANCH  17  19
ENDBRANCH  16  17
ENDBRANCH   2  15
TORSDOF 8
ENDMDL
MODEL 8
REMARK VINA RESULT:      -6.9      6.184      9.115
REMARK  8 active torsions:
REMARK  status: ('A' for Active; 'I' for Inactive)
REMARK    1  A    between atoms: O1_2  and  C2_3 
REMARK    2  A    between atoms: C2_3  and  C4_5 
REMARK    3  A    between atoms: C5_6  and  O2_7 
REMARK    4  A    between atoms: C7_9  and  C8_10 
REMARK    5  A    between atoms: C9_11  and  N1_12 
REMARK    6  A    between atoms: C10_13  and  N2_14 
REMARK    7  A    between atoms: C11_15  and  N3_16 
REMARK    8  A    between atoms: N3_16  and  C12_17 
ROOT
HETATM    1  N1  UNL     1      21.073   1.876  51.516  1.00  0.00    -0.254 NA
HETATM    2  C10 UNL     1      22.295   1.516  51.591  1.00  0.00     0.233 C 
ENDROOT
BRANCH   1   3
HETATM    3  C9  UNL     1      20.481   2.601  50.456  1.00  0.00     0.118 C 
HETATM    4  C8  UNL     1      20.555   3.918  50.357  1.00  0.00     0.020 C 
BRANCH   4   5
HETATM    5  C7  UNL     1      21.267   4.700  51.362  1.00  0.00     0.016 C 
HETATM    6  C6  UNL     1      22.543   5.013  51.165  1.00  0.00     0.009 A 
HETATM    7  C4  UNL     1      23.827   5.063  50.477  1.00  0.00     0.017 A 
HETATM    8  C5  UNL     1      23.737   5.675  51.660  1.00  0.00     0.086 A 
BRANCH   7   9
HETATM    9  C2  UNL     1      24.581   4.643  49.247  1.00  0.00     0.153 C 
HETATM   10  C3  UNL     1      25.723   5.645  49.063  1.00  0.00     0.045 C 
BRANCH   9  11
HETATM   11  O1  UNL     1      25.152   3.399  49.426  1.00  0.00    -0.386 OA
HETATM   12  C1  UNL     1      26.377   3.428  50.087  1.00  0.00     0.202 C 
ENDBRANCH   9  11
ENDBRANCH   7   9
BRANCH   8  13
HETATM   13  O2  UNL     1      24.353   6.426  52.668  1.00  0.00    -0.359 OA
HETATM   14  H8  UNL     1      23.939   6.531  53.589  1.00  0.00     0.217 HD
ENDBRANCH   8  13
ENDBRANCH   4   5
ENDBRANCH   1   3
BRANCH   2  15
HETATM   15  N2  UNL     1      23.155   0.812  52.478  1.00  0.00    -0.237 NA
HETATM   16  C11 UNL     1      24.427   0.894  52.261  1.00  0.00     0.208 C 
BRANCH  16  17
HETATM   17  N3  UNL     1      25.114   0.120  53.259  1.00  0.00    -0.351 N 
HETATM   18  H14 UNL     1      24.682  -0.500  54.007  1.00  0.00     0.166 HD
BRANCH  17  19
HETATM   19  C12 UNL     1      26.538   0.049  53.427  1.00  0.00     0.034 A 
HETATM   20  C13 UNL     1      27.110  -1.166  53.045  1.00  0.00     0.032 A 
HETATM   21  C14 UNL     1      28.472  -1.370  53.154  1.00  0.00     0.046 A 
HETATM   22  C15 UNL     1      29.296  -0.354  53.651  1.00  0.00     0.138 A 
HETATM   23  F1  UNL     1      30.631  -0.555  53.757  1.00  0.00    -0.204 F 
HETATM   24  C16 UNL     1      28.694   0.849  54.024  1.00  0.00     0.074 A 
HETATM   25 CL1  UNL     1      29.680   2.163  54.655  1.00  0.00    -0.081 Cl
HETATM   26  C17 UNL     1      27.337   1.067  53.922  1.00  0.00     0.056 A 
ENDBRANCH  17  19
ENDBRANCH  16  17
ENDBRANCH   2  15
TORSDOF 8
ENDMDL
MODEL 9
REMARK VINA RESULT:      -6.8      7.347     10.066
REMARK  8 active torsions:
REMARK  status: ('A' for Active; 'I' for Inactive)
REMARK    1  A    between atoms: O1_2  and  C2_3 
REMARK    2  A    between atoms: C2_3  and  C4_5 
REMARK    3  A    between atoms: C5_6  and  O2_7 
REMARK    4  A    between atoms: C7_9  and  C8_10 
REMARK    5  A    between atoms: C9_11  and  N1_12 
REMARK    6  A    between atoms: C10_13  and  N2_14 
REMARK    7  A    between atoms: C11_15  and  N3_16 
REMARK    8  A    between atoms: N3_16  and  C12_17 
ROOT
HETATM    1  N1  UNL     1      23.961   5.092  50.564  1.00  0.00    -0.254 NA
HETATM    2  C10 UNL     1      23.514   4.024  51.100  1.00  0.00     0.233 C 
ENDROOT
BRANCH   1   3
HETATM    3  C9  UNL     1      23.268   5.918  49.649  1.00  0.00     0.118 C 
HETATM    4  C8  UNL     1      23.439   7.229  49.593  1.00  0.00     0.020 C 
BRANCH   4   5
HETATM    5  C7  UNL     1      24.371   7.896  50.494  1.00  0.00     0.016 C 
HETATM    6  C6  UNL     1      25.563   8.272  50.044  1.00  0.00     0.009 A 
HETATM    7  C4  UNL     1      26.644   8.450  49.084  1.00  0.00     0.017 A 
HETATM    8  C5  UNL     1      26.841   8.902  50.324  1.00  0.00     0.086 A 
BRANCH   7   9
HETATM    9  C2  UNL     1      27.082   8.217  47.665  1.00  0.00     0.153 C 
HETATM   10  C3  UNL     1      28.114   7.087  47.699  1.00  0.00     0.045 C 
BRANCH   9  11
HETATM   11  O1  UNL     1      26.022   7.779  46.894  1.00  0.00    -0.386 OA
HETATM   12  C1  UNL     1      25.206   8.803  46.421  1.00  0.00     0.202 C 
ENDBRANCH   9  11
ENDBRANCH   7   9
BRANCH   8  13
HETATM   13  O2  UNL     1      27.680   9.535  51.248  1.00  0.00    -0.359 OA
HETATM   14  H8  UNL     1      28.242   9.011  51.912  1.00  0.00     0.217 HD
ENDBRANCH   8  13
ENDBRANCH   4   5
ENDBRANCH   1   3
BRANCH   2  15
HETATM   15  N2  UNL     1      23.941   3.021  52.013  1.00  0.00    -0.237 NA
HETATM   16  C11 UNL     1      24.443   1.938  51.514  1.00  0.00     0.208 C 
BRANCH  16  17
HETATM   17  N3  UNL     1      24.808   1.062  52.593  1.00  0.00    -0.351 N 
HETATM   18  H14 UNL     1      24.158   0.568  53.274  1.00  0.00     0.166 HD
BRANCH  17  19
HETATM   19  C12 UNL     1      26.149   0.691  52.950  1.00  0.00     0.034 A 
HETATM   20  C13 UNL     1      26.475  -0.641  52.687  1.00  0.00     0.032 A 
HETATM   21  C14 UNL     1      27.733  -1.131  52.982  1.00  0.00     0.046 A 
HETATM   22  C15 UNL     1      28.697  -0.291  53.550  1.00  0.00     0.138 A 
HETATM   23  F1  UNL     1      29.929  -0.773  53.838  1.00  0.00    -0.204 F 
HETATM   24  C16 UNL     1      28.341   1.034  53.800  1.00  0.00     0.074 A 
HETATM   25 CL1  UNL     1      29.513   2.137  54.513  1.00  0.00    -0.081 Cl
HETATM   26  C17 UNL     1      27.091   1.537  53.512  1.00  0.00     0.056 A 
ENDBRANCH  17  19
ENDBRANCH  16  17
ENDBRANCH   2  15
TORSDOF 8
ENDMDL
