MODEL 1
REMARK VINA RESULT:      -8.1      0.000      0.000
REMARK  5 active torsions:
REMARK  status: ('A' for Active; 'I' for Inactive)
REMARK    1  A    between atoms: O1_2  and  C2_3 
REMARK    2  A    between atoms: C7_9  and  N1_10 
REMARK    3  A    between atoms: C10_13  and  C11_14 
REMARK    4  A    between atoms: C11_14  and  N2_15 
REMARK    5  A    between atoms: C12_16  and  C13_17 
ROOT
HETATM    1  N1  UNL     1      24.590   0.278  52.927  1.00  0.00    -0.356 N 
HETATM    2  C8  UNL     1      23.429  -0.480  53.207  1.00  0.00     0.089 A 
HETATM    3  C9  UNL     1      22.734   0.329  52.422  1.00  0.00     0.017 A 
HETATM    4  C10 UNL     1      23.906   1.198  52.061  1.00  0.00     0.132 A 
ENDROOT
BRANCH   4   5
HETATM    5  C11 UNL     1      23.717   2.550  52.698  1.00  0.00     0.177 C 
BRANCH   5   6
HETATM    6  N2  UNL     1      24.461   3.520  51.909  1.00  0.00    -0.298 NA
HETATM    7  C12 UNL     1      24.669   3.266  50.650  1.00  0.00     0.123 C 
BRANCH   7   8
HETATM    8  C13 UNL     1      25.411   4.236  49.859  1.00  0.00    -0.001 A 
HETATM    9  C14 UNL     1      24.840   5.325  49.373  1.00  0.00     0.027 A 
HETATM   10 CL1  UNL     1      23.191   5.883  49.510  1.00  0.00    -0.088 Cl
HETATM   11  C15 UNL     1      25.849   6.119  48.614  1.00  0.00     0.086 A 
HETATM   12  C16 UNL     1      27.080   5.270  48.769  1.00  0.00    -0.078 A 
HETATM   13  C17 UNL     1      28.425   5.598  48.190  1.00  0.00     0.044 C 
HETATM   14  C18 UNL     1      26.810   4.201  49.483  1.00  0.00     0.017 A 
ENDBRANCH   7   8
ENDBRANCH   5   6
ENDBRANCH   4   5
BRANCH   1  15
HETATM   15  C7  UNL     1      25.851  -0.037  53.481  1.00  0.00     0.103 C 
HETATM   16  C6  UNL     1      26.983   0.583  53.217  1.00  0.00     0.014 C 
HETATM   17  C2  UNL     1      28.242   0.155  53.867  1.00  0.00     0.076 C 
HETATM   18  C5  UNL     1      26.969   1.717  52.257  1.00  0.00     0.211 C 
HETATM   19  C3  UNL     1      29.149   1.113  54.081  1.00  0.00     0.036 C 
HETATM   20  C4  UNL     1      28.706   2.427  53.618  1.00  0.00     0.198 C 
HETATM   21  O2  UNL     1      28.098   2.472  52.391  1.00  0.00    -0.383 OA
BRANCH  17  22
HETATM   22  O1  UNL     1      28.385  -1.174  54.197  1.00  0.00    -0.356 OA
HETATM   23  C1  UNL     1      28.979  -2.084  53.269  1.00  0.00     0.210 C 
ENDBRANCH  17  22
ENDBRANCH   1  15
TORSDOF 5
ENDMDL
MODEL 2
REMARK VINA RESULT:      -8.1      1.022      1.997
REMARK  5 active torsions:
REMARK  status: ('A' for Active; 'I' for Inactive)
REMARK    1  A    between atoms: O1_2  and  C2_3 
REMARK    2  A    between atoms: C7_9  and  N1_10 
REMARK    3  A    between atoms: C10_13  and  C11_14 
REMARK    4  A    between atoms: C11_14  and  N2_15 
REMARK    5  A    between atoms: C12_16  and  C13_17 
ROOT
HETATM    1  N1  UNL     1      24.937   0.742  52.915  1.00  0.00    -0.356 N 
HETATM    2  C8  UNL     1      23.950  -0.111  53.461  1.00  0.00     0.089 A 
HETATM    3  C9  UNL     1      23.084   0.354  52.574  1.00  0.00     0.017 A 
HETATM    4  C10 UNL     1      24.058   1.296  51.923  1.00  0.00     0.132 A 
ENDROOT
BRANCH   4   5
HETATM    5  C11 UNL     1      23.650   2.709  52.245  1.00  0.00     0.177 C 
BRANCH   5   6
HETATM    6  N2  UNL     1      24.570   3.604  51.560  1.00  0.00    -0.298 NA
HETATM    7  C12 UNL     1      24.741   3.455  50.279  1.00  0.00     0.123 C 
BRANCH   7   8
HETATM    8  C13 UNL     1      25.660   4.350  49.592  1.00  0.00    -0.001 A 
HETATM    9  C14 UNL     1      25.288   5.550  49.178  1.00  0.00     0.027 A 
HETATM   10 CL1  UNL     1      23.743   6.352  49.309  1.00  0.00    -0.088 Cl
HETATM   11  C15 UNL     1      26.441   6.226  48.516  1.00  0.00     0.086 A 
HETATM   12  C16 UNL     1      27.515   5.183  48.640  1.00  0.00    -0.078 A 
HETATM   13  C17 UNL     1      28.919   5.334  48.131  1.00  0.00     0.044 C 
HETATM   14  C18 UNL     1      27.051   4.120  49.257  1.00  0.00     0.017 A 
ENDBRANCH   7   8
ENDBRANCH   5   6
ENDBRANCH   4   5
BRANCH   1  15
HETATM   15  C7  UNL     1      26.258   0.788  53.415  1.00  0.00     0.103 C 
HETATM   16  C6  UNL     1      27.050  -0.251  53.591  1.00  0.00     0.014 C 
HETATM   17  C2  UNL     1      28.419  -0.068  54.124  1.00  0.00     0.076 C 
HETATM   18  C5  UNL     1      26.542  -1.603  53.244  1.00  0.00     0.211 C 
HETATM   19  C3  UNL     1      29.335  -0.948  53.706  1.00  0.00     0.036 C 
HETATM   20  C4  UNL     1      28.788  -1.940  52.783  1.00  0.00     0.198 C 
HETATM   21  O2  UNL     1      27.576  -2.484  53.115  1.00  0.00    -0.383 OA
BRANCH  17  22
HETATM   22  O1  UNL     1      28.644   0.974  54.995  1.00  0.00    -0.356 OA
HETATM   23  C1  UNL     1      29.465   2.075  54.599  1.00  0.00     0.210 C 
ENDBRANCH  17  22
ENDBRANCH   1  15
TORSDOF 5
ENDMDL
MODEL 3
REMARK VINA RESULT:      -8.0      3.079      6.080
REMARK  5 active torsions:
REMARK  status: ('A' for Active; 'I' for Inactive)
REMARK    1  A    between atoms: O1_2  and  C2_3 
REMARK    2  A    between atoms: C7_9  and  N1_10 
REMARK    3  A    between atoms: C10_13  and  C11_14 
REMARK    4  A    between atoms: C11_14  and  N2_15 
REMARK    5  A    between atoms: C12_16  and  C13_17 
ROOT
HETATM    1  N1  UNL     1      21.502   0.640  52.412  1.00  0.00    -0.356 N 
HETATM    2  C8  UNL     1      20.139   0.360  52.667  1.00  0.00     0.089 A 
HETATM    3  C9  UNL     1      20.447   0.104  53.929  1.00  0.00     0.017 A 
HETATM    4  C10 UNL     1      21.916   0.379  53.762  1.00  0.00     0.132 A 
ENDROOT
BRANCH   4   5
HETATM    5  C11 UNL     1      22.667  -0.920  53.890  1.00  0.00     0.177 C 
BRANCH   5   6
HETATM    6  N2  UNL     1      24.071  -0.603  54.104  1.00  0.00    -0.298 NA
HETATM    7  C12 UNL     1      24.851  -0.515  53.066  1.00  0.00     0.123 C 
BRANCH   7   8
HETATM    8  C13 UNL     1      26.255  -0.196  53.278  1.00  0.00    -0.001 A 
HETATM    9  C14 UNL     1      26.654   1.025  53.595  1.00  0.00     0.027 A 
HETATM   10 CL1  UNL     1      25.722   2.482  53.833  1.00  0.00    -0.088 Cl
HETATM   11  C15 UNL     1      28.137   1.038  53.748  1.00  0.00     0.086 A 
HETATM   12  C16 UNL     1      28.484  -0.395  53.457  1.00  0.00    -0.078 A 
HETATM   13  C17 UNL     1      29.875  -0.959  53.468  1.00  0.00     0.044 C 
HETATM   14  C18 UNL     1      27.397  -1.083  53.193  1.00  0.00     0.017 A 
ENDBRANCH   7   8
ENDBRANCH   5   6
ENDBRANCH   4   5
BRANCH   1  15
HETATM   15  C7  UNL     1      21.969   1.024  51.135  1.00  0.00     0.103 C 
HETATM   16  C6  UNL     1      22.528   2.180  50.837  1.00  0.00     0.014 C 
HETATM   17  C2  UNL     1      22.977   2.462  49.455  1.00  0.00     0.076 C 
HETATM   18  C5  UNL     1      22.696   3.190  51.913  1.00  0.00     0.211 C 
HETATM   19  C3  UNL     1      24.031   3.275  49.333  1.00  0.00     0.036 C 
HETATM   20  C4  UNL     1      24.542   3.737  50.622  1.00  0.00     0.198 C 
HETATM   21  O2  UNL     1      23.611   4.134  51.544  1.00  0.00    -0.383 OA
BRANCH  17  22
HETATM   22  O1  UNL     1      22.289   1.876  48.415  1.00  0.00    -0.356 OA
HETATM   23  C1  UNL     1      21.210   2.572  47.788  1.00  0.00     0.210 C 
ENDBRANCH  17  22
ENDBRANCH   1  15
TORSDOF 5
ENDMDL
MODEL 4
REMARK VINA RESULT:      -7.8      2.329      4.299
REMARK  5 active torsions:
REMARK  status: ('A' for Active; 'I' for Inactive)
REMARK    1  A    between atoms: O1_2  and  C2_3 
REMARK    2  A    between atoms: C7_9  and  N1_10 
REMARK    3  A    between atoms: C10_13  and  C11_14 
REMARK    4  A    between atoms: C11_14  and  N2_15 
REMARK    5  A    between atoms: C12_16  and  C13_17 
ROOT
HETATM    1  N1  UNL     1      25.561   0.496  53.401  1.00  0.00    -0.356 N 
HETATM    2  C8  UNL     1      26.526  -0.070  54.266  1.00  0.00     0.089 A 
HETATM    3  C9  UNL     1      27.324   0.958  54.020  1.00  0.00     0.017 A 
HETATM    4  C10 UNL     1      26.367   1.642  53.083  1.00  0.00     0.132 A 
ENDROOT
BRANCH   4   5
HETATM    5  C11 UNL     1      26.930   1.576  51.687  1.00  0.00     0.177 C 
BRANCH   5   6
HETATM    6  N2  UNL     1      26.880   2.917  51.125  1.00  0.00    -0.298 NA
HETATM    7  C12 UNL     1      26.727   3.045  49.839  1.00  0.00     0.123 C 
BRANCH   7   8
HETATM    8  C13 UNL     1      26.677   4.386  49.276  1.00  0.00    -0.001 A 
HETATM    9  C14 UNL     1      25.581   5.126  49.331  1.00  0.00     0.027 A 
HETATM   10 CL1  UNL     1      24.019   4.765  50.021  1.00  0.00    -0.088 Cl
HETATM   11  C15 UNL     1      25.837   6.440  48.675  1.00  0.00     0.086 A 
HETATM   12  C16 UNL     1      27.270   6.292  48.249  1.00  0.00    -0.078 A 
HETATM   13  C17 UNL     1      28.062   7.341  47.524  1.00  0.00     0.044 C 
HETATM   14  C18 UNL     1      27.732   5.114  48.601  1.00  0.00     0.017 A 
ENDBRANCH   7   8
ENDBRANCH   5   6
ENDBRANCH   4   5
BRANCH   1  15
HETATM   15  C7  UNL     1      24.315  -0.120  53.152  1.00  0.00     0.103 C 
HETATM   16  C6  UNL     1      23.200   0.503  52.825  1.00  0.00     0.014 C 
HETATM   17  C2  UNL     1      21.955  -0.261  52.588  1.00  0.00     0.076 C 
HETATM   18  C5  UNL     1      23.221   1.983  52.700  1.00  0.00     0.211 C 
HETATM   19  C3  UNL     1      21.104   0.262  51.700  1.00  0.00     0.036 C 
HETATM   20  C4  UNL     1      21.584   1.518  51.127  1.00  0.00     0.198 C 
HETATM   21  O2  UNL     1      22.134   2.419  51.998  1.00  0.00    -0.383 OA
BRANCH  17  22
HETATM   22  O1  UNL     1      21.769  -1.434  53.285  1.00  0.00    -0.356 OA
HETATM   23  C1  UNL     1      21.152  -1.410  54.575  1.00  0.00     0.210 C 
ENDBRANCH  17  22
ENDBRANCH   1  15
TORSDOF 5
ENDMDL
MODEL 5
REMARK VINA RESULT:      -7.7      1.446      2.022
REMARK  5 active torsions:
REMARK  status: ('A' for Active; 'I' for Inactive)
REMARK    1  A    between atoms: O1_2  and  C2_3 
REMARK    2  A    between atoms: C7_9  and  N1_10 
REMARK    3  A    between atoms: C10_13  and  C11_14 
REMARK    4  A    between atoms: C11_14  and  N2_15 
REMARK    5  A    between atoms: C12_16  and  C13_17 
ROOT
HETATM    1  N1  UNL     1      23.969   1.713  51.219  1.00  0.00    -0.356 N 
HETATM    2  C8  UNL     1      22.612   1.399  50.972  1.00  0.00     0.089 A 
HETATM    3  C9  UNL     1      22.535   2.449  50.168  1.00  0.00     0.017 A 
HETATM    4  C10 UNL     1      23.965   2.868  50.364  1.00  0.00     0.132 A 
ENDROOT
BRANCH   4   5
HETATM    5  C11 UNL     1      23.988   4.156  51.143  1.00  0.00     0.177 C 
BRANCH   5   6
HETATM    6  N2  UNL     1      24.987   5.023  50.538  1.00  0.00    -0.298 NA
HETATM    7  C12 UNL     1      25.540   4.647  49.422  1.00  0.00     0.123 C 
BRANCH   7   8
HETATM    8  C13 UNL     1      26.539   5.514  48.816  1.00  0.00    -0.001 A 
HETATM    9  C14 UNL     1      26.234   6.718  48.358  1.00  0.00     0.027 A 
HETATM   10 CL1  UNL     1      24.702   7.555  48.340  1.00  0.00    -0.088 Cl
HETATM   11  C15 UNL     1      27.458   7.361  47.800  1.00  0.00     0.086 A 
HETATM   12  C16 UNL     1      28.492   6.296  48.031  1.00  0.00    -0.078 A 
HETATM   13  C17 UNL     1      29.940   6.410  47.652  1.00  0.00     0.044 C 
HETATM   14  C18 UNL     1      27.949   5.250  48.612  1.00  0.00     0.017 A 
ENDBRANCH   7   8
ENDBRANCH   5   6
ENDBRANCH   4   5
BRANCH   1  15
HETATM   15  C7  UNL     1      24.781   0.938  52.077  1.00  0.00     0.103 C 
HETATM   16  C6  UNL     1      26.071   1.115  52.283  1.00  0.00     0.014 C 
HETATM   17  C2  UNL     1      26.810   0.231  53.211  1.00  0.00     0.076 C 
HETATM   18  C5  UNL     1      26.763   2.216  51.566  1.00  0.00     0.211 C 
HETATM   19  C3  UNL     1      27.846   0.784  53.850  1.00  0.00     0.036 C 
HETATM   20  C4  UNL     1      28.048   2.187  53.495  1.00  0.00     0.198 C 
HETATM   21  O2  UNL     1      27.956   2.502  52.165  1.00  0.00    -0.383 OA
BRANCH  17  22
HETATM   22  O1  UNL     1      26.386  -1.072  53.347  1.00  0.00    -0.356 OA
HETATM   23  C1  UNL     1      27.086  -2.127  52.683  1.00  0.00     0.210 C 
ENDBRANCH  17  22
ENDBRANCH   1  15
TORSDOF 5
ENDMDL
MODEL 6
REMARK VINA RESULT:      -7.6      3.455      6.667
REMARK  5 active torsions:
REMARK  status: ('A' for Active; 'I' for Inactive)
REMARK    1  A    between atoms: O1_2  and  C2_3 
REMARK    2  A    between atoms: C7_9  and  N1_10 
REMARK    3  A    between atoms: C10_13  and  C11_14 
REMARK    4  A    between atoms: C11_14  and  N2_15 
REMARK    5  A    between atoms: C12_16  and  C13_17 
ROOT
HETATM    1  N1  UNL     1      24.096   2.796  51.893  1.00  0.00    -0.356 N 
HETATM    2  C8  UNL     1      23.786   4.159  51.677  1.00  0.00     0.089 A 
HETATM    3  C9  UNL     1      22.498   3.851  51.700  1.00  0.00     0.017 A 
HETATM    4  C10 UNL     1      22.720   2.382  51.929  1.00  0.00     0.132 A 
ENDROOT
BRANCH   4   5
HETATM    5  C11 UNL     1      22.314   1.634  50.687  1.00  0.00     0.177 C 
BRANCH   5   6
HETATM    6  N2  UNL     1      21.267   0.694  51.057  1.00  0.00    -0.298 NA
HETATM    7  C12 UNL     1      20.619   0.894  52.167  1.00  0.00     0.123 C 
BRANCH   7   8
HETATM    8  C13 UNL     1      19.571  -0.045  52.538  1.00  0.00    -0.001 A 
HETATM    9  C14 UNL     1      19.746  -0.948  53.488  1.00  0.00     0.027 A 
HETATM   10 CL1  UNL     1      21.141  -1.266  54.488  1.00  0.00    -0.088 Cl
HETATM   11  C15 UNL     1      18.503  -1.757  53.639  1.00  0.00     0.086 A 
HETATM   12  C16 UNL     1      17.610  -1.138  52.601  1.00  0.00    -0.078 A 
HETATM   13  C17 UNL     1      16.203  -1.572  52.311  1.00  0.00     0.044 C 
HETATM   14  C18 UNL     1      18.237  -0.162  51.984  1.00  0.00     0.017 A 
ENDBRANCH   7   8
ENDBRANCH   5   6
ENDBRANCH   4   5
BRANCH   1  15
HETATM   15  C7  UNL     1      25.425   2.328  51.992  1.00  0.00     0.103 C 
HETATM   16  C6  UNL     1      25.818   1.264  52.663  1.00  0.00     0.014 C 
HETATM   17  C2  UNL     1      27.247   0.878  52.688  1.00  0.00     0.076 C 
HETATM   18  C5  UNL     1      24.800   0.464  53.392  1.00  0.00     0.211 C 
HETATM   19  C3  UNL     1      27.501  -0.430  52.798  1.00  0.00     0.036 C 
HETATM   20  C4  UNL     1      26.286  -1.238  52.876  1.00  0.00     0.198 C 
HETATM   21  O2  UNL     1      25.291  -0.773  53.694  1.00  0.00    -0.383 OA
BRANCH  17  22
HETATM   22  O1  UNL     1      28.192   1.875  52.596  1.00  0.00    -0.356 OA
HETATM   23  C1  UNL     1      28.776   2.420  53.782  1.00  0.00     0.210 C 
ENDBRANCH  17  22
ENDBRANCH   1  15
TORSDOF 5
ENDMDL
MODEL 7
REMARK VINA RESULT:      -7.4      3.487      6.387
REMARK  5 active torsions:
REMARK  status: ('A' for Active; 'I' for Inactive)
REMARK    1  A    between atoms: O1_2  and  C2_3 
REMARK    2  A    between atoms: C7_9  and  N1_10 
REMARK    3  A    between atoms: C10_13  and  C11_14 
REMARK    4  A    between atoms: C11_14  and  N2_15 
REMARK    5  A    between atoms: C12_16  and  C13_17 
ROOT
HETATM    1  N1  UNL     1      21.261   1.305  52.753  1.00  0.00    -0.356 N 
HETATM    2  C8  UNL     1      19.916   0.865  52.767  1.00  0.00     0.089 A 
HETATM    3  C9  UNL     1      20.232  -0.010  53.710  1.00  0.00     0.017 A 
HETATM    4  C10 UNL     1      21.682   0.383  53.771  1.00  0.00     0.132 A 
ENDROOT
BRANCH   4   5
HETATM    5  C11 UNL     1      22.511  -0.745  53.216  1.00  0.00     0.177 C 
BRANCH   5   6
HETATM    6  N2  UNL     1      23.907  -0.453  53.503  1.00  0.00    -0.298 NA
HETATM    7  C12 UNL     1      24.656   0.001  52.540  1.00  0.00     0.123 C 
BRANCH   7   8
HETATM    8  C13 UNL     1      26.052   0.294  52.826  1.00  0.00    -0.001 A 
HETATM    9  C14 UNL     1      26.991  -0.635  52.754  1.00  0.00     0.027 A 
HETATM   10 CL1  UNL     1      26.863  -2.326  52.337  1.00  0.00    -0.088 Cl
HETATM   11  C15 UNL     1      28.311  -0.036  53.099  1.00  0.00     0.086 A 
HETATM   12  C16 UNL     1      27.932   1.392  53.376  1.00  0.00    -0.078 A 
HETATM   13  C17 UNL     1      28.894   2.471  53.779  1.00  0.00     0.044 C 
HETATM   14  C18 UNL     1      26.640   1.560  53.214  1.00  0.00     0.017 A 
ENDBRANCH   7   8
ENDBRANCH   5   6
ENDBRANCH   4   5
BRANCH   1  15
HETATM   15  C7  UNL     1      21.711   2.334  51.896  1.00  0.00     0.103 C 
HETATM   16  C6  UNL     1      21.951   2.211  50.606  1.00  0.00     0.014 C 
HETATM   17  C2  UNL     1      22.420   3.372  49.816  1.00  0.00     0.076 C 
HETATM   18  C5  UNL     1      21.740   0.888  49.964  1.00  0.00     0.211 C 
HETATM   19  C3  UNL     1      22.051   3.397  48.532  1.00  0.00     0.036 C 
HETATM   20  C4  UNL     1      21.237   2.244  48.153  1.00  0.00     0.198 C 
HETATM   21  O2  UNL     1      21.655   1.022  48.609  1.00  0.00    -0.383 OA
BRANCH  17  22
HETATM   22  O1  UNL     1      23.188   4.323  50.450  1.00  0.00    -0.356 OA
HETATM   23  C1  UNL     1      24.610   4.182  50.495  1.00  0.00     0.210 C 
ENDBRANCH  17  22
ENDBRANCH   1  15
TORSDOF 5
ENDMDL
MODEL 8
REMARK VINA RESULT:      -7.2      3.727      7.571
REMARK  5 active torsions:
REMARK  status: ('A' for Active; 'I' for Inactive)
REMARK    1  A    between atoms: O1_2  and  C2_3 
REMARK    2  A    between atoms: C7_9  and  N1_10 
REMARK    3  A    between atoms: C10_13  and  C11_14 
REMARK    4  A    between atoms: C11_14  and  N2_15 
REMARK    5  A    between atoms: C12_16  and  C13_17 
ROOT
HETATM    1  N1  UNL     1      25.392   4.616  49.879  1.00  0.00    -0.356 N 
HETATM    2  C8  UNL     1      26.409   5.381  49.261  1.00  0.00     0.089 A 
HETATM    3  C9  UNL     1      27.093   4.267  49.049  1.00  0.00     0.017 A 
HETATM    4  C10 UNL     1      26.073   3.365  49.686  1.00  0.00     0.132 A 
ENDROOT
BRANCH   4   5
HETATM    5  C11 UNL     1      26.645   2.821  50.968  1.00  0.00     0.177 C 
BRANCH   5   6
HETATM    6  N2  UNL     1      25.714   1.828  51.484  1.00  0.00    -0.298 NA
HETATM    7  C12 UNL     1      24.969   2.147  52.501  1.00  0.00     0.123 C 
BRANCH   7   8
HETATM    8  C13 UNL     1      24.037   1.156  53.017  1.00  0.00    -0.001 A 
HETATM    9  C14 UNL     1      24.452   0.038  53.591  1.00  0.00     0.027 A 
HETATM   10 CL1  UNL     1      26.075  -0.538  53.879  1.00  0.00    -0.088 Cl
HETATM   11  C15 UNL     1      23.273  -0.770  54.015  1.00  0.00     0.086 A 
HETATM   12  C16 UNL     1      22.133   0.102  53.571  1.00  0.00    -0.078 A 
HETATM   13  C17 UNL     1      20.680  -0.229  53.750  1.00  0.00     0.044 C 
HETATM   14  C18 UNL     1      22.589   1.196  53.005  1.00  0.00     0.017 A 
ENDBRANCH   7   8
ENDBRANCH   5   6
ENDBRANCH   4   5
BRANCH   1  15
HETATM   15  C7  UNL     1      24.220   5.201  50.407  1.00  0.00     0.103 C 
HETATM   16  C6  UNL     1      22.985   4.814  50.153  1.00  0.00     0.014 C 
HETATM   17  C2  UNL     1      21.838   5.513  50.772  1.00  0.00     0.076 C 
HETATM   18  C5  UNL     1      22.773   3.665  49.234  1.00  0.00     0.211 C 
HETATM   19  C3  UNL     1      20.754   4.767  51.010  1.00  0.00     0.036 C 
HETATM   20  C4  UNL     1      20.922   3.375  50.599  1.00  0.00     0.198 C 
HETATM   21  O2  UNL     1      21.513   3.162  49.382  1.00  0.00    -0.383 OA
BRANCH  17  22
HETATM   22  O1  UNL     1      21.967   6.855  51.053  1.00  0.00    -0.356 OA
HETATM   23  C1  UNL     1      21.283   7.823  50.255  1.00  0.00     0.210 C 
ENDBRANCH  17  22
ENDBRANCH   1  15
TORSDOF 5
ENDMDL
MODEL 9
REMARK VINA RESULT:      -7.1      4.570      7.269
REMARK  5 active torsions:
REMARK  status: ('A' for Active; 'I' for Inactive)
REMARK    1  A    between atoms: O1_2  and  C2_3 
REMARK    2  A    between atoms: C7_9  and  N1_10 
REMARK    3  A    between atoms: C10_13  and  C11_14 
REMARK    4  A    between atoms: C11_14  and  N2_15 
REMARK    5  A    between atoms: C12_16  and  C13_17 
ROOT
HETATM    1  N1  UNL     1      21.041   0.604  52.863  1.00  0.00    -0.356 N 
HETATM    2  C8  UNL     1      20.127   0.156  53.846  1.00  0.00     0.089 A 
HETATM    3  C9  UNL     1      21.148  -0.109  54.647  1.00  0.00     0.017 A 
HETATM    4  C10 UNL     1      22.199   0.343  53.673  1.00  0.00     0.132 A 
ENDROOT
BRANCH   4   5
HETATM    5  C11 UNL     1      22.968  -0.863  53.200  1.00  0.00     0.177 C 
BRANCH   5   6
HETATM    6  N2  UNL     1      24.362  -0.472  53.057  1.00  0.00    -0.298 NA
HETATM    7  C12 UNL     1      25.152  -0.608  54.081  1.00  0.00     0.123 C 
BRANCH   7   8
HETATM    8  C13 UNL     1      26.547  -0.219  53.939  1.00  0.00    -0.001 A 
HETATM    9  C14 UNL     1      27.420  -0.971  53.288  1.00  0.00     0.027 A 
HETATM   10 CL1  UNL     1      27.197  -2.505  52.484  1.00  0.00    -0.088 Cl
HETATM   11  C15 UNL     1      28.757  -0.313  53.311  1.00  0.00     0.086 A 
HETATM   12  C16 UNL     1      28.466   0.938  54.090  1.00  0.00    -0.078 A 
HETATM   13  C17 UNL     1      29.477   1.996  54.423  1.00  0.00     0.044 C 
HETATM   14  C18 UNL     1      27.200   0.974  54.439  1.00  0.00     0.017 A 
ENDBRANCH   7   8
ENDBRANCH   5   6
ENDBRANCH   4   5
BRANCH   1  15
HETATM   15  C7  UNL     1      20.622   1.088  51.604  1.00  0.00     0.103 C 
HETATM   16  C6  UNL     1      20.486   2.358  51.275  1.00  0.00     0.014 C 
HETATM   17  C2  UNL     1      20.037   2.736  49.917  1.00  0.00     0.076 C 
HETATM   18  C5  UNL     1      20.792   3.395  52.293  1.00  0.00     0.211 C 
HETATM   19  C3  UNL     1      20.502   3.897  49.445  1.00  0.00     0.036 C 
HETATM   20  C4  UNL     1      21.384   4.580  50.390  1.00  0.00     0.198 C 
HETATM   21  O2  UNL     1      20.976   4.610  51.697  1.00  0.00    -0.383 OA
BRANCH  17  22
HETATM   22  O1  UNL     1      19.188   1.881  49.250  1.00  0.00    -0.356 OA
HETATM   23  C1  UNL     1      17.773   2.053  49.351  1.00  0.00     0.210 C 
ENDBRANCH  17  22
ENDBRANCH   1  15
TORSDOF 5
ENDMDL
