MODEL 1
REMARK VINA RESULT:      -9.1      0.000      0.000
REMARK  1 active torsions:
REMARK  status: ('A' for Active; 'I' for Inactive)
REMARK    1  A    between atoms: N1_1  and  C1_2 
ROOT
HETATM    1  C1  UNL     1      21.172   1.920  51.357  1.00  0.00     0.133 C 
HETATM    2  N2  UNL     1      21.773   3.062  51.168  1.00  0.00    -0.224 NA
HETATM    3  C2  UNL     1      22.797   3.752  51.912  1.00  0.00     0.238 C 
HETATM    4  N3  UNL     1      23.792   3.441  52.708  1.00  0.00    -0.215 NA
HETATM    5  C3  UNL     1      24.255   2.145  53.161  1.00  0.00     0.199 C 
HETATM    6  C4  UNL     1      23.739   0.936  53.384  1.00  0.00     0.093 C 
HETATM    7  N4  UNL     1      24.239  -0.356  53.844  1.00  0.00    -0.381 N 
HETATM    8  C5  UNL     1      25.384  -0.397  54.783  1.00  0.00     0.161 C 
HETATM    9  C6  UNL     1      26.518   0.369  54.266  1.00  0.00    -0.007 A 
HETATM   10  C7  UNL     1      27.727  -0.306  54.446  1.00  0.00     0.011 A 
HETATM   11  C8  UNL     1      28.971   0.146  54.070  1.00  0.00     0.001 A 
HETATM   12  C9  UNL     1      29.042   1.378  53.458  1.00  0.00     0.003 A 
HETATM   13  C10 UNL     1      27.906   2.105  53.243  1.00  0.00     0.038 A 
HETATM   14  C11 UNL     1      26.664   1.614  53.639  1.00  0.00     0.086 A 
HETATM   15  O1  UNL     1      25.596   2.457  53.359  1.00  0.00    -0.289 OA
HETATM   16  C12 UNL     1      22.326   0.518  53.185  1.00  0.00     0.009 A 
HETATM   17  C13 UNL     1      22.264  -0.518  54.143  1.00  0.00     0.016 A 
HETATM   18  C14 UNL     1      21.024  -1.181  54.211  1.00  0.00     0.020 A 
HETATM   19  C15 UNL     1      19.974  -0.807  53.381  1.00  0.00     0.011 A 
HETATM   20 BR1  UNL     1      18.278  -1.698  53.457  1.00  0.00    -0.051 Br
HETATM   21  C16 UNL     1      20.078   0.210  52.462  1.00  0.00     0.035 A 
HETATM   22  C17 UNL     1      21.261   0.873  52.369  1.00  0.00     0.023 A 
HETATM   23  H4  UNL     1      23.595  -1.058  53.320  1.00  0.00     0.160 HD
ENDROOT
BRANCH   1  24
HETATM   24  N1  UNL     1      20.176   1.527  50.399  1.00  0.00    -0.383 N 
HETATM   25  H1  UNL     1      19.189   1.397  50.754  1.00  0.00     0.157 HD
HETATM   26  H2  UNL     1      20.127   1.315  49.379  1.00  0.00     0.157 HD
ENDBRANCH   1  24
TORSDOF 1
ENDMDL
MODEL 2
REMARK VINA RESULT:      -8.8      4.512      6.488
REMARK  1 active torsions:
REMARK  status: ('A' for Active; 'I' for Inactive)
REMARK    1  A    between atoms: N1_1  and  C1_2 
ROOT
HETATM    1  C1  UNL     1      24.218   6.799  50.610  1.00  0.00     0.133 C 
HETATM    2  N2  UNL     1      23.038   6.450  51.041  1.00  0.00    -0.224 NA
HETATM    3  C2  UNL     1      22.354   5.182  51.073  1.00  0.00     0.238 C 
HETATM    4  N3  UNL     1      22.673   3.911  51.134  1.00  0.00    -0.215 NA
HETATM    5  C3  UNL     1      23.975   3.278  51.198  1.00  0.00     0.199 C 
HETATM    6  C4  UNL     1      25.220   3.540  50.802  1.00  0.00     0.093 C 
HETATM    7  N4  UNL     1      26.517   2.873  50.885  1.00  0.00    -0.381 N 
HETATM    8  C5  UNL     1      26.570   1.393  50.909  1.00  0.00     0.161 C 
HETATM    9  C6  UNL     1      25.714   0.851  51.965  1.00  0.00    -0.007 A 
HETATM   10  C7  UNL     1      26.341  -0.183  52.664  1.00  0.00     0.011 A 
HETATM   11  C8  UNL     1      25.802  -0.895  53.710  1.00  0.00     0.001 A 
HETATM   12  C9  UNL     1      24.527  -0.568  54.115  1.00  0.00     0.003 A 
HETATM   13  C10 UNL     1      23.843   0.433  53.485  1.00  0.00     0.038 A 
HETATM   14  C11 UNL     1      24.421   1.132  52.428  1.00  0.00     0.086 A 
HETATM   15  O1  UNL     1      23.613   2.121  51.882  1.00  0.00    -0.289 OA
HETATM   16  C12 UNL     1      25.691   4.752  50.082  1.00  0.00     0.009 A 
HETATM   17  C13 UNL     1      26.795   4.192  49.403  1.00  0.00     0.016 A 
HETATM   18  C14 UNL     1      27.521   5.104  48.612  1.00  0.00     0.020 A 
HETATM   19  C15 UNL     1      27.140   6.438  48.537  1.00  0.00     0.011 A 
HETATM   20 BR1  UNL     1      28.116   7.693  47.466  1.00  0.00    -0.051 Br
HETATM   21  C16 UNL     1      26.055   6.940  49.214  1.00  0.00     0.035 A 
HETATM   22  C17 UNL     1      25.330   6.089  49.988  1.00  0.00     0.023 A 
HETATM   23  H4  UNL     1      27.209   3.710  50.931  1.00  0.00     0.160 HD
ENDROOT
BRANCH   1  24
HETATM   24  N1  UNL     1      24.588   8.182  50.734  1.00  0.00    -0.383 N 
HETATM   25  H1  UNL     1      24.834   8.697  49.844  1.00  0.00     0.157 HD
HETATM   26  H2  UNL     1      24.697   8.888  51.495  1.00  0.00     0.157 HD
ENDBRANCH   1  24
TORSDOF 1
ENDMDL
MODEL 3
REMARK VINA RESULT:      -8.7      3.700      5.928
REMARK  1 active torsions:
REMARK  status: ('A' for Active; 'I' for Inactive)
REMARK    1  A    between atoms: N1_1  and  C1_2 
ROOT
HETATM    1  C1  UNL     1      22.508   4.578  49.037  1.00  0.00     0.133 C 
HETATM    2  N2  UNL     1      21.372   3.971  48.835  1.00  0.00    -0.224 NA
HETATM    3  C2  UNL     1      20.976   2.590  48.961  1.00  0.00     0.238 C 
HETATM    4  N3  UNL     1      21.329   1.542  49.666  1.00  0.00    -0.215 NA
HETATM    5  C3  UNL     1      22.358   1.400  50.676  1.00  0.00     0.199 C 
HETATM    6  C4  UNL     1      23.532   1.957  50.974  1.00  0.00     0.093 C 
HETATM    7  N4  UNL     1      24.549   1.787  52.008  1.00  0.00    -0.381 N 
HETATM    8  C5  UNL     1      24.746   0.452  52.617  1.00  0.00     0.161 C 
HETATM    9  C6  UNL     1      23.485  -0.086  53.130  1.00  0.00    -0.007 A 
HETATM   10  C7  UNL     1      23.642  -0.672  54.388  1.00  0.00     0.011 A 
HETATM   11  C8  UNL     1      22.651  -1.265  55.134  1.00  0.00     0.001 A 
HETATM   12  C9  UNL     1      21.380  -1.289  54.602  1.00  0.00     0.003 A 
HETATM   13  C10 UNL     1      21.139  -0.736  53.376  1.00  0.00     0.038 A 
HETATM   14  C11 UNL     1      22.170  -0.145  52.649  1.00  0.00     0.086 A 
HETATM   15  O1  UNL     1      21.782   0.375  51.421  1.00  0.00    -0.289 OA
HETATM   16  C12 UNL     1      24.208   3.061  50.241  1.00  0.00     0.009 A 
HETATM   17  C13 UNL     1      25.547   2.753  50.564  1.00  0.00     0.016 A 
HETATM   18  C14 UNL     1      26.498   3.647  50.035  1.00  0.00     0.020 A 
HETATM   19  C15 UNL     1      26.099   4.730  49.261  1.00  0.00     0.011 A 
HETATM   20 BR1  UNL     1      27.378   5.958  48.533  1.00  0.00    -0.051 Br
HETATM   21  C16 UNL     1      24.782   4.991  48.970  1.00  0.00     0.035 A 
HETATM   22  C17 UNL     1      23.836   4.149  49.464  1.00  0.00     0.023 A 
HETATM   23  H4  UNL     1      24.953   2.792  52.108  1.00  0.00     0.160 HD
ENDROOT
BRANCH   1  24
HETATM   24  N1  UNL     1      22.553   5.996  48.810  1.00  0.00    -0.383 N 
HETATM   25  H1  UNL     1      22.624   6.322  47.807  1.00  0.00     0.157 HD
HETATM   26  H2  UNL     1      22.535   6.871  49.378  1.00  0.00     0.157 HD
ENDBRANCH   1  24
TORSDOF 1
ENDMDL
MODEL 4
REMARK VINA RESULT:      -8.7      3.302      7.244
REMARK  1 active torsions:
REMARK  status: ('A' for Active; 'I' for Inactive)
REMARK    1  A    between atoms: N1_1  and  C1_2 
ROOT
HETATM    1  C1  UNL     1      24.782  -0.554  53.544  1.00  0.00     0.133 C 
HETATM    2  N2  UNL     1      24.328  -1.149  54.612  1.00  0.00    -0.224 NA
HETATM    3  C2  UNL     1      23.083  -1.035  55.329  1.00  0.00     0.238 C 
HETATM    4  N3  UNL     1      21.838  -0.717  55.063  1.00  0.00    -0.215 NA
HETATM    5  C3  UNL     1      21.221  -0.330  53.811  1.00  0.00     0.199 C 
HETATM    6  C4  UNL     1      21.583   0.267  52.676  1.00  0.00     0.093 C 
HETATM    7  N4  UNL     1      20.928   0.644  51.426  1.00  0.00    -0.381 N 
HETATM    8  C5  UNL     1      19.486   0.984  51.437  1.00  0.00     0.161 C 
HETATM    9  C6  UNL     1      18.697  -0.080  52.059  1.00  0.00    -0.007 A 
HETATM   10  C7  UNL     1      17.531  -0.351  51.339  1.00  0.00     0.011 A 
HETATM   11  C8  UNL     1      16.582  -1.292  51.661  1.00  0.00     0.001 A 
HETATM   12  C9  UNL     1      16.790  -2.045  52.797  1.00  0.00     0.003 A 
HETATM   13  C10 UNL     1      17.906  -1.844  53.558  1.00  0.00     0.038 A 
HETATM   14  C11 UNL     1      18.846  -0.880  53.200  1.00  0.00     0.086 A 
HETATM   15  O1  UNL     1      19.929  -0.784  54.064  1.00  0.00    -0.289 OA
HETATM   16  C12 UNL     1      22.938   0.767  52.323  1.00  0.00     0.009 A 
HETATM   17  C13 UNL     1      22.569   1.794  51.427  1.00  0.00     0.016 A 
HETATM   18  C14 UNL     1      23.651   2.491  50.855  1.00  0.00     0.020 A 
HETATM   19  C15 UNL     1      24.960   2.158  51.181  1.00  0.00     0.011 A 
HETATM   20 BR1  UNL     1      26.446   3.094  50.414  1.00  0.00    -0.051 Br
HETATM   21  C16 UNL     1      25.274   1.151  52.062  1.00  0.00     0.035 A 
HETATM   22  C17 UNL     1      24.254   0.456  52.633  1.00  0.00     0.023 A 
HETATM   23  H4  UNL     1      21.736   0.560  50.703  1.00  0.00     0.160 HD
ENDROOT
BRANCH   1  24
HETATM   24  N1  UNL     1      26.097  -0.915  53.091  1.00  0.00    -0.383 N 
HETATM   25  H1  UNL     1      26.221  -1.086  52.055  1.00  0.00     0.157 HD
HETATM   26  H2  UNL     1      27.042  -1.071  53.506  1.00  0.00     0.157 HD
ENDBRANCH   1  24
TORSDOF 1
ENDMDL
MODEL 5
REMARK VINA RESULT:      -8.6      5.469      7.595
REMARK  1 active torsions:
REMARK  status: ('A' for Active; 'I' for Inactive)
REMARK    1  A    between atoms: N1_1  and  C1_2 
ROOT
HETATM    1  C1  UNL     1      24.791   7.363  48.244  1.00  0.00     0.133 C 
HETATM    2  N2  UNL     1      23.535   7.024  48.158  1.00  0.00    -0.224 NA
HETATM    3  C2  UNL     1      22.876   5.741  48.158  1.00  0.00     0.238 C 
HETATM    4  N3  UNL     1      23.093   4.541  48.639  1.00  0.00    -0.215 NA
HETATM    5  C3  UNL     1      24.200   4.037  49.427  1.00  0.00     0.199 C 
HETATM    6  C4  UNL     1      25.495   4.305  49.593  1.00  0.00     0.093 C 
HETATM    7  N4  UNL     1      26.588   3.772  50.402  1.00  0.00    -0.381 N 
HETATM    8  C5  UNL     1      26.580   2.340  50.778  1.00  0.00     0.161 C 
HETATM    9  C6  UNL     1      25.318   1.969  51.420  1.00  0.00    -0.007 A 
HETATM   10  C7  UNL     1      25.523   1.158  52.538  1.00  0.00     0.011 A 
HETATM   11  C8  UNL     1      24.542   0.643  53.355  1.00  0.00     0.001 A 
HETATM   12  C9  UNL     1      23.234   0.951  53.052  1.00  0.00     0.003 A 
HETATM   13  C10 UNL     1      22.946   1.739  51.974  1.00  0.00     0.038 A 
HETATM   14  C11 UNL     1      23.967   2.242  51.170  1.00  0.00     0.086 A 
HETATM   15  O1  UNL     1      23.529   3.027  50.111  1.00  0.00    -0.289 OA
HETATM   16  C12 UNL     1      26.281   5.370  48.915  1.00  0.00     0.009 A 
HETATM   17  C13 UNL     1      27.556   4.765  48.956  1.00  0.00     0.016 A 
HETATM   18  C14 UNL     1      28.591   5.542  48.400  1.00  0.00     0.020 A 
HETATM   19  C15 UNL     1      28.327   6.796  47.865  1.00  0.00     0.011 A 
HETATM   20 BR1  UNL     1      29.723   7.868  47.104  1.00  0.00    -0.051 Br
HETATM   21  C16 UNL     1      27.068   7.346  47.844  1.00  0.00     0.035 A 
HETATM   22  C17 UNL     1      26.044   6.625  48.372  1.00  0.00     0.023 A 
HETATM   23  H4  UNL     1      27.206   4.651  50.570  1.00  0.00     0.160 HD
ENDROOT
BRANCH   1  24
HETATM   24  N1  UNL     1      25.104   8.764  48.211  1.00  0.00    -0.383 N 
HETATM   25  H1  UNL     1      24.938   9.275  47.300  1.00  0.00     0.157 HD
HETATM   26  H2  UNL     1      25.475   9.490  48.864  1.00  0.00     0.157 HD
ENDBRANCH   1  24
TORSDOF 1
ENDMDL
MODEL 6
REMARK VINA RESULT:      -8.5      1.703      2.346
REMARK  1 active torsions:
REMARK  status: ('A' for Active; 'I' for Inactive)
REMARK    1  A    between atoms: N1_1  and  C1_2 
ROOT
HETATM    1  C1  UNL     1      19.326   1.618  50.042  1.00  0.00     0.133 C 
HETATM    2  N2  UNL     1      20.054   2.644  49.698  1.00  0.00    -0.224 NA
HETATM    3  C2  UNL     1      21.158   3.308  50.345  1.00  0.00     0.238 C 
HETATM    4  N3  UNL     1      22.117   2.999  51.185  1.00  0.00    -0.215 NA
HETATM    5  C3  UNL     1      22.430   1.735  51.820  1.00  0.00     0.199 C 
HETATM    6  C4  UNL     1      21.780   0.637  52.207  1.00  0.00     0.093 C 
HETATM    7  N4  UNL     1      22.130  -0.626  52.848  1.00  0.00    -0.381 N 
HETATM    8  C5  UNL     1      23.271  -0.668  53.793  1.00  0.00     0.161 C 
HETATM    9  C6  UNL     1      24.482  -0.119  53.182  1.00  0.00    -0.007 A 
HETATM   10  C7  UNL     1      25.606  -0.898  53.464  1.00  0.00     0.011 A 
HETATM   11  C8  UNL     1      26.890  -0.651  53.037  1.00  0.00     0.001 A 
HETATM   12  C9  UNL     1      27.099   0.466  52.258  1.00  0.00     0.003 A 
HETATM   13  C10 UNL     1      26.053   1.283  51.935  1.00  0.00     0.038 A 
HETATM   14  C11 UNL     1      24.765   1.000  52.387  1.00  0.00     0.086 A 
HETATM   15  O1  UNL     1      23.801   1.914  51.982  1.00  0.00    -0.289 OA
HETATM   16  C12 UNL     1      20.326   0.362  52.058  1.00  0.00     0.009 A 
HETATM   17  C13 UNL     1      20.153  -0.513  53.152  1.00  0.00     0.016 A 
HETATM   18  C14 UNL     1      18.844  -1.012  53.303  1.00  0.00     0.020 A 
HETATM   19  C15 UNL     1      17.838  -0.640  52.421  1.00  0.00     0.011 A 
HETATM   20 BR1  UNL     1      16.051  -1.308  52.609  1.00  0.00    -0.051 Br
HETATM   21  C16 UNL     1      18.051   0.219  51.369  1.00  0.00     0.035 A 
HETATM   22  C17 UNL     1      19.302   0.720  51.192  1.00  0.00     0.023 A 
HETATM   23  H4  UNL     1      21.404  -1.316  52.424  1.00  0.00     0.160 HD
ENDROOT
BRANCH   1  24
HETATM   24  N1  UNL     1      18.283   1.212  49.141  1.00  0.00    -0.383 N 
HETATM   25  H1  UNL     1      18.570   0.646  48.296  1.00  0.00     0.157 HD
HETATM   26  H2  UNL     1      17.248   1.313  49.061  1.00  0.00     0.157 HD
ENDBRANCH   1  24
TORSDOF 1
ENDMDL
MODEL 7
REMARK VINA RESULT:      -8.5      2.849      5.063
REMARK  1 active torsions:
REMARK  status: ('A' for Active; 'I' for Inactive)
REMARK    1  A    between atoms: N1_1  and  C1_2 
ROOT
HETATM    1  C1  UNL     1      25.663  -0.320  54.308  1.00  0.00     0.133 C 
HETATM    2  N2  UNL     1      26.920  -0.262  53.967  1.00  0.00    -0.224 NA
HETATM    3  C2  UNL     1      27.572   0.021  52.713  1.00  0.00     0.238 C 
HETATM    4  N3  UNL     1      27.319   0.705  51.623  1.00  0.00    -0.215 NA
HETATM    5  C3  UNL     1      26.162   1.503  51.269  1.00  0.00     0.199 C 
HETATM    6  C4  UNL     1      24.861   1.534  51.554  1.00  0.00     0.093 C 
HETATM    7  N4  UNL     1      23.717   2.360  51.176  1.00  0.00    -0.381 N 
HETATM    8  C5  UNL     1      23.695   2.998  49.840  1.00  0.00     0.161 C 
HETATM    9  C6  UNL     1      24.912   3.776  49.606  1.00  0.00    -0.007 A 
HETATM   10  C7  UNL     1      24.634   5.013  49.018  1.00  0.00     0.011 A 
HETATM   11  C8  UNL     1      25.558   5.971  48.674  1.00  0.00     0.001 A 
HETATM   12  C9  UNL     1      26.885   5.697  48.927  1.00  0.00     0.003 A 
HETATM   13  C10 UNL     1      27.243   4.511  49.501  1.00  0.00     0.038 A 
HETATM   14  C11 UNL     1      26.277   3.564  49.836  1.00  0.00     0.086 A 
HETATM   15  O1  UNL     1      26.784   2.405  50.411  1.00  0.00    -0.289 OA
HETATM   16  C12 UNL     1      24.124   0.620  52.467  1.00  0.00     0.009 A 
HETATM   17  C13 UNL     1      22.846   0.695  51.872  1.00  0.00     0.016 A 
HETATM   18  C14 UNL     1      21.852  -0.061  52.522  1.00  0.00     0.020 A 
HETATM   19  C15 UNL     1      22.155  -0.806  53.655  1.00  0.00     0.011 A 
HETATM   20 BR1  UNL     1      20.814  -1.840  54.555  1.00  0.00    -0.051 Br
HETATM   21  C16 UNL     1      23.416  -0.851  54.200  1.00  0.00     0.035 A 
HETATM   22  C17 UNL     1      24.401  -0.134  53.599  1.00  0.00     0.023 A 
HETATM   23  H4  UNL     1      23.094   2.320  52.066  1.00  0.00     0.160 HD
ENDROOT
BRANCH   1  24
HETATM   24  N1  UNL     1      25.359  -0.636  55.676  1.00  0.00    -0.383 N 
HETATM   25  H1  UNL     1      25.605  -1.608  56.013  1.00  0.00     0.157 HD
HETATM   26  H2  UNL     1      24.937  -0.161  56.504  1.00  0.00     0.157 HD
ENDBRANCH   1  24
TORSDOF 1
ENDMDL
MODEL 8
REMARK VINA RESULT:      -8.2      2.429      3.818
REMARK  1 active torsions:
REMARK  status: ('A' for Active; 'I' for Inactive)
REMARK    1  A    between atoms: N1_1  and  C1_2 
ROOT
HETATM    1  C1  UNL     1      20.990   1.632  52.434  1.00  0.00     0.133 C 
HETATM    2  N2  UNL     1      21.054   0.567  53.184  1.00  0.00    -0.224 NA
HETATM    3  C2  UNL     1      22.056  -0.460  53.325  1.00  0.00     0.238 C 
HETATM    4  N3  UNL     1      23.355  -0.572  53.179  1.00  0.00    -0.215 NA
HETATM    5  C3  UNL     1      24.338   0.415  52.780  1.00  0.00     0.199 C 
HETATM    6  C4  UNL     1      24.381   1.520  52.037  1.00  0.00     0.093 C 
HETATM    7  N4  UNL     1      25.397   2.497  51.654  1.00  0.00    -0.381 N 
HETATM    8  C5  UNL     1      26.809   2.065  51.540  1.00  0.00     0.161 C 
HETATM    9  C6  UNL     1      27.259   1.399  52.763  1.00  0.00    -0.007 A 
HETATM   10  C7  UNL     1      28.536   1.817  53.144  1.00  0.00     0.011 A 
HETATM   11  C8  UNL     1      29.236   1.380  54.244  1.00  0.00     0.001 A 
HETATM   12  C9  UNL     1      28.630   0.444  55.054  1.00  0.00     0.003 A 
HETATM   13  C10 UNL     1      27.380  -0.018  54.754  1.00  0.00     0.038 A 
HETATM   14  C11 UNL     1      26.703   0.448  53.629  1.00  0.00     0.086 A 
HETATM   15  O1  UNL     1      25.442  -0.107  53.447  1.00  0.00    -0.289 OA
HETATM   16  C12 UNL     1      23.249   2.149  51.306  1.00  0.00     0.009 A 
HETATM   17  C13 UNL     1      23.974   2.779  50.272  1.00  0.00     0.016 A 
HETATM   18  C14 UNL     1      23.187   3.520  49.370  1.00  0.00     0.020 A 
HETATM   19  C15 UNL     1      21.808   3.594  49.527  1.00  0.00     0.011 A 
HETATM   20 BR1  UNL     1      20.719   4.598  48.310  1.00  0.00    -0.051 Br
HETATM   21  C16 UNL     1      21.141   2.961  50.549  1.00  0.00     0.035 A 
HETATM   22  C17 UNL     1      21.870   2.236  51.439  1.00  0.00     0.023 A 
HETATM   23  H4  UNL     1      24.817   3.411  51.549  1.00  0.00     0.160 HD
ENDROOT
BRANCH   1  24
HETATM   24  N1  UNL     1      19.818   2.455  52.547  1.00  0.00    -0.383 N 
HETATM   25  H1  UNL     1      19.596   2.849  53.503  1.00  0.00     0.157 HD
HETATM   26  H2  UNL     1      19.060   2.811  51.925  1.00  0.00     0.157 HD
ENDBRANCH   1  24
TORSDOF 1
ENDMDL
MODEL 9
REMARK VINA RESULT:      -8.1      3.324      6.309
REMARK  1 active torsions:
REMARK  status: ('A' for Active; 'I' for Inactive)
REMARK    1  A    between atoms: N1_1  and  C1_2 
ROOT
HETATM    1  C1  UNL     1      26.349   3.431  50.324  1.00  0.00     0.133 C 
HETATM    2  N2  UNL     1      27.007   2.708  51.187  1.00  0.00    -0.224 NA
HETATM    3  C2  UNL     1      26.672   2.231  52.505  1.00  0.00     0.238 C 
HETATM    4  N3  UNL     1      25.589   1.917  53.176  1.00  0.00    -0.215 NA
HETATM    5  C3  UNL     1      24.199   1.948  52.770  1.00  0.00     0.199 C 
HETATM    6  C4  UNL     1      23.435   2.627  51.914  1.00  0.00     0.093 C 
HETATM    7  N4  UNL     1      22.027   2.630  51.529  1.00  0.00    -0.381 N 
HETATM    8  C5  UNL     1      21.002   2.249  52.528  1.00  0.00     0.161 C 
HETATM    9  C6  UNL     1      21.305   0.947  53.125  1.00  0.00    -0.007 A 
HETATM   10  C7  UNL     1      20.166   0.146  53.232  1.00  0.00     0.011 A 
HETATM   11  C8  UNL     1      20.118  -1.128  53.749  1.00  0.00     0.001 A 
HETATM   12  C9  UNL     1      21.298  -1.675  54.206  1.00  0.00     0.003 A 
HETATM   13  C10 UNL     1      22.458  -0.958  54.137  1.00  0.00     0.038 A 
HETATM   14  C11 UNL     1      22.467   0.330  53.607  1.00  0.00     0.086 A 
HETATM   15  O1  UNL     1      23.715   0.940  53.600  1.00  0.00    -0.289 OA
HETATM   16  C12 UNL     1      23.874   3.704  50.987  1.00  0.00     0.009 A 
HETATM   17  C13 UNL     1      22.661   4.420  50.889  1.00  0.00     0.016 A 
HETATM   18  C14 UNL     1      22.708   5.537  50.033  1.00  0.00     0.020 A 
HETATM   19  C15 UNL     1      23.878   5.868  49.362  1.00  0.00     0.011 A 
HETATM   20 BR1  UNL     1      23.961   7.385  48.192  1.00  0.00    -0.051 Br
HETATM   21  C16 UNL     1      25.039   5.143  49.489  1.00  0.00     0.035 A 
HETATM   22  C17 UNL     1      25.031   4.057  50.307  1.00  0.00     0.023 A 
HETATM   23  H4  UNL     1      22.069   2.928  50.484  1.00  0.00     0.160 HD
ENDROOT
BRANCH   1  24
HETATM   24  N1  UNL     1      26.996   3.729  49.076  1.00  0.00    -0.383 N 
HETATM   25  H1  UNL     1      26.561   4.480  48.474  1.00  0.00     0.157 HD
HETATM   26  H2  UNL     1      27.832   3.404  48.542  1.00  0.00     0.157 HD
ENDBRANCH   1  24
TORSDOF 1
ENDMDL
