MODEL 1
REMARK VINA RESULT:      -6.9      0.000      0.000
REMARK  6 active torsions:
REMARK  status: ('A' for Active; 'I' for Inactive)
REMARK    1  A    between atoms: C2_2  and  C3_3 
REMARK    2  A    between atoms: C4_4  and  C5_6 
REMARK    3  A    between atoms: C5_6  and  N1_7 
REMARK    4  A    between atoms: N1_7  and  C6_8 
REMARK    5  A    between atoms: C10_14  and  O1_15 
REMARK    6  A    between atoms: C12_17  and  O2_18 
ROOT
HETATM    1  C6  UNL     1      24.435   2.616  52.150  1.00  0.00     0.137 A 
HETATM    2  N2  UNL     1      24.775   3.400  51.107  1.00  0.00    -0.224 NA
HETATM    3  C7  UNL     1      26.015   3.417  50.589  1.00  0.00     0.235 A 
HETATM    4  N3  UNL     1      27.012   2.632  51.098  1.00  0.00    -0.241 NA
HETATM    5  C8  UNL     1      26.763   1.816  52.142  1.00  0.00     0.075 A 
HETATM    6  C9  UNL     1      27.713   1.019  52.696  1.00  0.00     0.072 A 
HETATM    7  C10 UNL     1      27.469   0.190  53.768  1.00  0.00     0.103 A 
HETATM    8  C12 UNL     1      26.162   0.195  54.289  1.00  0.00     0.102 A 
HETATM    9  C14 UNL     1      25.218   1.023  53.698  1.00  0.00     0.057 A 
HETATM   10  C15 UNL     1      25.475   1.848  52.623  1.00  0.00     0.041 A 
ENDROOT
BRANCH   1  11
HETATM   11  N1  UNL     1      23.102   2.611  52.625  1.00  0.00    -0.369 N 
HETATM   12  H9  UNL     1      22.850   2.678  53.632  1.00  0.00     0.161 HD
BRANCH  11  13
HETATM   13  C5  UNL     1      22.003   2.504  51.656  1.00  0.00     0.167 C 
BRANCH  13  14
HETATM   14  C4  UNL     1      21.774   1.087  51.387  1.00  0.00     0.002 C 
HETATM   15  C3  UNL     1      21.734  -0.066  52.094  1.00  0.00    -0.011 C 
HETATM   16 BR1  UNL     1      21.461   1.078  49.470  1.00  0.00    -0.054 Br
BRANCH  15  17
HETATM   17  C2  UNL     1      21.855  -0.743  53.395  1.00  0.00     0.024 C 
HETATM   18  C1  UNL     1      21.185   0.032  54.513  1.00  0.00     0.009 C 
ENDBRANCH  15  17
ENDBRANCH  13  14
ENDBRANCH  11  13
ENDBRANCH   1  11
BRANCH   8  19
HETATM   19  O2  UNL     1      25.941  -0.645  55.365  1.00  0.00    -0.353 OA
HETATM   20  C13 UNL     1      24.678  -1.208  55.565  1.00  0.00     0.210 C 
ENDBRANCH   8  19
BRANCH   7  21
HETATM   21  O1  UNL     1      28.387  -0.629  54.356  1.00  0.00    -0.353 OA
HETATM   22  C11 UNL     1      29.573  -1.087  53.777  1.00  0.00     0.210 C 
ENDBRANCH   7  21
TORSDOF 6
ENDMDL
MODEL 2
REMARK VINA RESULT:      -6.8      2.038      2.495
REMARK  6 active torsions:
REMARK  status: ('A' for Active; 'I' for Inactive)
REMARK    1  A    between atoms: C2_2  and  C3_3 
REMARK    2  A    between atoms: C4_4  and  C5_6 
REMARK    3  A    between atoms: C5_6  and  N1_7 
REMARK    4  A    between atoms: N1_7  and  C6_8 
REMARK    5  A    between atoms: C10_14  and  O1_15 
REMARK    6  A    between atoms: C12_17  and  O2_18 
ROOT
HETATM    1  C6  UNL     1      22.760   1.513  52.040  1.00  0.00     0.137 A 
HETATM    2  N2  UNL     1      22.264   2.759  51.909  1.00  0.00    -0.224 NA
HETATM    3  C7  UNL     1      22.903   3.846  52.375  1.00  0.00     0.235 A 
HETATM    4  N3  UNL     1      24.107   3.745  53.015  1.00  0.00    -0.241 NA
HETATM    5  C8  UNL     1      24.679   2.538  53.193  1.00  0.00     0.075 A 
HETATM    6  C9  UNL     1      25.868   2.372  53.828  1.00  0.00     0.072 A 
HETATM    7  C10 UNL     1      26.455   1.142  54.020  1.00  0.00     0.103 A 
HETATM    8  C12 UNL     1      25.761   0.023  53.523  1.00  0.00     0.102 A 
HETATM    9  C14 UNL     1      24.548   0.230  52.880  1.00  0.00     0.057 A 
HETATM   10  C15 UNL     1      23.972   1.469  52.692  1.00  0.00     0.041 A 
ENDROOT
BRANCH   1  11
HETATM   11  N1  UNL     1      22.061   0.412  51.492  1.00  0.00    -0.369 N 
HETATM   12  H9  UNL     1      22.507  -0.501  51.270  1.00  0.00     0.161 HD
BRANCH  11  13
HETATM   13  C5  UNL     1      20.624   0.549  51.216  1.00  0.00     0.167 C 
BRANCH  13  14
HETATM   14  C4  UNL     1      19.892   0.069  52.386  1.00  0.00     0.002 C 
HETATM   15  C3  UNL     1      20.162  -0.209  53.683  1.00  0.00    -0.011 C 
HETATM   16 BR1  UNL     1      18.096  -0.156  51.683  1.00  0.00    -0.054 Br
BRANCH  15  17
HETATM   17  C2  UNL     1      21.149  -0.270  54.772  1.00  0.00     0.024 C 
HETATM   18  C1  UNL     1      21.987  -1.532  54.719  1.00  0.00     0.009 C 
ENDBRANCH  15  17
ENDBRANCH  13  14
ENDBRANCH  11  13
ENDBRANCH   1  11
BRANCH   8  19
HETATM   19  O2  UNL     1      26.369  -1.201  53.728  1.00  0.00    -0.353 OA
HETATM   20  C13 UNL     1      26.924  -1.896  52.651  1.00  0.00     0.210 C 
ENDBRANCH   8  19
BRANCH   7  21
HETATM   21  O1  UNL     1      27.646   0.926  54.648  1.00  0.00    -0.353 OA
HETATM   22  C11 UNL     1      28.910   1.247  54.149  1.00  0.00     0.210 C 
ENDBRANCH   7  21
TORSDOF 6
ENDMDL
MODEL 3
REMARK VINA RESULT:      -6.7      3.540      6.646
REMARK  6 active torsions:
REMARK  status: ('A' for Active; 'I' for Inactive)
REMARK    1  A    between atoms: C2_2  and  C3_3 
REMARK    2  A    between atoms: C4_4  and  C5_6 
REMARK    3  A    between atoms: C5_6  and  N1_7 
REMARK    4  A    between atoms: N1_7  and  C6_8 
REMARK    5  A    between atoms: C10_14  and  O1_15 
REMARK    6  A    between atoms: C12_17  and  O2_18 
ROOT
HETATM    1  C6  UNL     1      24.654  -0.449  53.697  1.00  0.00     0.137 A 
HETATM    2  N2  UNL     1      25.191  -0.940  54.831  1.00  0.00    -0.224 NA
HETATM    3  C7  UNL     1      24.441  -1.426  55.835  1.00  0.00     0.235 A 
HETATM    4  N3  UNL     1      23.077  -1.450  55.760  1.00  0.00    -0.241 NA
HETATM    5  C8  UNL     1      22.452  -0.979  54.662  1.00  0.00     0.075 A 
HETATM    6  C9  UNL     1      21.100  -0.968  54.531  1.00  0.00     0.072 A 
HETATM    7  C10 UNL     1      20.454  -0.481  53.417  1.00  0.00     0.103 A 
HETATM    8  C12 UNL     1      21.266   0.023  52.384  1.00  0.00     0.102 A 
HETATM    9  C14 UNL     1      22.644  -0.004  52.553  1.00  0.00     0.057 A 
HETATM   10  C15 UNL     1      23.278  -0.496  53.673  1.00  0.00     0.041 A 
ENDROOT
BRANCH   1  11
HETATM   11  N1  UNL     1      25.496   0.011  52.657  1.00  0.00    -0.369 N 
HETATM   12  H9  UNL     1      25.165   0.200  51.689  1.00  0.00     0.161 HD
BRANCH  11  13
HETATM   13  C5  UNL     1      26.919   0.240  52.943  1.00  0.00     0.167 C 
BRANCH  13  14
HETATM   14  C4  UNL     1      27.244   1.609  52.550  1.00  0.00     0.002 C 
HETATM   15  C3  UNL     1      26.829   2.502  51.622  1.00  0.00    -0.011 C 
HETATM   16 BR1  UNL     1      28.643   2.078  53.813  1.00  0.00    -0.054 Br
BRANCH  15  17
HETATM   17  C2  UNL     1      25.940   2.813  50.491  1.00  0.00     0.024 C 
HETATM   18  C1  UNL     1      26.615   3.686  49.451  1.00  0.00     0.009 C 
ENDBRANCH  15  17
ENDBRANCH  13  14
ENDBRANCH  11  13
ENDBRANCH   1  11
BRANCH   8  19
HETATM   19  O2  UNL     1      20.596   0.506  51.275  1.00  0.00    -0.353 OA
HETATM   20  C13 UNL     1      21.313   0.959  50.166  1.00  0.00     0.210 C 
ENDBRANCH   8  19
BRANCH   7  21
HETATM   21  O1  UNL     1      19.103  -0.451  53.240  1.00  0.00    -0.353 OA
HETATM   22  C11 UNL     1      18.228  -1.528  53.397  1.00  0.00     0.210 C 
ENDBRANCH   7  21
TORSDOF 6
ENDMDL
MODEL 4
REMARK VINA RESULT:      -6.7      1.645      4.065
REMARK  6 active torsions:
REMARK  status: ('A' for Active; 'I' for Inactive)
REMARK    1  A    between atoms: C2_2  and  C3_3 
REMARK    2  A    between atoms: C4_4  and  C5_6 
REMARK    3  A    between atoms: C5_6  and  N1_7 
REMARK    4  A    between atoms: N1_7  and  C6_8 
REMARK    5  A    between atoms: C10_14  and  O1_15 
REMARK    6  A    between atoms: C12_17  and  O2_18 
ROOT
HETATM    1  C6  UNL     1      23.713   2.075  52.633  1.00  0.00     0.137 A 
HETATM    2  N2  UNL     1      22.500   1.513  52.807  1.00  0.00    -0.224 NA
HETATM    3  C7  UNL     1      22.344   0.253  53.250  1.00  0.00     0.235 A 
HETATM    4  N3  UNL     1      23.418  -0.536  53.551  1.00  0.00    -0.241 NA
HETATM    5  C8  UNL     1      24.670  -0.057  53.407  1.00  0.00     0.075 A 
HETATM    6  C9  UNL     1      25.777  -0.795  53.682  1.00  0.00     0.072 A 
HETATM    7  C10 UNL     1      27.059  -0.316  53.529  1.00  0.00     0.103 A 
HETATM    8  C12 UNL     1      27.191   1.005  53.062  1.00  0.00     0.102 A 
HETATM    9  C14 UNL     1      26.037   1.729  52.791  1.00  0.00     0.057 A 
HETATM   10  C15 UNL     1      24.759   1.237  52.950  1.00  0.00     0.041 A 
ENDROOT
BRANCH   1  11
HETATM   11  N1  UNL     1      23.814   3.419  52.204  1.00  0.00    -0.369 N 
HETATM   12  H9  UNL     1      24.354   4.147  52.714  1.00  0.00     0.161 HD
BRANCH  11  13
HETATM   13  C5  UNL     1      23.124   3.826  50.971  1.00  0.00     0.167 C 
BRANCH  13  14
HETATM   14  C4  UNL     1      23.891   3.317  49.837  1.00  0.00     0.002 C 
HETATM   15  C3  UNL     1      25.182   3.309  49.432  1.00  0.00    -0.011 C 
HETATM   16 BR1  UNL     1      22.516   2.464  48.762  1.00  0.00    -0.054 Br
BRANCH  15  17
HETATM   17  C2  UNL     1      26.578   3.698  49.688  1.00  0.00     0.024 C 
HETATM   18  C1  UNL     1      26.990   4.920  48.891  1.00  0.00     0.009 C 
ENDBRANCH  15  17
ENDBRANCH  13  14
ENDBRANCH  11  13
ENDBRANCH   1  11
BRANCH   8  19
HETATM   19  O2  UNL     1      28.487   1.464  52.916  1.00  0.00    -0.353 OA
HETATM   20  C13 UNL     1      28.973   2.466  53.759  1.00  0.00     0.210 C 
ENDBRANCH   8  19
BRANCH   7  21
HETATM   21  O1  UNL     1      28.198  -1.016  53.793  1.00  0.00    -0.353 OA
HETATM   22  C11 UNL     1      28.670  -2.121  53.080  1.00  0.00     0.210 C 
ENDBRANCH   7  21
TORSDOF 6
ENDMDL
MODEL 5
REMARK VINA RESULT:      -6.7      2.674      5.652
REMARK  6 active torsions:
REMARK  status: ('A' for Active; 'I' for Inactive)
REMARK    1  A    between atoms: C2_2  and  C3_3 
REMARK    2  A    between atoms: C4_4  and  C5_6 
REMARK    3  A    between atoms: C5_6  and  N1_7 
REMARK    4  A    between atoms: N1_7  and  C6_8 
REMARK    5  A    between atoms: C10_14  and  O1_15 
REMARK    6  A    between atoms: C12_17  and  O2_18 
ROOT
HETATM    1  C6  UNL     1      26.596   2.335  52.066  1.00  0.00     0.137 A 
HETATM    2  N2  UNL     1      27.846   2.053  52.485  1.00  0.00    -0.224 NA
HETATM    3  C7  UNL     1      28.133   0.965  53.221  1.00  0.00     0.235 A 
HETATM    4  N3  UNL     1      27.162   0.076  53.589  1.00  0.00    -0.241 NA
HETATM    5  C8  UNL     1      25.884   0.278  53.214  1.00  0.00     0.075 A 
HETATM    6  C9  UNL     1      24.874  -0.565  53.555  1.00  0.00     0.072 A 
HETATM    7  C10 UNL     1      23.564  -0.361  53.183  1.00  0.00     0.103 A 
HETATM    8  C12 UNL     1      23.294   0.787  52.415  1.00  0.00     0.102 A 
HETATM    9  C14 UNL     1      24.350   1.626  52.087  1.00  0.00     0.057 A 
HETATM   10  C15 UNL     1      25.659   1.409  52.464  1.00  0.00     0.041 A 
ENDROOT
BRANCH   1  11
HETATM   11  N1  UNL     1      26.362   3.473  51.258  1.00  0.00    -0.369 N 
HETATM   12  H9  UNL     1      25.996   4.375  51.626  1.00  0.00     0.161 HD
BRANCH  11  13
HETATM   13  C5  UNL     1      26.645   3.394  49.818  1.00  0.00     0.167 C 
BRANCH  13  14
HETATM   14  C4  UNL     1      26.213   4.646  49.204  1.00  0.00     0.002 C 
HETATM   15  C3  UNL     1      26.795   5.728  48.636  1.00  0.00    -0.011 C 
HETATM   16 BR1  UNL     1      24.279   4.520  49.329  1.00  0.00    -0.054 Br
BRANCH  15  17
HETATM   17  C2  UNL     1      28.030   6.426  48.244  1.00  0.00     0.024 C 
HETATM   18  C1  UNL     1      29.222   5.491  48.173  1.00  0.00     0.009 C 
ENDBRANCH  15  17
ENDBRANCH  13  14
ENDBRANCH  11  13
ENDBRANCH   1  11
BRANCH   8  19
HETATM   19  O2  UNL     1      21.972   0.971  52.054  1.00  0.00    -0.353 OA
HETATM   20  C13 UNL     1      21.331   2.179  52.339  1.00  0.00     0.210 C 
ENDBRANCH   8  19
BRANCH   7  21
HETATM   21  O1  UNL     1      22.519  -1.178  53.499  1.00  0.00    -0.353 OA
HETATM   22  C11 UNL     1      21.908  -1.289  54.750  1.00  0.00     0.210 C 
ENDBRANCH   7  21
TORSDOF 6
ENDMDL
MODEL 6
REMARK VINA RESULT:      -6.5      3.275      6.563
REMARK  6 active torsions:
REMARK  status: ('A' for Active; 'I' for Inactive)
REMARK    1  A    between atoms: C2_2  and  C3_3 
REMARK    2  A    between atoms: C4_4  and  C5_6 
REMARK    3  A    between atoms: C5_6  and  N1_7 
REMARK    4  A    between atoms: N1_7  and  C6_8 
REMARK    5  A    between atoms: C10_14  and  O1_15 
REMARK    6  A    between atoms: C12_17  and  O2_18 
ROOT
HETATM    1  C6  UNL     1      24.363  -0.195  53.693  1.00  0.00     0.137 A 
HETATM    2  N2  UNL     1      24.946  -0.749  54.774  1.00  0.00    -0.224 NA
HETATM    3  C7  UNL     1      24.252  -1.436  55.698  1.00  0.00     0.235 A 
HETATM    4  N3  UNL     1      22.901  -1.613  55.589  1.00  0.00    -0.241 NA
HETATM    5  C8  UNL     1      22.233  -1.094  54.540  1.00  0.00     0.075 A 
HETATM    6  C9  UNL     1      20.891  -1.228  54.380  1.00  0.00     0.072 A 
HETATM    7  C10 UNL     1      20.201  -0.693  53.315  1.00  0.00     0.103 A 
HETATM    8  C12 UNL     1      20.955   0.022  52.366  1.00  0.00     0.102 A 
HETATM    9  C14 UNL     1      22.324   0.140  52.562  1.00  0.00     0.057 A 
HETATM   10  C15 UNL     1      23.003  -0.402  53.633  1.00  0.00     0.041 A 
ENDROOT
BRANCH   1  11
HETATM   11  N1  UNL     1      25.152   0.482  52.733  1.00  0.00    -0.369 N 
HETATM   12  H9  UNL     1      25.533   0.029  51.878  1.00  0.00     0.161 HD
BRANCH  11  13
HETATM   13  C5  UNL     1      25.461   1.904  52.941  1.00  0.00     0.167 C 
BRANCH  13  14
HETATM   14  C4  UNL     1      26.819   2.145  52.463  1.00  0.00     0.002 C 
HETATM   15  C3  UNL     1      28.081   1.973  52.922  1.00  0.00    -0.011 C 
HETATM   16 BR1  UNL     1      26.506   2.900  50.701  1.00  0.00    -0.054 Br
BRANCH  15  17
HETATM   17  C2  UNL     1      28.970   1.524  54.005  1.00  0.00     0.024 C 
HETATM   18  C1  UNL     1      28.440   0.292  54.712  1.00  0.00     0.009 C 
ENDBRANCH  15  17
ENDBRANCH  13  14
ENDBRANCH  11  13
ENDBRANCH   1  11
BRANCH   8  19
HETATM   19  O2  UNL     1      20.241   0.550  51.307  1.00  0.00    -0.353 OA
HETATM   20  C13 UNL     1      20.914   1.108  50.218  1.00  0.00     0.210 C 
ENDBRANCH   8  19
BRANCH   7  21
HETATM   21  O1  UNL     1      18.858  -0.804  53.112  1.00  0.00    -0.353 OA
HETATM   22  C11 UNL     1      18.044  -1.858  53.535  1.00  0.00     0.210 C 
ENDBRANCH   7  21
TORSDOF 6
ENDMDL
MODEL 7
REMARK VINA RESULT:      -6.3      2.614      5.519
REMARK  6 active torsions:
REMARK  status: ('A' for Active; 'I' for Inactive)
REMARK    1  A    between atoms: C2_2  and  C3_3 
REMARK    2  A    between atoms: C4_4  and  C5_6 
REMARK    3  A    between atoms: C5_6  and  N1_7 
REMARK    4  A    between atoms: N1_7  and  C6_8 
REMARK    5  A    between atoms: C10_14  and  O1_15 
REMARK    6  A    between atoms: C12_17  and  O2_18 
ROOT
HETATM    1  C6  UNL     1      24.867   2.880  50.977  1.00  0.00     0.137 A 
HETATM    2  N2  UNL     1      23.706   2.760  50.303  1.00  0.00    -0.224 NA
HETATM    3  C7  UNL     1      22.779   1.839  50.619  1.00  0.00     0.235 A 
HETATM    4  N3  UNL     1      22.965   0.964  51.652  1.00  0.00    -0.241 NA
HETATM    5  C8  UNL     1      24.097   1.011  52.382  1.00  0.00     0.075 A 
HETATM    6  C9  UNL     1      24.343   0.165  53.416  1.00  0.00     0.072 A 
HETATM    7  C10 UNL     1      25.501   0.201  54.160  1.00  0.00     0.103 A 
HETATM    8  C12 UNL     1      26.453   1.174  53.805  1.00  0.00     0.102 A 
HETATM    9  C14 UNL     1      26.168   2.022  52.743  1.00  0.00     0.057 A 
HETATM   10  C15 UNL     1      25.004   1.976  52.006  1.00  0.00     0.041 A 
ENDROOT
BRANCH   1  11
HETATM   11  N1  UNL     1      25.787   3.896  50.625  1.00  0.00    -0.369 N 
HETATM   12  H9  UNL     1      25.887   4.789  51.148  1.00  0.00     0.161 HD
BRANCH  11  13
HETATM   13  C5  UNL     1      26.657   3.693  49.458  1.00  0.00     0.167 C 
BRANCH  13  14
HETATM   14  C4  UNL     1      26.983   5.006  48.904  1.00  0.00     0.002 C 
HETATM   15  C3  UNL     1      28.075   5.634  48.411  1.00  0.00    -0.011 C 
HETATM   16 BR1  UNL     1      25.271   5.920  48.980  1.00  0.00    -0.054 Br
BRANCH  15  17
HETATM   17  C2  UNL     1      29.510   5.584  48.086  1.00  0.00     0.024 C 
HETATM   18  C1  UNL     1      30.184   6.933  48.245  1.00  0.00     0.009 C 
ENDBRANCH  15  17
ENDBRANCH  13  14
ENDBRANCH  11  13
ENDBRANCH   1  11
BRANCH   8  19
HETATM   19  O2  UNL     1      27.607   1.192  54.566  1.00  0.00    -0.353 OA
HETATM   20  C13 UNL     1      28.828   0.824  53.996  1.00  0.00     0.210 C 
ENDBRANCH   8  19
BRANCH   7  21
HETATM   21  O1  UNL     1      25.792  -0.625  55.205  1.00  0.00    -0.353 OA
HETATM   22  C11 UNL     1      24.872  -1.171  56.104  1.00  0.00     0.210 C 
ENDBRANCH   7  21
TORSDOF 6
ENDMDL
MODEL 8
REMARK VINA RESULT:      -6.1      1.972      2.172
REMARK  6 active torsions:
REMARK  status: ('A' for Active; 'I' for Inactive)
REMARK    1  A    between atoms: C2_2  and  C3_3 
REMARK    2  A    between atoms: C4_4  and  C5_6 
REMARK    3  A    between atoms: C5_6  and  N1_7 
REMARK    4  A    between atoms: N1_7  and  C6_8 
REMARK    5  A    between atoms: C10_14  and  O1_15 
REMARK    6  A    between atoms: C12_17  and  O2_18 
ROOT
HETATM    1  C6  UNL     1      23.720   1.569  51.415  1.00  0.00     0.137 A 
HETATM    2  N2  UNL     1      23.960   2.546  50.518  1.00  0.00    -0.224 NA
HETATM    3  C7  UNL     1      25.172   3.107  50.367  1.00  0.00     0.235 A 
HETATM    4  N3  UNL     1      26.240   2.714  51.124  1.00  0.00    -0.241 NA
HETATM    5  C8  UNL     1      26.092   1.743  52.047  1.00  0.00     0.075 A 
HETATM    6  C9  UNL     1      27.113   1.315  52.836  1.00  0.00     0.072 A 
HETATM    7  C10 UNL     1      26.968   0.330  53.787  1.00  0.00     0.103 A 
HETATM    8  C12 UNL     1      25.687  -0.238  53.922  1.00  0.00     0.102 A 
HETATM    9  C14 UNL     1      24.669   0.225  53.101  1.00  0.00     0.057 A 
HETATM   10  C15 UNL     1      24.827   1.212  52.151  1.00  0.00     0.041 A 
ENDROOT
BRANCH   1  11
HETATM   11  N1  UNL     1      22.433   0.987  51.499  1.00  0.00    -0.369 N 
HETATM   12  H9  UNL     1      22.167   0.105  51.018  1.00  0.00     0.161 HD
BRANCH  11  13
HETATM   13  C5  UNL     1      21.403   1.654  52.308  1.00  0.00     0.167 C 
BRANCH  13  14
HETATM   14  C4  UNL     1      20.415   0.651  52.698  1.00  0.00     0.002 C 
HETATM   15  C3  UNL     1      19.288   0.112  52.180  1.00  0.00    -0.011 C 
HETATM   16 BR1  UNL     1      21.085   0.065  54.424  1.00  0.00    -0.054 Br
BRANCH  15  17
HETATM   17  C2  UNL     1      18.313   0.063  51.079  1.00  0.00     0.024 C 
HETATM   18  C1  UNL     1      17.620   1.395  50.864  1.00  0.00     0.009 C 
ENDBRANCH  15  17
ENDBRANCH  13  14
ENDBRANCH  11  13
ENDBRANCH   1  11
BRANCH   8  19
HETATM   19  O2  UNL     1      25.567  -1.224  54.883  1.00  0.00    -0.353 OA
HETATM   20  C13 UNL     1      24.433  -1.273  55.698  1.00  0.00     0.210 C 
ENDBRANCH   8  19
BRANCH   7  21
HETATM   21  O1  UNL     1      27.961  -0.134  54.598  1.00  0.00    -0.353 OA
HETATM   22  C11 UNL     1      29.240  -0.524  54.194  1.00  0.00     0.210 C 
ENDBRANCH   7  21
TORSDOF 6
ENDMDL
MODEL 9
REMARK VINA RESULT:      -6.1      2.327      2.875
REMARK  6 active torsions:
REMARK  status: ('A' for Active; 'I' for Inactive)
REMARK    1  A    between atoms: C2_2  and  C3_3 
REMARK    2  A    between atoms: C4_4  and  C5_6 
REMARK    3  A    between atoms: C5_6  and  N1_7 
REMARK    4  A    between atoms: N1_7  and  C6_8 
REMARK    5  A    between atoms: C10_14  and  O1_15 
REMARK    6  A    between atoms: C12_17  and  O2_18 
ROOT
HETATM    1  C6  UNL     1      22.786   1.685  51.198  1.00  0.00     0.137 A 
HETATM    2  N2  UNL     1      22.362   2.603  50.307  1.00  0.00    -0.224 NA
HETATM    3  C7  UNL     1      23.188   3.510  49.756  1.00  0.00     0.235 A 
HETATM    4  N3  UNL     1      24.517   3.550  50.072  1.00  0.00    -0.241 NA
HETATM    5  C8  UNL     1      25.029   2.670  50.954  1.00  0.00     0.075 A 
HETATM    6  C9  UNL     1      26.338   2.664  51.315  1.00  0.00     0.072 A 
HETATM    7  C10 UNL     1      26.867   1.774  52.222  1.00  0.00     0.103 A 
HETATM    8  C12 UNL     1      25.978   0.838  52.784  1.00  0.00     0.102 A 
HETATM    9  C14 UNL     1      24.647   0.874  52.393  1.00  0.00     0.057 A 
HETATM   10  C15 UNL     1      24.130   1.771  51.481  1.00  0.00     0.041 A 
ENDROOT
BRANCH   1  11
HETATM   11  N1  UNL     1      21.878   0.729  51.714  1.00  0.00    -0.369 N 
HETATM   12  H9  UNL     1      21.781  -0.235  51.336  1.00  0.00     0.161 HD
BRANCH  11  13
HETATM   13  C5  UNL     1      21.019   1.104  52.846  1.00  0.00     0.167 C 
BRANCH  13  14
HETATM   14  C4  UNL     1      20.468  -0.121  53.419  1.00  0.00     0.002 C 
HETATM   15  C3  UNL     1      19.323  -0.837  53.323  1.00  0.00    -0.011 C 
HETATM   16 BR1  UNL     1      21.908  -0.718  54.577  1.00  0.00    -0.054 Br
BRANCH  15  17
HETATM   17  C2  UNL     1      17.983  -0.985  52.733  1.00  0.00     0.024 C 
HETATM   18  C1  UNL     1      17.854  -0.259  51.408  1.00  0.00     0.009 C 
ENDBRANCH  15  17
ENDBRANCH  13  14
ENDBRANCH  11  13
ENDBRANCH   1  11
BRANCH   8  19
HETATM   19  O2  UNL     1      26.531  -0.045  53.692  1.00  0.00    -0.353 OA
HETATM   20  C13 UNL     1      26.037  -0.108  54.997  1.00  0.00     0.210 C 
ENDBRANCH   8  19
BRANCH   7  21
HETATM   21  O1  UNL     1      28.172   1.729  52.613  1.00  0.00    -0.353 OA
HETATM   22  C11 UNL     1      28.758   2.499  53.621  1.00  0.00     0.210 C 
ENDBRANCH   7  21
TORSDOF 6
ENDMDL
