MODEL 1
REMARK VINA RESULT:      -8.0      0.000      0.000
REMARK  2 active torsions:
REMARK  status: ('A' for Active; 'I' for Inactive)
REMARK    1  A    between atoms: N2_5  and  C4_6 
REMARK    2  A    between atoms: C8_10  and  C9_11 
ROOT
HETATM    1  C1  UNL     1      21.070  -1.562  54.223  1.00  0.00     0.066 C 
HETATM    2  C2  UNL     1      21.334  -0.241  53.609  1.00  0.00     0.015 C 
HETATM    3  N1  UNL     1      22.501   0.270  53.454  1.00  0.00    -0.277 NA
HETATM    4  C3  UNL     1      23.756  -0.329  53.841  1.00  0.00     0.292 C 
HETATM    5  N2  UNL     1      24.745   0.272  52.931  1.00  0.00    -0.283 N 
HETATM    6  N3  UNL     1      24.483   1.220  51.911  1.00  0.00    -0.175 NA
HETATM    7  S1  UNL     1      23.954   2.759  52.508  1.00  0.00    -0.059 SA
HETATM    8  C11 UNL     1      22.938   3.568  51.244  1.00  0.00     0.139 C 
HETATM    9  C12 UNL     1      21.698   2.735  51.096  1.00  0.00     0.100 C 
HETATM   10  N4  UNL     1      21.187   2.532  52.261  1.00  0.00    -0.280 NA
HETATM   11  C13 UNL     1      20.011   1.786  52.527  1.00  0.00     0.100 C 
HETATM   12  C14 UNL     1      20.917   0.979  52.988  1.00  0.00     0.088 C 
HETATM   13  H11 UNL     1      23.972   0.824  51.112  1.00  0.00     0.161 HD
ENDROOT
BRANCH   5  14
HETATM   14  C4  UNL     1      26.094  -0.131  53.083  1.00  0.00     0.049 A 
HETATM   15  C5  UNL     1      26.580  -1.377  52.705  1.00  0.00     0.031 A 
HETATM   16  C6  UNL     1      27.898  -1.757  52.860  1.00  0.00     0.003 A 
HETATM   17  C7  UNL     1      28.809  -0.883  53.413  1.00  0.00     0.014 A 
HETATM   18  C8  UNL     1      28.384   0.366  53.806  1.00  0.00     0.004 A 
HETATM   19  C10 UNL     1      27.055   0.694  53.630  1.00  0.00     0.045 A 
BRANCH  18  20
HETATM   20  C9  UNL     1      29.363   1.264  54.385  1.00  0.00     0.270 C 
HETATM   21  O1  UNL     1      29.110   2.478  54.442  1.00  0.00    -0.301 OA
ENDBRANCH  18  20
ENDBRANCH   5  14
TORSDOF 2
ENDMDL
MODEL 2
REMARK VINA RESULT:      -7.8      2.967      4.763
REMARK  2 active torsions:
REMARK  status: ('A' for Active; 'I' for Inactive)
REMARK    1  A    between atoms: N2_5  and  C4_6 
REMARK    2  A    between atoms: C8_10  and  C9_11 
ROOT
HETATM    1  C1  UNL     1      27.305   5.161  48.577  1.00  0.00     0.066 C 
HETATM    2  C2  UNL     1      26.026   4.906  49.278  1.00  0.00     0.015 C 
HETATM    3  N1  UNL     1      25.827   3.945  50.104  1.00  0.00    -0.277 NA
HETATM    4  C3  UNL     1      26.789   2.945  50.503  1.00  0.00     0.292 C 
HETATM    5  N2  UNL     1      26.345   2.521  51.840  1.00  0.00    -0.283 N 
HETATM    6  N3  UNL     1      25.220   3.012  52.548  1.00  0.00    -0.175 NA
HETATM    7  S1  UNL     1      23.702   2.613  51.812  1.00  0.00    -0.059 SA
HETATM    8  C11 UNL     1      22.473   3.863  52.272  1.00  0.00     0.139 C 
HETATM    9  C12 UNL     1      22.914   5.150  51.637  1.00  0.00     0.100 C 
HETATM   10  N4  UNL     1      23.145   4.942  50.386  1.00  0.00    -0.280 NA
HETATM   11  C13 UNL     1      23.581   5.920  49.456  1.00  0.00     0.100 C 
HETATM   12  C14 UNL     1      24.661   5.208  49.582  1.00  0.00     0.088 C 
HETATM   13  H11 UNL     1      25.342   3.976  52.883  1.00  0.00     0.161 HD
ENDROOT
BRANCH   5  14
HETATM   14  C4  UNL     1      27.110   1.522  52.490  1.00  0.00     0.049 A 
HETATM   15  C5  UNL     1      28.183   1.791  53.333  1.00  0.00     0.031 A 
HETATM   16  C6  UNL     1      28.921   0.808  53.960  1.00  0.00     0.003 A 
HETATM   17  C7  UNL     1      28.608  -0.520  53.766  1.00  0.00     0.014 A 
HETATM   18  C8  UNL     1      27.555  -0.846  52.942  1.00  0.00     0.004 A 
HETATM   19  C10 UNL     1      26.851   0.176  52.339  1.00  0.00     0.045 A 
BRANCH  18  20
HETATM   20  C9  UNL     1      27.249  -2.250  52.756  1.00  0.00     0.270 C 
HETATM   21  O1  UNL     1      28.178  -3.074  52.747  1.00  0.00    -0.301 OA
ENDBRANCH  18  20
ENDBRANCH   5  14
TORSDOF 2
ENDMDL
MODEL 3
REMARK VINA RESULT:      -7.8      1.519      2.014
REMARK  2 active torsions:
REMARK  status: ('A' for Active; 'I' for Inactive)
REMARK    1  A    between atoms: N2_5  and  C4_6 
REMARK    2  A    between atoms: C8_10  and  C9_11 
ROOT
HETATM    1  C1  UNL     1      21.911  -1.659  54.270  1.00  0.00     0.066 C 
HETATM    2  C2  UNL     1      21.939  -0.480  53.375  1.00  0.00     0.015 C 
HETATM    3  N1  UNL     1      22.969   0.259  53.177  1.00  0.00    -0.277 NA
HETATM    4  C3  UNL     1      24.272   0.091  53.776  1.00  0.00     0.292 C 
HETATM    5  N2  UNL     1      25.199   0.707  52.814  1.00  0.00    -0.283 N 
HETATM    6  N3  UNL     1      24.853   1.315  51.581  1.00  0.00    -0.175 NA
HETATM    7  S1  UNL     1      23.919   2.765  51.756  1.00  0.00    -0.059 SA
HETATM    8  C11 UNL     1      22.906   3.000  50.273  1.00  0.00     0.139 C 
HETATM    9  C12 UNL     1      21.915   1.873  50.250  1.00  0.00     0.100 C 
HETATM   10  N4  UNL     1      21.327   1.807  51.395  1.00  0.00    -0.280 NA
HETATM   11  C13 UNL     1      20.328   0.867  51.756  1.00  0.00     0.100 C 
HETATM   12  C14 UNL     1      21.333   0.432  52.454  1.00  0.00     0.088 C 
HETATM   13  H11 UNL     1      24.546   0.641  50.869  1.00  0.00     0.161 HD
ENDROOT
BRANCH   5  14
HETATM   14  C4  UNL     1      26.577   0.697  53.145  1.00  0.00     0.049 A 
HETATM   15  C5  UNL     1      27.301   1.832  53.489  1.00  0.00     0.031 A 
HETATM   16  C6  UNL     1      28.644   1.807  53.809  1.00  0.00     0.003 A 
HETATM   17  C7  UNL     1      29.335   0.615  53.798  1.00  0.00     0.014 A 
HETATM   18  C8  UNL     1      28.668  -0.542  53.464  1.00  0.00     0.004 A 
HETATM   19  C10 UNL     1      27.326  -0.461  53.152  1.00  0.00     0.045 A 
BRANCH  18  20
HETATM   20  C9  UNL     1      29.420  -1.780  53.460  1.00  0.00     0.270 C 
HETATM   21  O1  UNL     1      28.808  -2.859  53.404  1.00  0.00    -0.301 OA
ENDBRANCH  18  20
ENDBRANCH   5  14
TORSDOF 2
ENDMDL
MODEL 4
REMARK VINA RESULT:      -7.7      2.995      4.886
REMARK  2 active torsions:
REMARK  status: ('A' for Active; 'I' for Inactive)
REMARK    1  A    between atoms: N2_5  and  C4_6 
REMARK    2  A    between atoms: C8_10  and  C9_11 
ROOT
HETATM    1  C1  UNL     1      27.840   5.483  48.382  1.00  0.00     0.066 C 
HETATM    2  C2  UNL     1      26.438   5.365  48.844  1.00  0.00     0.015 C 
HETATM    3  N1  UNL     1      25.992   4.415  49.582  1.00  0.00    -0.277 NA
HETATM    4  C3  UNL     1      26.752   3.300  50.094  1.00  0.00     0.292 C 
HETATM    5  N2  UNL     1      26.037   2.900  51.317  1.00  0.00    -0.283 N 
HETATM    6  N3  UNL     1      24.869   3.504  51.845  1.00  0.00    -0.175 NA
HETATM    7  S1  UNL     1      23.467   3.304  50.845  1.00  0.00    -0.059 SA
HETATM    8  C11 UNL     1      22.325   4.679  51.144  1.00  0.00     0.139 C 
HETATM    9  C12 UNL     1      23.011   5.919  50.648  1.00  0.00     0.100 C 
HETATM   10  N4  UNL     1      23.431   5.715  49.447  1.00  0.00    -0.280 NA
HETATM   11  C13 UNL     1      24.129   6.656  48.648  1.00  0.00     0.100 C 
HETATM   12  C14 UNL     1      25.083   5.819  48.925  1.00  0.00     0.088 C 
HETATM   13  H11 UNL     1      25.038   4.439  52.237  1.00  0.00     0.161 HD
ENDROOT
BRANCH   5  14
HETATM   14  C4  UNL     1      26.561   1.803  52.044  1.00  0.00     0.049 A 
HETATM   15  C5  UNL     1      26.084   0.502  51.940  1.00  0.00     0.031 A 
HETATM   16  C6  UNL     1      26.604  -0.557  52.655  1.00  0.00     0.003 A 
HETATM   17  C7  UNL     1      27.651  -0.355  53.527  1.00  0.00     0.014 A 
HETATM   18  C8  UNL     1      28.166   0.914  53.671  1.00  0.00     0.004 A 
HETATM   19  C10 UNL     1      27.608   1.938  52.933  1.00  0.00     0.045 A 
BRANCH  18  20
HETATM   20  C9  UNL     1      29.266   1.098  54.595  1.00  0.00     0.270 C 
HETATM   21  O1  UNL     1      29.524   2.240  55.009  1.00  0.00    -0.301 OA
ENDBRANCH  18  20
ENDBRANCH   5  14
TORSDOF 2
ENDMDL
MODEL 5
REMARK VINA RESULT:      -7.5      3.748      5.735
REMARK  2 active torsions:
REMARK  status: ('A' for Active; 'I' for Inactive)
REMARK    1  A    between atoms: N2_5  and  C4_6 
REMARK    2  A    between atoms: C8_10  and  C9_11 
ROOT
HETATM    1  C1  UNL     1      28.158   5.103  48.496  1.00  0.00     0.066 C 
HETATM    2  C2  UNL     1      26.771   5.408  48.913  1.00  0.00     0.015 C 
HETATM    3  N1  UNL     1      26.008   4.599  49.553  1.00  0.00    -0.277 NA
HETATM    4  C3  UNL     1      26.344   3.262  49.981  1.00  0.00     0.292 C 
HETATM    5  N2  UNL     1      25.478   3.021  51.146  1.00  0.00    -0.283 N 
HETATM    6  N3  UNL     1      24.539   3.927  51.699  1.00  0.00    -0.175 NA
HETATM    7  S1  UNL     1      23.200   4.269  50.653  1.00  0.00    -0.059 SA
HETATM    8  C11 UNL     1      22.544   5.911  51.047  1.00  0.00     0.139 C 
HETATM    9  C12 UNL     1      23.615   6.898  50.681  1.00  0.00     0.100 C 
HETATM   10  N4  UNL     1      24.008   6.663  49.476  1.00  0.00    -0.280 NA
HETATM   11  C13 UNL     1      25.009   7.386  48.780  1.00  0.00     0.100 C 
HETATM   12  C14 UNL     1      25.630   6.268  49.003  1.00  0.00     0.088 C 
HETATM   13  H11 UNL     1      24.978   4.724  52.177  1.00  0.00     0.161 HD
ENDROOT
BRANCH   5  14
HETATM   14  C4  UNL     1      25.587   1.761  51.784  1.00  0.00     0.049 A 
HETATM   15  C5  UNL     1      26.742   0.987  51.784  1.00  0.00     0.031 A 
HETATM   16  C6  UNL     1      26.833  -0.239  52.410  1.00  0.00     0.003 A 
HETATM   17  C7  UNL     1      25.745  -0.756  53.080  1.00  0.00     0.014 A 
HETATM   18  C8  UNL     1      24.574  -0.033  53.113  1.00  0.00     0.004 A 
HETATM   19  C10 UNL     1      24.536   1.187  52.470  1.00  0.00     0.045 A 
BRANCH  18  20
HETATM   20  C9  UNL     1      23.447  -0.601  53.823  1.00  0.00     0.270 C 
HETATM   21  O1  UNL     1      22.541  -1.153  53.177  1.00  0.00    -0.301 OA
ENDBRANCH  18  20
ENDBRANCH   5  14
TORSDOF 2
ENDMDL
MODEL 6
REMARK VINA RESULT:      -7.5      3.132      5.486
REMARK  2 active torsions:
REMARK  status: ('A' for Active; 'I' for Inactive)
REMARK    1  A    between atoms: N2_5  and  C4_6 
REMARK    2  A    between atoms: C8_10  and  C9_11 
ROOT
HETATM    1  C1  UNL     1      21.599   0.382  52.928  1.00  0.00     0.066 C 
HETATM    2  C2  UNL     1      23.034   0.190  53.240  1.00  0.00     0.015 C 
HETATM    3  N1  UNL     1      23.998   0.771  52.623  1.00  0.00    -0.277 NA
HETATM    4  C3  UNL     1      23.875   1.702  51.527  1.00  0.00     0.292 C 
HETATM    5  N2  UNL     1      25.092   2.525  51.607  1.00  0.00    -0.283 N 
HETATM    6  N3  UNL     1      26.129   2.404  52.565  1.00  0.00    -0.175 NA
HETATM    7  S1  UNL     1      27.022   0.923  52.444  1.00  0.00    -0.059 SA
HETATM    8  C11 UNL     1      27.712   0.511  54.068  1.00  0.00     0.139 C 
HETATM    9  C12 UNL     1      26.546   0.216  54.965  1.00  0.00     0.100 C 
HETATM   10  N4  UNL     1      25.777  -0.641  54.386  1.00  0.00    -0.280 NA
HETATM   11  C13 UNL     1      24.573  -1.164  54.923  1.00  0.00     0.100 C 
HETATM   12  C14 UNL     1      24.106  -0.392  53.989  1.00  0.00     0.088 C 
HETATM   13  H11 UNL     1      25.849   2.708  53.506  1.00  0.00     0.161 HD
ENDROOT
BRANCH   5  14
HETATM   14  C4  UNL     1      25.252   3.541  50.633  1.00  0.00     0.049 A 
HETATM   15  C5  UNL     1      24.215   4.342  50.168  1.00  0.00     0.031 A 
HETATM   16  C6  UNL     1      24.386   5.329  49.219  1.00  0.00     0.003 A 
HETATM   17  C7  UNL     1      25.632   5.562  48.681  1.00  0.00     0.014 A 
HETATM   18  C8  UNL     1      26.697   4.800  49.105  1.00  0.00     0.004 A 
HETATM   19  C10 UNL     1      26.472   3.826  50.055  1.00  0.00     0.045 A 
BRANCH  18  20
HETATM   20  C9  UNL     1      27.997   5.067  48.521  1.00  0.00     0.270 C 
HETATM   21  O1  UNL     1      28.271   6.222  48.161  1.00  0.00    -0.301 OA
ENDBRANCH  18  20
ENDBRANCH   5  14
TORSDOF 2
ENDMDL
MODEL 7
REMARK VINA RESULT:      -7.3      3.771      5.559
REMARK  2 active torsions:
REMARK  status: ('A' for Active; 'I' for Inactive)
REMARK    1  A    between atoms: N2_5  and  C4_6 
REMARK    2  A    between atoms: C8_10  and  C9_11 
ROOT
HETATM    1  C1  UNL     1      26.797  -0.113  52.054  1.00  0.00     0.066 C 
HETATM    2  C2  UNL     1      25.503   0.579  52.251  1.00  0.00     0.015 C 
HETATM    3  N1  UNL     1      25.251   1.776  51.865  1.00  0.00    -0.277 NA
HETATM    4  C3  UNL     1      26.161   2.664  51.181  1.00  0.00     0.292 C 
HETATM    5  N2  UNL     1      25.285   3.574  50.425  1.00  0.00    -0.283 N 
HETATM    6  N3  UNL     1      23.869   3.549  50.396  1.00  0.00    -0.175 NA
HETATM    7  S1  UNL     1      23.132   3.947  51.914  1.00  0.00    -0.059 SA
HETATM    8  C11 UNL     1      21.505   3.155  52.009  1.00  0.00     0.139 C 
HETATM    9  C12 UNL     1      21.752   1.674  52.046  1.00  0.00     0.100 C 
HETATM   10  N4  UNL     1      22.619   1.416  52.965  1.00  0.00    -0.280 NA
HETATM   11  C13 UNL     1      23.108   0.128  53.298  1.00  0.00     0.100 C 
HETATM   12  C14 UNL     1      24.151   0.639  52.717  1.00  0.00     0.088 C 
HETATM   13  H11 UNL     1      23.488   2.742  49.886  1.00  0.00     0.161 HD
ENDROOT
BRANCH   5  14
HETATM   14  C4  UNL     1      25.912   4.579  49.647  1.00  0.00     0.049 A 
HETATM   15  C5  UNL     1      25.279   5.742  49.225  1.00  0.00     0.031 A 
HETATM   16  C6  UNL     1      25.902   6.713  48.467  1.00  0.00     0.003 A 
HETATM   17  C7  UNL     1      27.218   6.556  48.089  1.00  0.00     0.014 A 
HETATM   18  C8  UNL     1      27.895   5.422  48.479  1.00  0.00     0.004 A 
HETATM   19  C10 UNL     1      27.225   4.483  49.236  1.00  0.00     0.045 A 
BRANCH  18  20
HETATM   20  C9  UNL     1      29.278   5.283  48.067  1.00  0.00     0.270 C 
HETATM   21  O1  UNL     1      30.177   5.438  48.908  1.00  0.00    -0.301 OA
ENDBRANCH  18  20
ENDBRANCH   5  14
TORSDOF 2
ENDMDL
MODEL 8
REMARK VINA RESULT:      -7.2      3.477      5.549
REMARK  2 active torsions:
REMARK  status: ('A' for Active; 'I' for Inactive)
REMARK    1  A    between atoms: N2_5  and  C4_6 
REMARK    2  A    between atoms: C8_10  and  C9_11 
ROOT
HETATM    1  C1  UNL     1      27.117  -0.432  52.633  1.00  0.00     0.066 C 
HETATM    2  C2  UNL     1      25.738   0.102  52.710  1.00  0.00     0.015 C 
HETATM    3  N1  UNL     1      25.379   1.258  52.282  1.00  0.00    -0.277 NA
HETATM    4  C3  UNL     1      26.231   2.241  51.657  1.00  0.00     0.292 C 
HETATM    5  N2  UNL     1      25.320   3.033  50.815  1.00  0.00    -0.283 N 
HETATM    6  N3  UNL     1      23.924   2.838  50.671  1.00  0.00    -0.175 NA
HETATM    7  S1  UNL     1      23.021   3.159  52.116  1.00  0.00    -0.059 SA
HETATM    8  C11 UNL     1      21.497   2.179  52.093  1.00  0.00     0.139 C 
HETATM    9  C12 UNL     1      21.914   0.739  52.179  1.00  0.00     0.100 C 
HETATM   10  N4  UNL     1      22.726   0.596  53.170  1.00  0.00    -0.280 NA
HETATM   11  C13 UNL     1      23.335  -0.621  53.567  1.00  0.00     0.100 C 
HETATM   12  C14 UNL     1      24.355   0.005  53.063  1.00  0.00     0.088 C 
HETATM   13  H11 UNL     1      23.685   1.986  50.147  1.00  0.00     0.161 HD
ENDROOT
BRANCH   5  14
HETATM   14  C4  UNL     1      25.886   4.097  50.071  1.00  0.00     0.049 A 
HETATM   15  C5  UNL     1      27.015   3.971  49.270  1.00  0.00     0.031 A 
HETATM   16  C6  UNL     1      27.556   5.017  48.551  1.00  0.00     0.003 A 
HETATM   17  C7  UNL     1      26.975   6.266  48.603  1.00  0.00     0.014 A 
HETATM   18  C8  UNL     1      25.853   6.449  49.380  1.00  0.00     0.004 A 
HETATM   19  C10 UNL     1      25.354   5.370  50.080  1.00  0.00     0.045 A 
BRANCH  18  20
HETATM   20  C9  UNL     1      25.264   7.772  49.417  1.00  0.00     0.270 C 
HETATM   21  O1  UNL     1      24.714   8.160  50.460  1.00  0.00    -0.301 OA
ENDBRANCH  18  20
ENDBRANCH   5  14
TORSDOF 2
ENDMDL
MODEL 9
REMARK VINA RESULT:      -6.9      1.953      2.701
REMARK  2 active torsions:
REMARK  status: ('A' for Active; 'I' for Inactive)
REMARK    1  A    between atoms: N2_5  and  C4_6 
REMARK    2  A    between atoms: C8_10  and  C9_11 
ROOT
HETATM    1  C1  UNL     1      20.042   0.197  52.079  1.00  0.00     0.066 C 
HETATM    2  C2  UNL     1      20.554   1.583  51.990  1.00  0.00     0.015 C 
HETATM    3  N1  UNL     1      21.736   1.946  52.335  1.00  0.00    -0.277 NA
HETATM    4  C3  UNL     1      22.773   1.094  52.866  1.00  0.00     0.292 C 
HETATM    5  N2  UNL     1      24.027   1.770  52.500  1.00  0.00    -0.283 N 
HETATM    6  N3  UNL     1      24.150   2.985  51.780  1.00  0.00    -0.175 NA
HETATM    7  S1  UNL     1      23.541   4.366  52.633  1.00  0.00    -0.059 SA
HETATM    8  C11 UNL     1      23.018   5.620  51.434  1.00  0.00     0.139 C 
HETATM    9  C12 UNL     1      21.845   5.042  50.696  1.00  0.00     0.100 C 
HETATM   10  N4  UNL     1      20.984   4.608  51.550  1.00  0.00    -0.280 NA
HETATM   11  C13 UNL     1      19.746   3.993  51.234  1.00  0.00     0.100 C 
HETATM   12  C14 UNL     1      20.418   2.971  51.671  1.00  0.00     0.088 C 
HETATM   13  H11 UNL     1      23.896   2.895  50.788  1.00  0.00     0.161 HD
ENDROOT
BRANCH   5  14
HETATM   14  C4  UNL     1      25.237   1.154  52.903  1.00  0.00     0.049 A 
HETATM   15  C5  UNL     1      26.207   1.780  53.677  1.00  0.00     0.031 A 
HETATM   16  C6  UNL     1      27.382   1.167  54.063  1.00  0.00     0.003 A 
HETATM   17  C7  UNL     1      27.643  -0.131  53.680  1.00  0.00     0.014 A 
HETATM   18  C8  UNL     1      26.717  -0.800  52.912  1.00  0.00     0.004 A 
HETATM   19  C10 UNL     1      25.559  -0.141  52.553  1.00  0.00     0.045 A 
BRANCH  18  20
HETATM   20  C9  UNL     1      27.018  -2.163  52.524  1.00  0.00     0.270 C 
HETATM   21  O1  UNL     1      28.005  -2.729  53.020  1.00  0.00    -0.301 OA
ENDBRANCH  18  20
ENDBRANCH   5  14
TORSDOF 2
ENDMDL
