MODEL 1
REMARK VINA RESULT:      -7.8      0.000      0.000
REMARK  9 active torsions:
REMARK  status: ('A' for Active; 'I' for Inactive)
REMARK    1  A    between atoms: C2_2  and  C3_3 
REMARK    2  A    between atoms: C3_3  and  C4_4 
REMARK    3  A    between atoms: C4_4  and  C6_6 
REMARK    4  A    between atoms: C6_6  and  C7_7 
REMARK    5  A    between atoms: C7_7  and  N1_10 
REMARK    6  A    between atoms: N1_10  and  C10_11 
REMARK    7  A    between atoms: C12_13  and  N2_14 
REMARK    8  A    between atoms: N2_14  and  C13_15 
REMARK    9  A    between atoms: C19_23  and  N4_24 
ROOT
HETATM    1  C10 UNL     1      23.086   2.999  52.190  1.00  0.00     0.150 A 
HETATM    2  C11 UNL     1      23.824   1.982  52.749  1.00  0.00     0.102 A 
HETATM    3  C12 UNL     1      23.277   0.798  53.197  1.00  0.00     0.150 A 
HETATM    4  N3  UNL     1      21.958   0.753  53.025  1.00  0.00    -0.045 NA
HETATM    5  C19 UNL     1      21.171   1.671  52.501  1.00  0.00     0.724 A 
HETATM    6  N5  UNL     1      21.755   2.816  52.077  1.00  0.00    -0.045 NA
ENDROOT
BRANCH   1   7
HETATM    7  N1  UNL     1      23.717   4.197  51.749  1.00  0.00    -0.344 N 
HETATM    8  H12 UNL     1      23.874   4.747  52.634  1.00  0.00     0.167 HD
BRANCH   7   9
HETATM    9  C7  UNL     1      23.956   4.340  50.358  1.00  0.00     0.008 C 
HETATM   10  C8  UNL     1      23.563   5.445  49.757  1.00  0.00    -0.006 C 
HETATM   11  C9  UNL     1      23.691   5.833  48.344  1.00  0.00     0.038 C 
BRANCH   9  12
HETATM   12  C6  UNL     1      24.640   3.225  49.662  1.00  0.00     0.080 C 
BRANCH  12  13
HETATM   13  C4  UNL     1      26.124   3.271  49.885  1.00  0.00     0.044 C 
HETATM   14  C5  UNL     1      26.645   2.347  50.925  1.00  0.00     0.031 C 
BRANCH  13  15
HETATM   15  C3  UNL     1      26.948   4.063  49.224  1.00  0.00    -0.095 C 
BRANCH  15  16
HETATM   16  C2  UNL     1      27.475   5.085  48.616  1.00  0.00    -0.105 C 
HETATM   17  C1  UNL     1      28.062   6.202  48.236  1.00  0.00     0.106 C 
ENDBRANCH  15  16
ENDBRANCH  13  15
ENDBRANCH  12  13
ENDBRANCH   9  12
ENDBRANCH   7   9
ENDBRANCH   1   7
BRANCH   3  18
HETATM   18  N2  UNL     1      24.099  -0.201  53.760  1.00  0.00    -0.340 N 
HETATM   19  H14 UNL     1      23.599  -1.006  54.245  1.00  0.00     0.167 HD
BRANCH  18  20
HETATM   20  C13 UNL     1      25.502  -0.283  53.769  1.00  0.00     0.033 A 
HETATM   21  C14 UNL     1      26.202  -0.991  52.783  1.00  0.00     0.031 A 
HETATM   22  C15 UNL     1      27.568  -1.085  52.770  1.00  0.00     0.026 A 
HETATM   23  C16 UNL     1      28.330  -0.490  53.730  1.00  0.00     0.034 A 
HETATM   24 CL1  UNL     1      30.063  -0.667  53.628  1.00  0.00    -0.084 Cl
HETATM   25  C17 UNL     1      27.703   0.210  54.711  1.00  0.00     0.026 A 
HETATM   26  C18 UNL     1      26.325   0.295  54.709  1.00  0.00     0.031 A 
ENDBRANCH  18  20
ENDBRANCH   3  18
BRANCH   5  27
HETATM   27  N4  UNL     1      19.756   1.515  52.365  1.00  0.00    -0.231 N 
HETATM   28  H19 UNL     1      19.183   1.410  51.486  1.00  0.00     0.174 HD
HETATM   29  H20 UNL     1      18.991   1.467  53.070  1.00  0.00     0.174 HD
ENDBRANCH   5  27
TORSDOF 9
ENDMDL
MODEL 2
REMARK VINA RESULT:      -7.7      3.218      5.375
REMARK  9 active torsions:
REMARK  status: ('A' for Active; 'I' for Inactive)
REMARK    1  A    between atoms: C2_2  and  C3_3 
REMARK    2  A    between atoms: C3_3  and  C4_4 
REMARK    3  A    between atoms: C4_4  and  C6_6 
REMARK    4  A    between atoms: C6_6  and  C7_7 
REMARK    5  A    between atoms: C7_7  and  N1_10 
REMARK    6  A    between atoms: N1_10  and  C10_11 
REMARK    7  A    between atoms: C12_13  and  N2_14 
REMARK    8  A    between atoms: N2_14  and  C13_15 
REMARK    9  A    between atoms: C19_23  and  N4_24 
ROOT
HETATM    1  C10 UNL     1      26.715   1.903  51.481  1.00  0.00     0.150 A 
HETATM    2  C11 UNL     1      25.842   1.066  52.136  1.00  0.00     0.102 A 
HETATM    3  C12 UNL     1      26.000   0.671  53.447  1.00  0.00     0.150 A 
HETATM    4  N3  UNL     1      27.091   1.192  54.005  1.00  0.00    -0.045 NA
HETATM    5  C19 UNL     1      27.980   1.999  53.461  1.00  0.00     0.724 A 
HETATM    6  N5  UNL     1      27.781   2.357  52.171  1.00  0.00    -0.045 NA
ENDROOT
BRANCH   1   7
HETATM    7  N1  UNL     1      26.491   2.270  50.124  1.00  0.00    -0.344 N 
HETATM    8  H12 UNL     1      26.554   1.361  49.596  1.00  0.00     0.167 HD
BRANCH   7   9
HETATM    9  C7  UNL     1      26.260   3.642  49.844  1.00  0.00     0.008 C 
HETATM   10  C8  UNL     1      27.130   4.293  49.100  1.00  0.00    -0.006 C 
HETATM   11  C9  UNL     1      27.119   5.700  48.670  1.00  0.00     0.038 C 
BRANCH   9  12
HETATM   12  C6  UNL     1      25.039   4.261  50.413  1.00  0.00     0.080 C 
BRANCH  12  13
HETATM   13  C4  UNL     1      23.838   3.987  49.554  1.00  0.00     0.044 C 
HETATM   14  C5  UNL     1      23.484   5.058  48.588  1.00  0.00     0.031 C 
BRANCH  13  15
HETATM   15  C3  UNL     1      23.117   2.884  49.620  1.00  0.00    -0.095 C 
BRANCH  15  16
HETATM   16  C2  UNL     1      22.345   1.880  49.324  1.00  0.00    -0.105 C 
HETATM   17  C1  UNL     1      21.403   1.042  48.937  1.00  0.00     0.106 C 
ENDBRANCH  15  16
ENDBRANCH  13  15
ENDBRANCH  12  13
ENDBRANCH   9  12
ENDBRANCH   7   9
ENDBRANCH   1   7
BRANCH   3  18
HETATM   18  N2  UNL     1      25.061  -0.191  54.052  1.00  0.00    -0.340 N 
HETATM   19  H14 UNL     1      25.443  -0.870  54.776  1.00  0.00     0.167 HD
BRANCH  18  20
HETATM   20  C13 UNL     1      23.676  -0.277  53.830  1.00  0.00     0.033 A 
HETATM   21  C14 UNL     1      22.848  -1.056  54.648  1.00  0.00     0.031 A 
HETATM   22  C15 UNL     1      21.497  -1.156  54.452  1.00  0.00     0.026 A 
HETATM   23  C16 UNL     1      20.876  -0.495  53.435  1.00  0.00     0.034 A 
HETATM   24 CL1  UNL     1      19.149  -0.684  53.266  1.00  0.00    -0.084 Cl
HETATM   25  C17 UNL     1      21.631   0.276  52.610  1.00  0.00     0.026 A 
HETATM   26  C18 UNL     1      22.993   0.366  52.822  1.00  0.00     0.031 A 
ENDBRANCH  18  20
ENDBRANCH   3  18
BRANCH   5  27
HETATM   27  N4  UNL     1      29.123   2.500  54.160  1.00  0.00    -0.231 N 
HETATM   28  H19 UNL     1      29.600   2.108  55.014  1.00  0.00     0.174 HD
HETATM   29  H20 UNL     1      29.727   3.332  53.998  1.00  0.00     0.174 HD
ENDBRANCH   5  27
TORSDOF 9
ENDMDL
MODEL 3
REMARK VINA RESULT:      -7.7      3.186      5.033
REMARK  9 active torsions:
REMARK  status: ('A' for Active; 'I' for Inactive)
REMARK    1  A    between atoms: C2_2  and  C3_3 
REMARK    2  A    between atoms: C3_3  and  C4_4 
REMARK    3  A    between atoms: C4_4  and  C6_6 
REMARK    4  A    between atoms: C6_6  and  C7_7 
REMARK    5  A    between atoms: C7_7  and  N1_10 
REMARK    6  A    between atoms: N1_10  and  C10_11 
REMARK    7  A    between atoms: C12_13  and  N2_14 
REMARK    8  A    between atoms: N2_14  and  C13_15 
REMARK    9  A    between atoms: C19_23  and  N4_24 
ROOT
HETATM    1  C10 UNL     1      27.212   1.730  52.718  1.00  0.00     0.150 A 
HETATM    2  C11 UNL     1      26.215   1.012  53.337  1.00  0.00     0.102 A 
HETATM    3  C12 UNL     1      26.438  -0.148  54.049  1.00  0.00     0.150 A 
HETATM    4  N3  UNL     1      27.724  -0.490  54.070  1.00  0.00    -0.045 NA
HETATM    5  C19 UNL     1      28.744   0.132  53.511  1.00  0.00     0.724 A 
HETATM    6  N5  UNL     1      28.473   1.265  52.822  1.00  0.00    -0.045 NA
ENDROOT
BRANCH   1   7
HETATM    7  N1  UNL     1      26.910   2.920  51.997  1.00  0.00    -0.344 N 
HETATM    8  H12 UNL     1      27.529   3.651  52.434  1.00  0.00     0.167 HD
BRANCH   7   9
HETATM    9  C7  UNL     1      25.940   2.834  50.965  1.00  0.00     0.008 C 
HETATM   10  C8  UNL     1      24.681   2.629  51.293  1.00  0.00    -0.006 C 
HETATM   11  C9  UNL     1      23.500   2.504  50.423  1.00  0.00     0.038 C 
BRANCH   9  12
HETATM   12  C6  UNL     1      26.411   2.984  49.568  1.00  0.00     0.080 C 
BRANCH  12  13
HETATM   13  C4  UNL     1      26.719   4.418  49.246  1.00  0.00     0.044 C 
HETATM   14  C5  UNL     1      25.672   5.400  49.628  1.00  0.00     0.031 C 
BRANCH  13  15
HETATM   15  C3  UNL     1      27.833   4.824  48.665  1.00  0.00    -0.095 C 
BRANCH  15  16
HETATM   16  C2  UNL     1      28.805   5.558  48.210  1.00  0.00    -0.105 C 
HETATM   17  C1  UNL     1      29.930   6.186  47.929  1.00  0.00     0.106 C 
ENDBRANCH  15  16
ENDBRANCH  13  15
ENDBRANCH  12  13
ENDBRANCH   9  12
ENDBRANCH   7   9
ENDBRANCH   1   7
BRANCH   3  18
HETATM   18  N2  UNL     1      25.364  -0.830  54.657  1.00  0.00    -0.340 N 
HETATM   19  H14 UNL     1      25.609  -1.453  55.485  1.00  0.00     0.167 HD
BRANCH  18  20
HETATM   20  C13 UNL     1      24.000  -0.801  54.320  1.00  0.00     0.033 A 
HETATM   21  C14 UNL     1      23.010  -1.194  55.230  1.00  0.00     0.031 A 
HETATM   22  C15 UNL     1      21.675  -1.174  54.925  1.00  0.00     0.026 A 
HETATM   23  C16 UNL     1      21.232  -0.768  53.702  1.00  0.00     0.034 A 
HETATM   24 CL1  UNL     1      19.512  -0.778  53.408  1.00  0.00    -0.084 Cl
HETATM   25  C17 UNL     1      22.150  -0.377  52.780  1.00  0.00     0.026 A 
HETATM   26  C18 UNL     1      23.491  -0.402  53.104  1.00  0.00     0.031 A 
ENDBRANCH  18  20
ENDBRANCH   3  18
BRANCH   5  27
HETATM   27  N4  UNL     1      30.094  -0.329  53.598  1.00  0.00    -0.231 N 
HETATM   28  H19 UNL     1      30.979   0.152  53.287  1.00  0.00     0.174 HD
HETATM   29  H20 UNL     1      30.505  -1.209  53.973  1.00  0.00     0.174 HD
ENDBRANCH   5  27
TORSDOF 9
ENDMDL
MODEL 4
REMARK VINA RESULT:      -7.4      3.348      7.407
REMARK  9 active torsions:
REMARK  status: ('A' for Active; 'I' for Inactive)
REMARK    1  A    between atoms: C2_2  and  C3_3 
REMARK    2  A    between atoms: C3_3  and  C4_4 
REMARK    3  A    between atoms: C4_4  and  C6_6 
REMARK    4  A    between atoms: C6_6  and  C7_7 
REMARK    5  A    between atoms: C7_7  and  N1_10 
REMARK    6  A    between atoms: N1_10  and  C10_11 
REMARK    7  A    between atoms: C12_13  and  N2_14 
REMARK    8  A    between atoms: N2_14  and  C13_15 
REMARK    9  A    between atoms: C19_23  and  N4_24 
ROOT
HETATM    1  C10 UNL     1      24.940   2.024  52.763  1.00  0.00     0.150 A 
HETATM    2  C11 UNL     1      25.204   2.416  51.472  1.00  0.00     0.102 A 
HETATM    3  C12 UNL     1      26.471   2.684  50.998  1.00  0.00     0.150 A 
HETATM    4  N3  UNL     1      27.406   2.518  51.930  1.00  0.00    -0.045 NA
HETATM    5  C19 UNL     1      27.250   2.146  53.186  1.00  0.00     0.724 A 
HETATM    6  N5  UNL     1      25.987   1.896  53.603  1.00  0.00    -0.045 NA
ENDROOT
BRANCH   1   7
HETATM    7  N1  UNL     1      23.606   1.765  53.186  1.00  0.00    -0.344 N 
HETATM    8  H12 UNL     1      23.475   2.387  54.025  1.00  0.00     0.167 HD
BRANCH   7   9
HETATM    9  C7  UNL     1      22.853   0.819  52.442  1.00  0.00     0.008 C 
HETATM   10  C8  UNL     1      22.096   1.249  51.453  1.00  0.00    -0.006 C 
HETATM   11  C9  UNL     1      21.232   0.482  50.542  1.00  0.00     0.038 C 
BRANCH   9  12
HETATM   12  C6  UNL     1      22.968  -0.606  52.830  1.00  0.00     0.080 C 
BRANCH  12  13
HETATM   13  C4  UNL     1      22.065  -0.933  53.984  1.00  0.00     0.044 C 
HETATM   14  C5  UNL     1      22.749  -1.252  55.263  1.00  0.00     0.031 C 
BRANCH  13  15
HETATM   15  C3  UNL     1      20.747  -0.947  53.911  1.00  0.00    -0.095 C 
BRANCH  15  16
HETATM   16  C2  UNL     1      19.523  -1.040  53.481  1.00  0.00    -0.105 C 
HETATM   17  C1  UNL     1      18.225  -1.171  53.290  1.00  0.00     0.106 C 
ENDBRANCH  15  16
ENDBRANCH  13  15
ENDBRANCH  12  13
ENDBRANCH   9  12
ENDBRANCH   7   9
ENDBRANCH   1   7
BRANCH   3  18
HETATM   18  N2  UNL     1      26.663   3.083  49.658  1.00  0.00    -0.340 N 
HETATM   19  H14 UNL     1      26.716   2.302  48.937  1.00  0.00     0.167 HD
BRANCH  18  20
HETATM   20  C13 UNL     1      26.793   4.381  49.137  1.00  0.00     0.033 A 
HETATM   21  C14 UNL     1      25.709   5.266  49.092  1.00  0.00     0.031 A 
HETATM   22  C15 UNL     1      25.810   6.536  48.589  1.00  0.00     0.026 A 
HETATM   23  C16 UNL     1      26.988   7.013  48.098  1.00  0.00     0.034 A 
HETATM   24 CL1  UNL     1      27.019   8.644  47.479  1.00  0.00    -0.084 Cl
HETATM   25  C17 UNL     1      28.073   6.196  48.117  1.00  0.00     0.026 A 
HETATM   26  C18 UNL     1      27.953   4.919  48.628  1.00  0.00     0.031 A 
ENDBRANCH  18  20
ENDBRANCH   3  18
BRANCH   5  27
HETATM   27  N4  UNL     1      28.335   2.000  54.106  1.00  0.00    -0.231 N 
HETATM   28  H19 UNL     1      29.366   2.151  53.943  1.00  0.00     0.174 HD
HETATM   29  H20 UNL     1      28.363   1.724  55.109  1.00  0.00     0.174 HD
ENDBRANCH   5  27
TORSDOF 9
ENDMDL
MODEL 5
REMARK VINA RESULT:      -7.3      3.745      6.232
REMARK  9 active torsions:
REMARK  status: ('A' for Active; 'I' for Inactive)
REMARK    1  A    between atoms: C2_2  and  C3_3 
REMARK    2  A    between atoms: C3_3  and  C4_4 
REMARK    3  A    between atoms: C4_4  and  C6_6 
REMARK    4  A    between atoms: C6_6  and  C7_7 
REMARK    5  A    between atoms: C7_7  and  N1_10 
REMARK    6  A    between atoms: N1_10  and  C10_11 
REMARK    7  A    between atoms: C12_13  and  N2_14 
REMARK    8  A    between atoms: N2_14  and  C13_15 
REMARK    9  A    between atoms: C19_23  and  N4_24 
ROOT
HETATM    1  C10 UNL     1      25.036  -0.523  53.370  1.00  0.00     0.150 A 
HETATM    2  C11 UNL     1      23.675  -0.546  53.172  1.00  0.00     0.102 A 
HETATM    3  C12 UNL     1      22.763  -0.847  54.162  1.00  0.00     0.150 A 
HETATM    4  N3  UNL     1      23.350  -1.110  55.327  1.00  0.00    -0.045 NA
HETATM    5  C19 UNL     1      24.638  -1.112  55.611  1.00  0.00     0.724 A 
HETATM    6  N5  UNL     1      25.492  -0.811  54.606  1.00  0.00    -0.045 NA
ENDROOT
BRANCH   1   7
HETATM    7  N1  UNL     1      25.920  -0.205  52.301  1.00  0.00    -0.344 N 
HETATM    8  H12 UNL     1      25.882  -1.049  51.673  1.00  0.00     0.167 HD
BRANCH   7   9
HETATM    9  C7  UNL     1      26.574   1.054  52.342  1.00  0.00     0.008 C 
HETATM   10  C8  UNL     1      27.552   1.233  53.206  1.00  0.00    -0.006 C 
HETATM   11  C9  UNL     1      28.378   2.427  53.443  1.00  0.00     0.038 C 
BRANCH   9  12
HETATM   12  C6  UNL     1      26.111   2.098  51.397  1.00  0.00     0.080 C 
BRANCH  12  13
HETATM   13  C4  UNL     1      24.681   2.474  51.658  1.00  0.00     0.044 C 
HETATM   14  C5  UNL     1      24.415   3.108  52.975  1.00  0.00     0.031 C 
BRANCH  13  15
HETATM   15  C3  UNL     1      23.695   2.275  50.804  1.00  0.00    -0.095 C 
BRANCH  15  16
HETATM   16  C2  UNL     1      22.690   1.761  50.159  1.00  0.00    -0.105 C 
HETATM   17  C1  UNL     1      21.805   1.300  49.297  1.00  0.00     0.106 C 
ENDBRANCH  15  16
ENDBRANCH  13  15
ENDBRANCH  12  13
ENDBRANCH   9  12
ENDBRANCH   7   9
ENDBRANCH   1   7
BRANCH   3  18
HETATM   18  N2  UNL     1      21.380  -0.850  53.883  1.00  0.00    -0.340 N 
HETATM   19  H14 UNL     1      20.825  -1.675  54.261  1.00  0.00     0.167 HD
BRANCH  18  20
HETATM   20  C13 UNL     1      20.625   0.096  53.169  1.00  0.00     0.033 A 
HETATM   21  C14 UNL     1      19.619  -0.291  52.275  1.00  0.00     0.031 A 
HETATM   22  C15 UNL     1      18.870   0.611  51.568  1.00  0.00     0.026 A 
HETATM   23  C16 UNL     1      19.067   1.953  51.697  1.00  0.00     0.034 A 
HETATM   24 CL1  UNL     1      18.062   3.024  50.754  1.00  0.00    -0.084 Cl
HETATM   25  C17 UNL     1      20.030   2.385  52.551  1.00  0.00     0.026 A 
HETATM   26  C18 UNL     1      20.776   1.461  53.256  1.00  0.00     0.031 A 
ENDBRANCH  18  20
ENDBRANCH   3  18
BRANCH   5  27
HETATM   27  N4  UNL     1      25.160  -1.412  56.908  1.00  0.00    -0.231 N 
HETATM   28  H19 UNL     1      26.083  -1.130  57.331  1.00  0.00     0.174 HD
HETATM   29  H20 UNL     1      24.769  -1.955  57.706  1.00  0.00     0.174 HD
ENDBRANCH   5  27
TORSDOF 9
ENDMDL
MODEL 6
REMARK VINA RESULT:      -7.2      3.231      5.656
REMARK  9 active torsions:
REMARK  status: ('A' for Active; 'I' for Inactive)
REMARK    1  A    between atoms: C2_2  and  C3_3 
REMARK    2  A    between atoms: C3_3  and  C4_4 
REMARK    3  A    between atoms: C4_4  and  C6_6 
REMARK    4  A    between atoms: C6_6  and  C7_7 
REMARK    5  A    between atoms: C7_7  and  N1_10 
REMARK    6  A    between atoms: N1_10  and  C10_11 
REMARK    7  A    between atoms: C12_13  and  N2_14 
REMARK    8  A    between atoms: N2_14  and  C13_15 
REMARK    9  A    between atoms: C19_23  and  N4_24 
ROOT
HETATM    1  C10 UNL     1      26.473   2.590  51.109  1.00  0.00     0.150 A 
HETATM    2  C11 UNL     1      25.224   2.310  51.611  1.00  0.00     0.102 A 
HETATM    3  C12 UNL     1      24.987   1.964  52.925  1.00  0.00     0.150 A 
HETATM    4  N3  UNL     1      26.104   1.935  53.649  1.00  0.00    -0.045 NA
HETATM    5  C19 UNL     1      27.338   2.188  53.259  1.00  0.00     0.724 A 
HETATM    6  N5  UNL     1      27.518   2.522  51.960  1.00  0.00    -0.045 NA
ENDROOT
BRANCH   1   7
HETATM    7  N1  UNL     1      26.645   2.940  49.740  1.00  0.00    -0.344 N 
HETATM    8  H12 UNL     1      26.805   2.019  49.256  1.00  0.00     0.167 HD
BRANCH   7   9
HETATM    9  C7  UNL     1      26.566   4.315  49.398  1.00  0.00     0.008 C 
HETATM   10  C8  UNL     1      27.542   4.851  48.695  1.00  0.00    -0.006 C 
HETATM   11  C9  UNL     1      27.695   6.234  48.218  1.00  0.00     0.038 C 
BRANCH   9  12
HETATM   12  C6  UNL     1      25.375   5.068  49.858  1.00  0.00     0.080 C 
BRANCH  12  13
HETATM   13  C4  UNL     1      24.220   4.894  48.915  1.00  0.00     0.044 C 
HETATM   14  C5  UNL     1      23.715   6.140  48.284  1.00  0.00     0.031 C 
BRANCH  13  15
HETATM   15  C3  UNL     1      23.662   3.731  48.635  1.00  0.00    -0.095 C 
BRANCH  15  16
HETATM   16  C2  UNL     1      22.811   2.757  48.502  1.00  0.00    -0.105 C 
HETATM   17  C1  UNL     1      22.052   1.742  48.136  1.00  0.00     0.106 C 
ENDBRANCH  15  16
ENDBRANCH  13  15
ENDBRANCH  12  13
ENDBRANCH   9  12
ENDBRANCH   7   9
ENDBRANCH   1   7
BRANCH   3  18
HETATM   18  N2  UNL     1      23.676   1.689  53.367  1.00  0.00    -0.340 N 
HETATM   19  H14 UNL     1      23.538   1.621  54.420  1.00  0.00     0.167 HD
BRANCH  18  20
HETATM   20  C13 UNL     1      22.514   1.493  52.602  1.00  0.00     0.033 A 
HETATM   21  C14 UNL     1      21.624   2.542  52.336  1.00  0.00     0.031 A 
HETATM   22  C15 UNL     1      20.485   2.376  51.594  1.00  0.00     0.026 A 
HETATM   23  C16 UNL     1      20.151   1.165  51.068  1.00  0.00     0.034 A 
HETATM   24 CL1  UNL     1      18.680   1.053  50.136  1.00  0.00    -0.084 Cl
HETATM   25  C17 UNL     1      20.979   0.112  51.294  1.00  0.00     0.026 A 
HETATM   26  C18 UNL     1      22.122   0.297  52.045  1.00  0.00     0.031 A 
ENDBRANCH  18  20
ENDBRANCH   3  18
BRANCH   5  27
HETATM   27  N4  UNL     1      28.470   2.125  54.130  1.00  0.00    -0.231 N 
HETATM   28  H19 UNL     1      29.166   2.881  54.365  1.00  0.00     0.174 HD
HETATM   29  H20 UNL     1      28.857   1.355  54.713  1.00  0.00     0.174 HD
ENDBRANCH   5  27
TORSDOF 9
ENDMDL
MODEL 7
REMARK VINA RESULT:      -7.1      1.366      2.340
REMARK  9 active torsions:
REMARK  status: ('A' for Active; 'I' for Inactive)
REMARK    1  A    between atoms: C2_2  and  C3_3 
REMARK    2  A    between atoms: C3_3  and  C4_4 
REMARK    3  A    between atoms: C4_4  and  C6_6 
REMARK    4  A    between atoms: C6_6  and  C7_7 
REMARK    5  A    between atoms: C7_7  and  N1_10 
REMARK    6  A    between atoms: N1_10  and  C10_11 
REMARK    7  A    between atoms: C12_13  and  N2_14 
REMARK    8  A    between atoms: N2_14  and  C13_15 
REMARK    9  A    between atoms: C19_23  and  N4_24 
ROOT
HETATM    1  C10 UNL     1      21.656   0.995  52.451  1.00  0.00     0.150 A 
HETATM    2  C11 UNL     1      22.771   0.512  53.095  1.00  0.00     0.102 A 
HETATM    3  C12 UNL     1      22.741  -0.523  54.005  1.00  0.00     0.150 A 
HETATM    4  N3  UNL     1      21.512  -1.001  54.187  1.00  0.00    -0.045 NA
HETATM    5  C19 UNL     1      20.390  -0.607  53.617  1.00  0.00     0.724 A 
HETATM    6  N5  UNL     1      20.472   0.414  52.732  1.00  0.00    -0.045 NA
ENDROOT
BRANCH   1   7
HETATM    7  N1  UNL     1      21.760   2.069  51.523  1.00  0.00    -0.344 N 
HETATM    8  H12 UNL     1      20.922   1.952  50.896  1.00  0.00     0.167 HD
BRANCH   7   9
HETATM    9  C7  UNL     1      22.864   2.951  51.659  1.00  0.00     0.008 C 
HETATM   10  C8  UNL     1      22.705   4.067  52.339  1.00  0.00    -0.006 C 
HETATM   11  C9  UNL     1      23.679   5.132  52.622  1.00  0.00     0.038 C 
BRANCH   9  12
HETATM   12  C6  UNL     1      24.141   2.552  51.020  1.00  0.00     0.080 C 
BRANCH  12  13
HETATM   13  C4  UNL     1      24.381   3.322  49.753  1.00  0.00     0.044 C 
HETATM   14  C5  UNL     1      23.345   3.163  48.701  1.00  0.00     0.031 C 
BRANCH  13  15
HETATM   15  C3  UNL     1      25.428   4.099  49.546  1.00  0.00    -0.095 C 
BRANCH  15  16
HETATM   16  C2  UNL     1      26.578   4.561  49.155  1.00  0.00    -0.105 C 
HETATM   17  C1  UNL     1      27.746   4.827  48.604  1.00  0.00     0.106 C 
ENDBRANCH  15  16
ENDBRANCH  13  15
ENDBRANCH  12  13
ENDBRANCH   9  12
ENDBRANCH   7   9
ENDBRANCH   1   7
BRANCH   3  18
HETATM   18  N2  UNL     1      23.928  -0.963  54.626  1.00  0.00    -0.340 N 
HETATM   19  H14 UNL     1      23.810  -1.587  55.481  1.00  0.00     0.167 HD
BRANCH  18  20
HETATM   20  C13 UNL     1      25.260  -0.692  54.270  1.00  0.00     0.033 A 
HETATM   21  C14 UNL     1      26.119   0.015  55.122  1.00  0.00     0.031 A 
HETATM   22  C15 UNL     1      27.420   0.292  54.797  1.00  0.00     0.026 A 
HETATM   23  C16 UNL     1      27.957  -0.109  53.610  1.00  0.00     0.034 A 
HETATM   24 CL1  UNL     1      29.624   0.292  53.287  1.00  0.00    -0.084 Cl
HETATM   25  C17 UNL     1      27.168  -0.798  52.746  1.00  0.00     0.026 A 
HETATM   26  C18 UNL     1      25.859  -1.069  53.089  1.00  0.00     0.031 A 
ENDBRANCH  18  20
ENDBRANCH   3  18
BRANCH   5  27
HETATM   27  N4  UNL     1      19.117  -1.198  53.890  1.00  0.00    -0.231 N 
HETATM   28  H19 UNL     1      18.901  -2.155  54.275  1.00  0.00     0.174 HD
HETATM   29  H20 UNL     1      18.146  -0.839  53.778  1.00  0.00     0.174 HD
ENDBRANCH   5  27
TORSDOF 9
ENDMDL
MODEL 8
REMARK VINA RESULT:      -7.1      3.279      5.707
REMARK  9 active torsions:
REMARK  status: ('A' for Active; 'I' for Inactive)
REMARK    1  A    between atoms: C2_2  and  C3_3 
REMARK    2  A    between atoms: C3_3  and  C4_4 
REMARK    3  A    between atoms: C4_4  and  C6_6 
REMARK    4  A    between atoms: C6_6  and  C7_7 
REMARK    5  A    between atoms: C7_7  and  N1_10 
REMARK    6  A    between atoms: N1_10  and  C10_11 
REMARK    7  A    between atoms: C12_13  and  N2_14 
REMARK    8  A    between atoms: N2_14  and  C13_15 
REMARK    9  A    between atoms: C19_23  and  N4_24 
ROOT
HETATM    1  C10 UNL     1      25.203   2.055  53.502  1.00  0.00     0.150 A 
HETATM    2  C11 UNL     1      24.164   1.175  53.311  1.00  0.00     0.102 A 
HETATM    3  C12 UNL     1      24.222  -0.161  53.646  1.00  0.00     0.150 A 
HETATM    4  N3  UNL     1      25.396  -0.500  54.176  1.00  0.00    -0.045 NA
HETATM    5  C19 UNL     1      26.444   0.269  54.397  1.00  0.00     0.724 A 
HETATM    6  N5  UNL     1      26.337   1.573  54.050  1.00  0.00    -0.045 NA
ENDROOT
BRANCH   1   7
HETATM    7  N1  UNL     1      25.075   3.424  53.131  1.00  0.00    -0.344 N 
HETATM    8  H12 UNL     1      25.089   3.942  54.047  1.00  0.00     0.167 HD
BRANCH   7   9
HETATM    9  C7  UNL     1      24.969   3.722  51.748  1.00  0.00     0.008 C 
HETATM   10  C8  UNL     1      25.840   3.191  50.916  1.00  0.00    -0.006 C 
HETATM   11  C9  UNL     1      25.945   3.340  49.456  1.00  0.00     0.038 C 
BRANCH   9  12
HETATM   12  C6  UNL     1      23.871   4.623  51.323  1.00  0.00     0.080 C 
BRANCH  12  13
HETATM   13  C4  UNL     1      22.594   3.863  51.106  1.00  0.00     0.044 C 
HETATM   14  C5  UNL     1      21.656   3.845  52.257  1.00  0.00     0.031 C 
BRANCH  13  15
HETATM   15  C3  UNL     1      22.285   3.240  49.984  1.00  0.00    -0.095 C 
BRANCH  15  16
HETATM   16  C2  UNL     1      22.260   2.401  48.991  1.00  0.00    -0.105 C 
HETATM   17  C1  UNL     1      22.027   1.457  48.101  1.00  0.00     0.106 C 
ENDBRANCH  15  16
ENDBRANCH  13  15
ENDBRANCH  12  13
ENDBRANCH   9  12
ENDBRANCH   7   9
ENDBRANCH   1   7
BRANCH   3  18
HETATM   18  N2  UNL     1      23.114  -1.004  53.420  1.00  0.00    -0.340 N 
HETATM   19  H14 UNL     1      23.267  -2.043  53.593  1.00  0.00     0.167 HD
BRANCH  18  20
HETATM   20  C13 UNL     1      21.820  -0.659  52.994  1.00  0.00     0.033 A 
HETATM   21  C14 UNL     1      20.686  -0.985  53.750  1.00  0.00     0.031 A 
HETATM   22  C15 UNL     1      19.416  -0.660  53.357  1.00  0.00     0.026 A 
HETATM   23  C16 UNL     1      19.182   0.006  52.191  1.00  0.00     0.034 A 
HETATM   24 CL1  UNL     1      17.528   0.376  51.776  1.00  0.00    -0.084 Cl
HETATM   25  C17 UNL     1      20.245   0.348  51.419  1.00  0.00     0.026 A 
HETATM   26  C18 UNL     1      21.519   0.013  51.830  1.00  0.00     0.031 A 
ENDBRANCH  18  20
ENDBRANCH   3  18
BRANCH   5  27
HETATM   27  N4  UNL     1      27.662  -0.205  54.976  1.00  0.00    -0.231 N 
HETATM   28  H19 UNL     1      27.797  -0.855  55.795  1.00  0.00     0.174 HD
HETATM   29  H20 UNL     1      28.660  -0.030  54.736  1.00  0.00     0.174 HD
ENDBRANCH   5  27
TORSDOF 9
ENDMDL
MODEL 9
REMARK VINA RESULT:      -7.1      1.747      2.606
REMARK  9 active torsions:
REMARK  status: ('A' for Active; 'I' for Inactive)
REMARK    1  A    between atoms: C2_2  and  C3_3 
REMARK    2  A    between atoms: C3_3  and  C4_4 
REMARK    3  A    between atoms: C4_4  and  C6_6 
REMARK    4  A    between atoms: C6_6  and  C7_7 
REMARK    5  A    between atoms: C7_7  and  N1_10 
REMARK    6  A    between atoms: N1_10  and  C10_11 
REMARK    7  A    between atoms: C12_13  and  N2_14 
REMARK    8  A    between atoms: N2_14  and  C13_15 
REMARK    9  A    between atoms: C19_23  and  N4_24 
ROOT
HETATM    1  C10 UNL     1      23.548   4.930  51.795  1.00  0.00     0.150 A 
HETATM    2  C11 UNL     1      23.987   3.880  52.567  1.00  0.00     0.102 A 
HETATM    3  C12 UNL     1      23.615   2.569  52.359  1.00  0.00     0.150 A 
HETATM    4  N3  UNL     1      22.785   2.437  51.326  1.00  0.00    -0.045 NA
HETATM    5  C19 UNL     1      22.313   3.378  50.532  1.00  0.00     0.724 A 
HETATM    6  N5  UNL     1      22.707   4.649  50.779  1.00  0.00    -0.045 NA
ENDROOT
BRANCH   1   7
HETATM    7  N1  UNL     1      23.972   6.261  52.068  1.00  0.00    -0.344 N 
HETATM    8  H12 UNL     1      24.054   6.296  53.118  1.00  0.00     0.167 HD
BRANCH   7   9
HETATM    9  C7  UNL     1      24.163   7.130  50.963  1.00  0.00     0.008 C 
HETATM   10  C8  UNL     1      23.114   7.728  50.438  1.00  0.00    -0.006 C 
HETATM   11  C9  UNL     1      23.045   8.663  49.304  1.00  0.00     0.038 C 
BRANCH   9  12
HETATM   12  C6  UNL     1      25.547   7.312  50.465  1.00  0.00     0.080 C 
BRANCH  12  13
HETATM   13  C4  UNL     1      25.816   6.444  49.270  1.00  0.00     0.044 C 
HETATM   14  C5  UNL     1      25.908   7.156  47.969  1.00  0.00     0.031 C 
BRANCH  13  15
HETATM   15  C3  UNL     1      25.968   5.134  49.324  1.00  0.00    -0.095 C 
BRANCH  15  16
HETATM   16  C2  UNL     1      26.354   3.937  49.655  1.00  0.00    -0.105 C 
HETATM   17  C1  UNL     1      26.529   2.719  50.127  1.00  0.00     0.106 C 
ENDBRANCH  15  16
ENDBRANCH  13  15
ENDBRANCH  12  13
ENDBRANCH   9  12
ENDBRANCH   7   9
ENDBRANCH   1   7
BRANCH   3  18
HETATM   18  N2  UNL     1      24.107   1.544  53.194  1.00  0.00    -0.340 N 
HETATM   19  H14 UNL     1      23.411   1.115  53.875  1.00  0.00     0.167 HD
BRANCH  18  20
HETATM   20  C13 UNL     1      25.403   1.005  53.252  1.00  0.00     0.033 A 
HETATM   21  C14 UNL     1      25.729  -0.194  52.605  1.00  0.00     0.031 A 
HETATM   22  C15 UNL     1      26.984  -0.740  52.647  1.00  0.00     0.026 A 
HETATM   23  C16 UNL     1      27.997  -0.139  53.331  1.00  0.00     0.034 A 
HETATM   24 CL1  UNL     1      29.562  -0.912  53.326  1.00  0.00    -0.084 Cl
HETATM   25  C17 UNL     1      27.737   1.027  53.978  1.00  0.00     0.026 A 
HETATM   26  C18 UNL     1      26.466   1.563  53.925  1.00  0.00     0.031 A 
ENDBRANCH  18  20
ENDBRANCH   3  18
BRANCH   5  27
HETATM   27  N4  UNL     1      21.420   3.119  49.445  1.00  0.00    -0.231 N 
HETATM   28  H19 UNL     1      21.595   2.569  48.562  1.00  0.00     0.174 HD
HETATM   29  H20 UNL     1      20.432   3.398  49.276  1.00  0.00     0.174 HD
ENDBRANCH   5  27
TORSDOF 9
ENDMDL
