MODEL 1
REMARK VINA RESULT:      -8.7      0.000      0.000
REMARK  4 active torsions:
REMARK  status: ('A' for Active; 'I' for Inactive)
REMARK    1  A    between atoms: C2_2  and  C3_3 
REMARK    2  A    between atoms: N2_15  and  C12_16 
REMARK    3  A    between atoms: C12_16  and  C13_17 
REMARK    4  A    between atoms: C14_18  and  O2_19 
ROOT
HETATM    1  C3  UNL     1      19.820  -0.754  53.492  1.00  0.00     0.029 C 
HETATM    2  C4  UNL     1      20.728   0.077  53.021  1.00  0.00     0.038 C 
HETATM    3  N1  UNL     1      20.229   0.678  51.844  1.00  0.00    -0.327 N 
HETATM    4  C5  UNL     1      20.971   1.040  50.685  1.00  0.00     0.220 C 
HETATM    5  S1  UNL     1      20.182   1.716  49.399  1.00  0.00    -0.033 SA
HETATM    6  O1  UNL     1      22.326   0.963  50.314  1.00  0.00    -0.286 OA
HETATM    7  C6  UNL     1      22.994   2.211  50.455  1.00  0.00     0.082 C 
HETATM    8  C7  UNL     1      23.669   2.630  51.517  1.00  0.00     0.042 C 
HETATM    9  C8  UNL     1      24.166   3.973  51.190  1.00  0.00     0.086 C 
HETATM   10  C9  UNL     1      23.059   4.896  50.713  1.00  0.00    -0.024 C 
HETATM   11  C10 UNL     1      22.355   4.443  49.659  1.00  0.00    -0.024 C 
HETATM   12  C11 UNL     1      22.913   3.113  49.279  1.00  0.00     0.094 C 
HETATM   13  N2  UNL     1      23.897   1.953  52.746  1.00  0.00    -0.367 N 
HETATM   14  C18 UNL     1      22.709   1.151  52.983  1.00  0.00     0.143 C 
HETATM   15  C19 UNL     1      22.019   0.243  53.716  1.00  0.00    -0.032 C 
HETATM   16  C20 UNL     1      22.099  -0.638  54.957  1.00  0.00     0.048 C 
HETATM   17  H5  UNL     1      19.226   0.930  51.738  1.00  0.00     0.169 HD
ENDROOT
BRANCH  13  18
HETATM   18  C12 UNL     1      25.173   2.193  53.408  1.00  0.00     0.161 C 
BRANCH  18  19
HETATM   19  C13 UNL     1      26.149   1.105  53.312  1.00  0.00    -0.019 A 
HETATM   20  C14 UNL     1      27.386   1.471  53.694  1.00  0.00     0.070 A 
HETATM   21  C15 UNL     1      28.595   0.678  53.738  1.00  0.00     0.043 A 
HETATM   22  C16 UNL     1      28.554  -0.583  53.367  1.00  0.00     0.048 A 
HETATM   23  S2  UNL     1      27.105  -1.425  52.803  1.00  0.00    -0.137 SA
HETATM   24  C17 UNL     1      25.740  -0.233  52.828  1.00  0.00     0.117 A 
BRANCH  20  25
HETATM   25  O2  UNL     1      27.659   2.785  54.133  1.00  0.00    -0.360 OA
HETATM   26  H14 UNL     1      26.813   3.374  54.167  1.00  0.00     0.217 HD
ENDBRANCH  20  25
ENDBRANCH  18  19
ENDBRANCH  13  18
BRANCH   1  27
HETATM   27  C2  UNL     1      18.559  -0.951  52.844  1.00  0.00    -0.008 C 
HETATM   28  C1  UNL     1      17.695  -1.816  53.335  1.00  0.00     0.011 C 
ENDBRANCH   1  27
TORSDOF 4
ENDMDL
MODEL 2
REMARK VINA RESULT:      -8.3      2.253      6.892
REMARK  4 active torsions:
REMARK  status: ('A' for Active; 'I' for Inactive)
REMARK    1  A    between atoms: C2_2  and  C3_3 
REMARK    2  A    between atoms: N2_15  and  C12_16 
REMARK    3  A    between atoms: C12_16  and  C13_17 
REMARK    4  A    between atoms: C14_18  and  O2_19 
ROOT
HETATM    1  C3  UNL     1      27.638   2.009  52.866  1.00  0.00     0.029 C 
HETATM    2  C4  UNL     1      26.380   1.632  52.758  1.00  0.00     0.038 C 
HETATM    3  N1  UNL     1      26.030   0.876  53.898  1.00  0.00    -0.327 N 
HETATM    4  C5  UNL     1      25.152  -0.242  53.949  1.00  0.00     0.220 C 
HETATM    5  S1  UNL     1      24.895  -1.003  55.394  1.00  0.00    -0.033 SA
HETATM    6  O1  UNL     1      24.375  -0.935  53.001  1.00  0.00    -0.286 OA
HETATM    7  C6  UNL     1      23.004  -0.557  53.051  1.00  0.00     0.082 C 
HETATM    8  C7  UNL     1      22.418   0.387  52.327  1.00  0.00     0.042 C 
HETATM    9  C8  UNL     1      21.008   0.409  52.736  1.00  0.00     0.086 C 
HETATM   10  C9  UNL     1      20.847   0.546  54.240  1.00  0.00    -0.024 C 
HETATM   11  C10 UNL     1      21.480  -0.396  54.967  1.00  0.00    -0.024 C 
HETATM   12  C11 UNL     1      22.170  -1.314  54.017  1.00  0.00     0.094 C 
HETATM   13  N2  UNL     1      22.994   1.231  51.338  1.00  0.00    -0.367 N 
HETATM   14  C18 UNL     1      24.361   1.471  51.770  1.00  0.00     0.143 C 
HETATM   15  C19 UNL     1      25.589   2.009  51.570  1.00  0.00    -0.032 C 
HETATM   16  C20 UNL     1      26.415   2.833  50.590  1.00  0.00     0.048 C 
HETATM   17  H5  UNL     1      26.397   1.105  54.843  1.00  0.00     0.169 HD
ENDROOT
BRANCH  13  18
HETATM   18  C12 UNL     1      22.148   1.605  50.212  1.00  0.00     0.161 C 
BRANCH  18  19
HETATM   19  C13 UNL     1      22.222   3.011  49.806  1.00  0.00    -0.019 A 
HETATM   20  C14 UNL     1      22.495   3.167  48.498  1.00  0.00     0.070 A 
HETATM   21  C15 UNL     1      22.643   4.391  47.742  1.00  0.00     0.043 A 
HETATM   22  C16 UNL     1      22.505   5.548  48.352  1.00  0.00     0.048 A 
HETATM   23  S2  UNL     1      22.141   5.748  50.070  1.00  0.00    -0.137 SA
HETATM   24  C17 UNL     1      22.014   4.092  50.795  1.00  0.00     0.117 A 
BRANCH  20  25
HETATM   25  O2  UNL     1      22.682   2.054  47.649  1.00  0.00    -0.360 OA
HETATM   26  H14 UNL     1      23.375   1.386  48.021  1.00  0.00     0.217 HD
ENDBRANCH  20  25
ENDBRANCH  18  19
ENDBRANCH  13  18
BRANCH   1  27
HETATM   27  C2  UNL     1      28.443   1.658  53.997  1.00  0.00    -0.008 C 
HETATM   28  C1  UNL     1      29.419   0.783  53.863  1.00  0.00     0.011 C 
ENDBRANCH   1  27
TORSDOF 4
ENDMDL
MODEL 3
REMARK VINA RESULT:      -8.0      2.730      5.228
REMARK  4 active torsions:
REMARK  status: ('A' for Active; 'I' for Inactive)
REMARK    1  A    between atoms: C2_2  and  C3_3 
REMARK    2  A    between atoms: N2_15  and  C12_16 
REMARK    3  A    between atoms: C12_16  and  C13_17 
REMARK    4  A    between atoms: C14_18  and  O2_19 
ROOT
HETATM    1  C3  UNL     1      20.123   1.122  50.424  1.00  0.00     0.029 C 
HETATM    2  C4  UNL     1      21.396   1.191  50.758  1.00  0.00     0.038 C 
HETATM    3  N1  UNL     1      21.644   0.276  51.805  1.00  0.00    -0.327 N 
HETATM    4  C5  UNL     1      22.543   0.443  52.895  1.00  0.00     0.220 C 
HETATM    5  S1  UNL     1      22.665  -0.751  54.032  1.00  0.00    -0.033 SA
HETATM    6  O1  UNL     1      23.436   1.454  53.295  1.00  0.00    -0.286 OA
HETATM    7  C6  UNL     1      24.783   1.149  52.949  1.00  0.00     0.082 C 
HETATM    8  C7  UNL     1      25.415   1.511  51.842  1.00  0.00     0.042 C 
HETATM    9  C8  UNL     1      26.773   0.958  51.938  1.00  0.00     0.086 C 
HETATM   10  C9  UNL     1      26.767  -0.532  52.231  1.00  0.00    -0.024 C 
HETATM   11  C10 UNL     1      26.088  -0.892  53.337  1.00  0.00    -0.024 C 
HETATM   12  C11 UNL     1      25.530   0.348  53.950  1.00  0.00     0.094 C 
HETATM   13  N2  UNL     1      24.925   2.282  50.752  1.00  0.00    -0.367 N 
HETATM   14  C18 UNL     1      23.513   1.954  50.640  1.00  0.00     0.143 C 
HETATM   15  C19 UNL     1      22.299   2.130  50.065  1.00  0.00    -0.032 C 
HETATM   16  C20 UNL     1      21.558   2.926  48.996  1.00  0.00     0.048 C 
HETATM   17  H5  UNL     1      21.171  -0.648  51.850  1.00  0.00     0.169 HD
ENDROOT
BRANCH  13  18
HETATM   18  C12 UNL     1      25.876   3.157  50.078  1.00  0.00     0.161 C 
BRANCH  18  19
HETATM   19  C13 UNL     1      25.537   4.582  50.084  1.00  0.00    -0.019 A 
HETATM   20  C14 UNL     1      26.327   5.315  49.279  1.00  0.00     0.070 A 
HETATM   21  C15 UNL     1      26.294   6.739  49.027  1.00  0.00     0.043 A 
HETATM   22  C16 UNL     1      25.395   7.482  49.634  1.00  0.00     0.048 A 
HETATM   23  S2  UNL     1      24.181   6.877  50.767  1.00  0.00    -0.137 SA
HETATM   24  C17 UNL     1      24.428   5.088  50.924  1.00  0.00     0.117 A 
BRANCH  20  25
HETATM   25  O2  UNL     1      27.363   4.718  48.528  1.00  0.00    -0.360 OA
HETATM   26  H14 UNL     1      28.261   4.701  49.037  1.00  0.00     0.217 HD
ENDBRANCH  20  25
ENDBRANCH  18  19
ENDBRANCH  13  18
BRANCH   1  27
HETATM   27  C2  UNL     1      19.212   0.231  51.077  1.00  0.00    -0.008 C 
HETATM   28  C1  UNL     1      17.943   0.214  50.725  1.00  0.00     0.011 C 
ENDBRANCH   1  27
TORSDOF 4
ENDMDL
MODEL 4
REMARK VINA RESULT:      -7.9      2.252      5.057
REMARK  4 active torsions:
REMARK  status: ('A' for Active; 'I' for Inactive)
REMARK    1  A    between atoms: C2_2  and  C3_3 
REMARK    2  A    between atoms: N2_15  and  C12_16 
REMARK    3  A    between atoms: C12_16  and  C13_17 
REMARK    4  A    between atoms: C14_18  and  O2_19 
ROOT
HETATM    1  C3  UNL     1      25.164   4.450  49.613  1.00  0.00     0.029 C 
HETATM    2  C4  UNL     1      24.544   3.551  50.351  1.00  0.00     0.038 C 
HETATM    3  N1  UNL     1      23.156   3.810  50.316  1.00  0.00    -0.327 N 
HETATM    4  C5  UNL     1      22.224   3.630  51.375  1.00  0.00     0.220 C 
HETATM    5  S1  UNL     1      20.636   4.019  51.128  1.00  0.00    -0.033 SA
HETATM    6  O1  UNL     1      22.310   3.168  52.702  1.00  0.00    -0.286 OA
HETATM    7  C6  UNL     1      21.875   1.820  52.830  1.00  0.00     0.082 C 
HETATM    8  C7  UNL     1      22.635   0.735  52.771  1.00  0.00     0.042 C 
HETATM    9  C8  UNL     1      21.737  -0.413  52.951  1.00  0.00     0.086 C 
HETATM   10  C9  UNL     1      20.565  -0.383  51.985  1.00  0.00    -0.024 C 
HETATM   11  C10 UNL     1      19.823   0.740  52.026  1.00  0.00    -0.024 C 
HETATM   12  C11 UNL     1      20.419   1.640  53.056  1.00  0.00     0.094 C 
HETATM   13  N2  UNL     1      24.041   0.648  52.578  1.00  0.00    -0.367 N 
HETATM   14  C18 UNL     1      24.391   1.759  51.709  1.00  0.00     0.143 C 
HETATM   15  C19 UNL     1      25.313   2.503  51.052  1.00  0.00    -0.032 C 
HETATM   16  C20 UNL     1      26.808   2.641  50.788  1.00  0.00     0.048 C 
HETATM   17  H5  UNL     1      22.684   4.155  49.457  1.00  0.00     0.169 HD
ENDROOT
BRANCH  13  18
HETATM   18  C12 UNL     1      24.737  -0.435  53.260  1.00  0.00     0.161 C 
BRANCH  18  19
HETATM   19  C13 UNL     1      26.155  -0.196  53.544  1.00  0.00    -0.019 A 
HETATM   20  C14 UNL     1      26.961  -1.143  53.031  1.00  0.00     0.070 A 
HETATM   21  C15 UNL     1      28.402  -1.244  53.103  1.00  0.00     0.043 A 
HETATM   22  C16 UNL     1      29.083  -0.318  53.742  1.00  0.00     0.048 A 
HETATM   23  S2  UNL     1      28.373   1.086  54.547  1.00  0.00    -0.137 SA
HETATM   24  C17 UNL     1      26.576   0.986  54.329  1.00  0.00     0.117 A 
BRANCH  20  25
HETATM   25  O2  UNL     1      26.440  -2.235  52.302  1.00  0.00    -0.360 OA
HETATM   26  H14 UNL     1      26.825  -2.292  51.346  1.00  0.00     0.217 HD
ENDBRANCH  20  25
ENDBRANCH  18  19
ENDBRANCH  13  18
BRANCH   1  27
HETATM   27  C2  UNL     1      24.457   5.488  48.925  1.00  0.00    -0.008 C 
HETATM   28  C1  UNL     1      25.107   6.547  48.487  1.00  0.00     0.011 C 
ENDBRANCH   1  27
TORSDOF 4
ENDMDL
MODEL 5
REMARK VINA RESULT:      -7.8      2.084      5.958
REMARK  4 active torsions:
REMARK  status: ('A' for Active; 'I' for Inactive)
REMARK    1  A    between atoms: C2_2  and  C3_3 
REMARK    2  A    between atoms: N2_15  and  C12_16 
REMARK    3  A    between atoms: C12_16  and  C13_17 
REMARK    4  A    between atoms: C14_18  and  O2_19 
ROOT
HETATM    1  C3  UNL     1      26.009  -0.868  53.252  1.00  0.00     0.029 C 
HETATM    2  C4  UNL     1      25.163   0.050  52.828  1.00  0.00     0.038 C 
HETATM    3  N1  UNL     1      25.784   0.808  51.811  1.00  0.00    -0.327 N 
HETATM    4  C5  UNL     1      25.621   2.198  51.557  1.00  0.00     0.220 C 
HETATM    5  S1  UNL     1      26.465   2.898  50.320  1.00  0.00    -0.033 SA
HETATM    6  O1  UNL     1      24.861   3.228  52.142  1.00  0.00    -0.286 OA
HETATM    7  C6  UNL     1      23.686   3.519  51.395  1.00  0.00     0.082 C 
HETATM    8  C7  UNL     1      22.481   2.997  51.583  1.00  0.00     0.042 C 
HETATM    9  C8  UNL     1      21.605   3.597  50.568  1.00  0.00     0.086 C 
HETATM   10  C9  UNL     1      22.167   3.454  49.165  1.00  0.00    -0.024 C 
HETATM   11  C10 UNL     1      23.407   3.952  48.995  1.00  0.00    -0.024 C 
HETATM   12  C11 UNL     1      23.854   4.511  50.304  1.00  0.00     0.094 C 
HETATM   13  N2  UNL     1      22.069   2.048  52.558  1.00  0.00    -0.367 N 
HETATM   14  C18 UNL     1      23.215   1.181  52.776  1.00  0.00     0.143 C 
HETATM   15  C19 UNL     1      23.817   0.155  53.424  1.00  0.00    -0.032 C 
HETATM   16  C20 UNL     1      23.608  -0.893  54.512  1.00  0.00     0.048 C 
HETATM   17  H5  UNL     1      26.430   0.376  51.121  1.00  0.00     0.169 HD
ENDROOT
BRANCH  13  18
HETATM   18  C12 UNL     1      20.712   2.176  53.075  1.00  0.00     0.161 C 
BRANCH  18  19
HETATM   19  C13 UNL     1      19.773   1.135  52.649  1.00  0.00    -0.019 A 
HETATM   20  C14 UNL     1      19.671   0.125  53.532  1.00  0.00     0.070 A 
HETATM   21  C15 UNL     1      18.853  -1.066  53.458  1.00  0.00     0.043 A 
HETATM   22  C16 UNL     1      18.078  -1.253  52.412  1.00  0.00     0.048 A 
HETATM   23  S2  UNL     1      17.940  -0.142  51.044  1.00  0.00    -0.137 SA
HETATM   24  C17 UNL     1      19.054   1.251  51.360  1.00  0.00     0.117 A 
BRANCH  20  25
HETATM   25  O2  UNL     1      20.417   0.120  54.731  1.00  0.00    -0.360 OA
HETATM   26  H14 UNL     1      19.955   0.650  55.486  1.00  0.00     0.217 HD
ENDBRANCH  20  25
ENDBRANCH  18  19
ENDBRANCH  13  18
BRANCH   1  27
HETATM   27  C2  UNL     1      27.327  -0.997  52.708  1.00  0.00    -0.008 C 
HETATM   28  C1  UNL     1      28.378  -0.769  53.468  1.00  0.00     0.011 C 
ENDBRANCH   1  27
TORSDOF 4
ENDMDL
MODEL 6
REMARK VINA RESULT:      -7.6      3.392      6.467
REMARK  4 active torsions:
REMARK  status: ('A' for Active; 'I' for Inactive)
REMARK    1  A    between atoms: C2_2  and  C3_3 
REMARK    2  A    between atoms: N2_15  and  C12_16 
REMARK    3  A    between atoms: C12_16  and  C13_17 
REMARK    4  A    between atoms: C14_18  and  O2_19 
ROOT
HETATM    1  C3  UNL     1      27.367   4.833  48.878  1.00  0.00     0.029 C 
HETATM    2  C4  UNL     1      26.156   4.877  49.396  1.00  0.00     0.038 C 
HETATM    3  N1  UNL     1      25.545   6.095  49.024  1.00  0.00    -0.327 N 
HETATM    4  C5  UNL     1      24.652   6.881  49.805  1.00  0.00     0.220 C 
HETATM    5  S1  UNL     1      24.064   8.294  49.183  1.00  0.00    -0.033 SA
HETATM    6  O1  UNL     1      24.091   6.757  51.090  1.00  0.00    -0.286 OA
HETATM    7  C6  UNL     1      22.752   6.277  51.047  1.00  0.00     0.082 C 
HETATM    8  C7  UNL     1      22.363   5.012  51.135  1.00  0.00     0.042 C 
HETATM    9  C8  UNL     1      20.898   5.019  51.033  1.00  0.00     0.086 C 
HETATM   10  C9  UNL     1      20.410   5.769  49.806  1.00  0.00    -0.024 C 
HETATM   11  C10 UNL     1      20.843   7.041  49.707  1.00  0.00    -0.024 C 
HETATM   12  C11 UNL     1      21.707   7.319  50.890  1.00  0.00     0.094 C 
HETATM   13  N2  UNL     1      23.163   3.848  51.299  1.00  0.00    -0.367 N 
HETATM   14  C18 UNL     1      24.405   4.119  50.594  1.00  0.00     0.143 C 
HETATM   15  C19 UNL     1      25.658   3.761  50.223  1.00  0.00    -0.032 C 
HETATM   16  C20 UNL     1      26.700   2.656  50.351  1.00  0.00     0.048 C 
HETATM   17  H5  UNL     1      25.698   6.523  48.089  1.00  0.00     0.169 HD
ENDROOT
BRANCH  13  18
HETATM   18  C12 UNL     1      22.597   2.761  52.088  1.00  0.00     0.161 C 
BRANCH  18  19
HETATM   19  C13 UNL     1      23.569   1.891  52.754  1.00  0.00    -0.019 A 
HETATM   20  C14 UNL     1      23.243   0.588  52.686  1.00  0.00     0.070 A 
HETATM   21  C15 UNL     1      23.952  -0.554  53.221  1.00  0.00     0.043 A 
HETATM   22  C16 UNL     1      25.077  -0.368  53.874  1.00  0.00     0.048 A 
HETATM   23  S2  UNL     1      25.828   1.206  54.167  1.00  0.00    -0.137 SA
HETATM   24  C17 UNL     1      24.761   2.465  53.419  1.00  0.00     0.117 A 
BRANCH  20  25
HETATM   25  O2  UNL     1      22.070   0.158  52.028  1.00  0.00    -0.360 OA
HETATM   26  H14 UNL     1      22.230  -0.670  51.435  1.00  0.00     0.217 HD
ENDBRANCH  20  25
ENDBRANCH  18  19
ENDBRANCH  13  18
BRANCH   1  27
HETATM   27  C2  UNL     1      27.892   5.899  48.079  1.00  0.00    -0.008 C 
HETATM   28  C1  UNL     1      29.194   6.098  48.022  1.00  0.00     0.011 C 
ENDBRANCH   1  27
TORSDOF 4
ENDMDL
MODEL 7
REMARK VINA RESULT:      -7.5      8.943     12.023
REMARK  4 active torsions:
REMARK  status: ('A' for Active; 'I' for Inactive)
REMARK    1  A    between atoms: C2_2  and  C3_3 
REMARK    2  A    between atoms: N2_15  and  C12_16 
REMARK    3  A    between atoms: C12_16  and  C13_17 
REMARK    4  A    between atoms: C14_18  and  O2_19 
ROOT
HETATM    1  C3  UNL     1      31.186   4.731  47.411  1.00  0.00     0.029 C 
HETATM    2  C4  UNL     1      31.046   6.041  47.433  1.00  0.00     0.038 C 
HETATM    3  N1  UNL     1      32.228   6.635  46.940  1.00  0.00    -0.327 N 
HETATM    4  C5  UNL     1      32.822   7.852  47.376  1.00  0.00     0.220 C 
HETATM    5  S1  UNL     1      34.230   8.361  46.675  1.00  0.00    -0.033 SA
HETATM    6  O1  UNL     1      32.494   8.824  48.340  1.00  0.00    -0.286 OA
HETATM    7  C6  UNL     1      31.886   9.973  47.760  1.00  0.00     0.082 C 
HETATM    8  C7  UNL     1      30.587  10.187  47.607  1.00  0.00     0.042 C 
HETATM    9  C8  UNL     1      30.454  11.498  46.958  1.00  0.00     0.086 C 
HETATM   10  C9  UNL     1      31.286  11.599  45.692  1.00  0.00    -0.024 C 
HETATM   11  C10 UNL     1      32.599  11.341  45.851  1.00  0.00    -0.024 C 
HETATM   12  C11 UNL     1      32.826  11.021  47.290  1.00  0.00     0.094 C 
HETATM   13  N2  UNL     1      29.501   9.350  47.984  1.00  0.00    -0.367 N 
HETATM   14  C18 UNL     1      29.977   7.987  47.822  1.00  0.00     0.143 C 
HETATM   15  C19 UNL     1      29.796   6.648  47.931  1.00  0.00    -0.032 C 
HETATM   16  C20 UNL     1      28.797   5.583  48.369  1.00  0.00     0.048 C 
HETATM   17  H5  UNL     1      32.775   6.210  46.165  1.00  0.00     0.169 HD
ENDROOT
BRANCH  13  18
HETATM   18  C12 UNL     1      28.277  10.009  48.422  1.00  0.00     0.161 C 
BRANCH  18  19
HETATM   19  C13 UNL     1      27.117   9.133  48.604  1.00  0.00    -0.019 A 
HETATM   20  C14 UNL     1      26.859   8.862  49.896  1.00  0.00     0.070 A 
HETATM   21  C15 UNL     1      25.808   8.044  50.460  1.00  0.00     0.043 A 
HETATM   22  C16 UNL     1      24.949   7.454  49.658  1.00  0.00     0.048 A 
HETATM   23  S2  UNL     1      24.964   7.574  47.894  1.00  0.00    -0.137 SA
HETATM   24  C17 UNL     1      26.362   8.631  47.434  1.00  0.00     0.117 A 
BRANCH  20  25
HETATM   25  O2  UNL     1      27.659   9.395  50.931  1.00  0.00    -0.360 OA
HETATM   26  H14 UNL     1      28.428   8.762  51.202  1.00  0.00     0.217 HD
ENDBRANCH  20  25
ENDBRANCH  18  19
ENDBRANCH  13  18
BRANCH   1  27
HETATM   27  C2  UNL     1      32.386   4.102  46.945  1.00  0.00    -0.008 C 
HETATM   28  C1  UNL     1      32.370   2.832  46.596  1.00  0.00     0.011 C 
ENDBRANCH   1  27
TORSDOF 4
ENDMDL
MODEL 8
REMARK VINA RESULT:      -7.4      9.184     12.201
REMARK  4 active torsions:
REMARK  status: ('A' for Active; 'I' for Inactive)
REMARK    1  A    between atoms: C2_2  and  C3_3 
REMARK    2  A    between atoms: N2_15  and  C12_16 
REMARK    3  A    between atoms: C12_16  and  C13_17 
REMARK    4  A    between atoms: C14_18  and  O2_19 
ROOT
HETATM    1  C3  UNL     1      27.386   6.144  48.629  1.00  0.00     0.029 C 
HETATM    2  C4  UNL     1      28.417   6.949  48.468  1.00  0.00     0.038 C 
HETATM    3  N1  UNL     1      29.585   6.170  48.315  1.00  0.00    -0.327 N 
HETATM    4  C5  UNL     1      30.891   6.480  48.786  1.00  0.00     0.220 C 
HETATM    5  S1  UNL     1      32.122   5.411  48.517  1.00  0.00    -0.033 SA
HETATM    6  O1  UNL     1      31.459   7.559  49.489  1.00  0.00    -0.286 OA
HETATM    7  C6  UNL     1      32.157   8.453  48.629  1.00  0.00     0.082 C 
HETATM    8  C7  UNL     1      31.664   9.540  48.051  1.00  0.00     0.042 C 
HETATM    9  C8  UNL     1      32.756  10.121  47.259  1.00  0.00     0.086 C 
HETATM   10  C9  UNL     1      33.386   9.110  46.318  1.00  0.00    -0.024 C 
HETATM   11  C10 UNL     1      33.848   7.992  46.911  1.00  0.00    -0.024 C 
HETATM   12  C11 UNL     1      33.578   8.109  48.373  1.00  0.00     0.094 C 
HETATM   13  N2  UNL     1      30.352  10.078  48.150  1.00  0.00    -0.367 N 
HETATM   14  C18 UNL     1      29.465   8.936  48.292  1.00  0.00     0.143 C 
HETATM   15  C19 UNL     1      28.229   8.413  48.477  1.00  0.00    -0.032 C 
HETATM   16  C20 UNL     1      26.765   8.783  48.686  1.00  0.00     0.048 C 
HETATM   17  H5  UNL     1      29.579   5.266  47.802  1.00  0.00     0.169 HD
ENDROOT
BRANCH  13  18
HETATM   18  C12 UNL     1      30.227  11.530  48.107  1.00  0.00     0.161 C 
BRANCH  18  19
HETATM   19  C13 UNL     1      28.982  12.040  47.526  1.00  0.00    -0.019 A 
HETATM   20  C14 UNL     1      28.219  12.701  48.415  1.00  0.00     0.070 A 
HETATM   21  C15 UNL     1      26.936  13.338  48.213  1.00  0.00     0.043 A 
HETATM   22  C16 UNL     1      26.380  13.307  47.022  1.00  0.00     0.048 A 
HETATM   23  S2  UNL     1      27.082  12.530  45.598  1.00  0.00    -0.137 SA
HETATM   24  C17 UNL     1      28.664  11.803  46.100  1.00  0.00     0.117 A 
BRANCH  20  25
HETATM   25  O2  UNL     1      28.625  12.857  49.758  1.00  0.00    -0.360 OA
HETATM   26  H14 UNL     1      27.842  13.104  50.382  1.00  0.00     0.217 HD
ENDBRANCH  20  25
ENDBRANCH  18  19
ENDBRANCH  13  18
BRANCH   1  27
HETATM   27  C2  UNL     1      27.527   4.719  48.636  1.00  0.00    -0.008 C 
HETATM   28  C1  UNL     1      26.740   3.984  49.395  1.00  0.00     0.011 C 
ENDBRANCH   1  27
TORSDOF 4
ENDMDL
MODEL 9
REMARK VINA RESULT:      -7.4      2.117      6.925
REMARK  4 active torsions:
REMARK  status: ('A' for Active; 'I' for Inactive)
REMARK    1  A    between atoms: C2_2  and  C3_3 
REMARK    2  A    between atoms: N2_15  and  C12_16 
REMARK    3  A    between atoms: C12_16  and  C13_17 
REMARK    4  A    between atoms: C14_18  and  O2_19 
ROOT
HETATM    1  C3  UNL     1      23.231   5.521  51.247  1.00  0.00     0.029 C 
HETATM    2  C4  UNL     1      23.336   4.289  51.702  1.00  0.00     0.038 C 
HETATM    3  N1  UNL     1      24.702   3.934  51.750  1.00  0.00    -0.327 N 
HETATM    4  C5  UNL     1      25.265   2.653  51.493  1.00  0.00     0.220 C 
HETATM    5  S1  UNL     1      26.903   2.458  51.581  1.00  0.00    -0.033 SA
HETATM    6  O1  UNL     1      24.740   1.393  51.149  1.00  0.00    -0.286 OA
HETATM    7  C6  UNL     1      24.658   0.521  52.270  1.00  0.00     0.082 C 
HETATM    8  C7  UNL     1      23.611   0.353  53.065  1.00  0.00     0.042 C 
HETATM    9  C8  UNL     1      24.009  -0.637  54.074  1.00  0.00     0.086 C 
HETATM   10  C9  UNL     1      25.304  -0.259  54.771  1.00  0.00    -0.024 C 
HETATM   11  C10 UNL     1      26.352  -0.052  53.951  1.00  0.00    -0.024 C 
HETATM   12  C11 UNL     1      25.882  -0.269  52.552  1.00  0.00     0.094 C 
HETATM   13  N2  UNL     1      22.335   0.978  52.995  1.00  0.00    -0.367 N 
HETATM   14  C18 UNL     1      22.578   2.316  52.482  1.00  0.00     0.143 C 
HETATM   15  C19 UNL     1      22.127   3.521  52.058  1.00  0.00    -0.032 C 
HETATM   16  C20 UNL     1      20.861   4.338  51.824  1.00  0.00     0.048 C 
HETATM   17  H5  UNL     1      25.439   4.621  52.007  1.00  0.00     0.169 HD
ENDROOT
BRANCH  13  18
HETATM   18  C12 UNL     1      21.184   0.182  53.404  1.00  0.00     0.161 C 
BRANCH  18  19
HETATM   19  C13 UNL     1      20.060   0.170  52.465  1.00  0.00    -0.019 A 
HETATM   20  C14 UNL     1      19.035  -0.596  52.881  1.00  0.00     0.070 A 
HETATM   21  C15 UNL     1      17.768  -0.849  52.230  1.00  0.00     0.043 A 
HETATM   22  C16 UNL     1      17.515  -0.286  51.069  1.00  0.00     0.048 A 
HETATM   23  S2  UNL     1      18.620   0.788  50.203  1.00  0.00    -0.137 SA
HETATM   24  C17 UNL     1      20.124   0.941  51.203  1.00  0.00     0.117 A 
BRANCH  20  25
HETATM   25  O2  UNL     1      19.092  -1.295  54.107  1.00  0.00    -0.360 OA
HETATM   26  H14 UNL     1      19.981  -1.803  54.230  1.00  0.00     0.217 HD
ENDBRANCH  20  25
ENDBRANCH  18  19
ENDBRANCH  13  18
BRANCH   1  27
HETATM   27  C2  UNL     1      24.378   6.297  50.881  1.00  0.00    -0.008 C 
HETATM   28  C1  UNL     1      24.309   7.613  50.883  1.00  0.00     0.011 C 
ENDBRANCH   1  27
TORSDOF 4
ENDMDL
