MODEL 1
REMARK VINA RESULT:      -7.8      0.000      0.000
REMARK  7 active torsions:
REMARK  status: ('A' for Active; 'I' for Inactive)
REMARK    1  A    between atoms: C2_2  and  C3_3 
REMARK       I    between atoms: C3_3  and  N1_5 
REMARK    2  A    between atoms: N1_5  and  C4_6 
REMARK    3  A    between atoms: C4_6  and  C5_7 
REMARK    4  A    between atoms: C5_7  and  O2_8 
REMARK    5  A    between atoms: C9_12  and  C10_13 
REMARK    6  A    between atoms: C16_23  and  C17_24 
REMARK    7  A    between atoms: C17_24  and  N4_25 
ROOT
HETATM    1  C4  UNL     1      22.053   0.824  52.915  1.00  0.00     0.048 C 
HETATM    2  C7  UNL     1      23.107   1.546  52.777  1.00  0.00     0.019 A 
HETATM    3  C8  UNL     1      24.405   0.924  53.002  1.00  0.00     0.047 A 
HETATM    4  C9  UNL     1      25.598   1.470  52.924  1.00  0.00     0.061 A 
HETATM    5  N2  UNL     1      25.592   2.848  52.572  1.00  0.00    -0.277 N 
HETATM    6  N3  UNL     1      24.389   3.510  52.342  1.00  0.00    -0.176 NA
HETATM    7  C16 UNL     1      23.228   2.953  52.426  1.00  0.00     0.094 A 
HETATM    8  H14 UNL     1      26.389   3.504  52.446  1.00  0.00     0.189 HD
ENDROOT
BRANCH   1   9
HETATM    9  N1  UNL     1      20.757   1.342  52.715  1.00  0.00    -0.324 N 
HETATM   10  C3  UNL     1      20.007   1.053  51.549  1.00  0.00     0.244 C 
HETATM   11  O1  UNL     1      20.272   0.358  50.562  1.00  0.00    -0.268 OA
HETATM   12  H4  UNL     1      19.978   1.922  53.067  1.00  0.00     0.169 HD
BRANCH  10  13
HETATM   13  C2  UNL     1      18.736   1.341  50.943  1.00  0.00     0.064 C 
HETATM   14  C1  UNL     1      18.087   0.174  51.001  1.00  0.00     0.017 C 
ENDBRANCH  10  13
ENDBRANCH   1   9
BRANCH   1  15
HETATM   15  C5  UNL     1      22.114  -0.585  53.311  1.00  0.00     0.225 C 
BRANCH  15  16
HETATM   16  O2  UNL     1      21.701  -0.719  54.655  1.00  0.00    -0.390 OA
HETATM   17  C6  UNL     1      22.733  -1.380  55.330  1.00  0.00     0.201 C 
ENDBRANCH  15  16
ENDBRANCH   1  15
BRANCH   7  18
HETATM   18  C17 UNL     1      22.032   3.789  52.161  1.00  0.00     0.328 C 
BRANCH  18  19
HETATM   19  N4  UNL     1      22.414   5.180  52.506  1.00  0.00     0.084 N 
HETATM   20  H17 UNL     1      22.724   5.124  53.501  1.00  0.00     0.313 HD
HETATM   21  H18 UNL     1      21.614   5.811  52.360  1.00  0.00     0.313 HD
ENDBRANCH  18  19
ENDBRANCH   7  18
BRANCH   4  22
HETATM   22  C10 UNL     1      26.896   0.855  53.147  1.00  0.00    -0.006 A 
HETATM   23  C11 UNL     1      27.996   1.579  53.526  1.00  0.00     0.017 A 
HETATM   24  C12 UNL     1      29.222   1.025  53.741  1.00  0.00     0.045 A 
HETATM   25  C13 UNL     1      29.435  -0.329  53.586  1.00  0.00     0.138 A 
HETATM   26  F1  UNL     1      30.654  -0.875  53.801  1.00  0.00    -0.204 F 
HETATM   27  C14 UNL     1      28.358  -1.105  53.205  1.00  0.00     0.073 A 
HETATM   28 CL1  UNL     1      28.619  -2.824  53.006  1.00  0.00    -0.081 Cl
HETATM   29  C15 UNL     1      27.138  -0.494  53.000  1.00  0.00     0.040 A 
ENDBRANCH   4  22
TORSDOF 7
ENDMDL
MODEL 2
REMARK VINA RESULT:      -7.6      2.202      3.415
REMARK  7 active torsions:
REMARK  status: ('A' for Active; 'I' for Inactive)
REMARK    1  A    between atoms: C2_2  and  C3_3 
REMARK       I    between atoms: C3_3  and  N1_5 
REMARK    2  A    between atoms: N1_5  and  C4_6 
REMARK    3  A    between atoms: C4_6  and  C5_7 
REMARK    4  A    between atoms: C5_7  and  O2_8 
REMARK    5  A    between atoms: C9_12  and  C10_13 
REMARK    6  A    between atoms: C16_23  and  C17_24 
REMARK    7  A    between atoms: C17_24  and  N4_25 
ROOT
HETATM    1  C4  UNL     1      21.924   1.724  52.369  1.00  0.00     0.048 C 
HETATM    2  C7  UNL     1      22.523   0.868  53.118  1.00  0.00     0.019 A 
HETATM    3  C8  UNL     1      23.976   0.781  53.042  1.00  0.00     0.047 A 
HETATM    4  C9  UNL     1      24.784  -0.017  53.704  1.00  0.00     0.061 A 
HETATM    5  N2  UNL     1      24.128  -0.899  54.607  1.00  0.00    -0.277 N 
HETATM    6  N3  UNL     1      22.742  -0.873  54.734  1.00  0.00    -0.176 NA
HETATM    7  C16 UNL     1      21.968  -0.081  54.071  1.00  0.00     0.094 A 
HETATM    8  H14 UNL     1      24.530  -1.619  55.240  1.00  0.00     0.189 HD
ENDROOT
BRANCH   1   9
HETATM    9  N1  UNL     1      20.522   1.877  52.380  1.00  0.00    -0.324 N 
HETATM   10  C3  UNL     1      19.702   1.320  51.369  1.00  0.00     0.244 C 
HETATM   11  O1  UNL     1      19.982   0.647  50.372  1.00  0.00    -0.268 OA
HETATM   12  H4  UNL     1      19.684   2.262  52.843  1.00  0.00     0.169 HD
BRANCH  10  13
HETATM   13  C2  UNL     1      18.321   1.228  50.982  1.00  0.00     0.064 C 
HETATM   14  C1  UNL     1      18.009  -0.049  51.228  1.00  0.00     0.017 C 
ENDBRANCH  10  13
ENDBRANCH   1   9
BRANCH   1  15
HETATM   15  C5  UNL     1      22.646   2.587  51.431  1.00  0.00     0.225 C 
BRANCH  15  16
HETATM   16  O2  UNL     1      22.570   3.928  51.864  1.00  0.00    -0.390 OA
HETATM   17  C6  UNL     1      23.832   4.493  51.653  1.00  0.00     0.201 C 
ENDBRANCH  15  16
ENDBRANCH   1  15
BRANCH   7  18
HETATM   18  C17 UNL     1      20.507  -0.174  54.306  1.00  0.00     0.328 C 
BRANCH  18  19
HETATM   19  N4  UNL     1      20.161  -1.612  54.199  1.00  0.00     0.084 N 
HETATM   20  H17 UNL     1      20.547  -2.037  55.070  1.00  0.00     0.313 HD
HETATM   21  H18 UNL     1      20.562  -2.007  53.336  1.00  0.00     0.313 HD
ENDBRANCH  18  19
ENDBRANCH   7  18
BRANCH   4  22
HETATM   22  C10 UNL     1      26.232  -0.108  53.632  1.00  0.00    -0.006 A 
HETATM   23  C11 UNL     1      26.873  -1.202  53.113  1.00  0.00     0.017 A 
HETATM   24  C12 UNL     1      28.230  -1.311  53.034  1.00  0.00     0.045 A 
HETATM   25  C13 UNL     1      29.058  -0.303  53.484  1.00  0.00     0.138 A 
HETATM   26  F1  UNL     1      30.403  -0.416  53.403  1.00  0.00    -0.204 F 
HETATM   27  C14 UNL     1      28.461   0.822  54.017  1.00  0.00     0.073 A 
HETATM   28 CL1  UNL     1      29.504   2.105  54.590  1.00  0.00    -0.081 Cl
HETATM   29  C15 UNL     1      27.084   0.882  54.073  1.00  0.00     0.040 A 
ENDBRANCH   4  22
TORSDOF 7
ENDMDL
MODEL 3
REMARK VINA RESULT:      -7.5      4.345      7.433
REMARK  7 active torsions:
REMARK  status: ('A' for Active; 'I' for Inactive)
REMARK    1  A    between atoms: C2_2  and  C3_3 
REMARK       I    between atoms: C3_3  and  N1_5 
REMARK    2  A    between atoms: N1_5  and  C4_6 
REMARK    3  A    between atoms: C4_6  and  C5_7 
REMARK    4  A    between atoms: C5_7  and  O2_8 
REMARK    5  A    between atoms: C9_12  and  C10_13 
REMARK    6  A    between atoms: C16_23  and  C17_24 
REMARK    7  A    between atoms: C17_24  and  N4_25 
ROOT
HETATM    1  C4  UNL     1      25.799   0.158  53.602  1.00  0.00     0.048 C 
HETATM    2  C7  UNL     1      24.976   0.721  52.791  1.00  0.00     0.019 A 
HETATM    3  C8  UNL     1      23.575   0.323  52.843  1.00  0.00     0.047 A 
HETATM    4  C9  UNL     1      22.573   0.758  52.111  1.00  0.00     0.061 A 
HETATM    5  N2  UNL     1      22.931   1.746  51.153  1.00  0.00    -0.277 N 
HETATM    6  N3  UNL     1      24.251   2.176  51.045  1.00  0.00    -0.176 NA
HETATM    7  C16 UNL     1      25.219   1.733  51.775  1.00  0.00     0.094 A 
HETATM    8  H14 UNL     1      22.337   2.245  50.461  1.00  0.00     0.189 HD
ENDROOT
BRANCH   1   9
HETATM    9  N1  UNL     1      27.171   0.484  53.622  1.00  0.00    -0.324 N 
HETATM   10  C3  UNL     1      28.176  -0.504  53.481  1.00  0.00     0.244 C 
HETATM   11  O1  UNL     1      28.099  -1.726  53.318  1.00  0.00    -0.268 OA
HETATM   12  H4  UNL     1      27.901   1.209  53.706  1.00  0.00     0.169 HD
BRANCH  10  13
HETATM   13  C2  UNL     1      29.606  -0.640  53.451  1.00  0.00     0.064 C 
HETATM   14  C1  UNL     1      29.796  -1.962  53.400  1.00  0.00     0.017 C 
ENDBRANCH  10  13
ENDBRANCH   1   9
BRANCH   1  15
HETATM   15  C5  UNL     1      25.383  -0.879  54.548  1.00  0.00     0.225 C 
BRANCH  15  16
HETATM   16  O2  UNL     1      25.911  -0.597  55.826  1.00  0.00    -0.390 OA
HETATM   17  C6  UNL     1      24.939  -0.977  56.758  1.00  0.00     0.201 C 
ENDBRANCH  15  16
ENDBRANCH   1  15
BRANCH   7  18
HETATM   18  C17 UNL     1      26.578   2.281  51.540  1.00  0.00     0.328 C 
BRANCH  18  19
HETATM   19  N4  UNL     1      26.387   3.580  50.851  1.00  0.00     0.084 N 
HETATM   20  H17 UNL     1      26.929   3.485  49.965  1.00  0.00     0.313 HD
HETATM   21  H18 UNL     1      26.715   4.349  51.453  1.00  0.00     0.313 HD
ENDBRANCH  18  19
ENDBRANCH   7  18
BRANCH   4  22
HETATM   22  C10 UNL     1      21.175   0.365  52.158  1.00  0.00    -0.006 A 
HETATM   23  C11 UNL     1      20.629  -0.278  53.238  1.00  0.00     0.017 A 
HETATM   24  C12 UNL     1      19.322  -0.656  53.306  1.00  0.00     0.045 A 
HETATM   25  C13 UNL     1      18.449  -0.410  52.266  1.00  0.00     0.138 A 
HETATM   26  F1  UNL     1      17.152  -0.787  52.338  1.00  0.00    -0.204 F 
HETATM   27  C14 UNL     1      18.949   0.236  51.153  1.00  0.00     0.073 A 
HETATM   28 CL1  UNL     1      17.849   0.553  49.829  1.00  0.00    -0.081 Cl
HETATM   29  C15 UNL     1      20.280   0.598  51.135  1.00  0.00     0.040 A 
ENDBRANCH   4  22
TORSDOF 7
ENDMDL
MODEL 4
REMARK VINA RESULT:      -7.4      4.568      8.031
REMARK  7 active torsions:
REMARK  status: ('A' for Active; 'I' for Inactive)
REMARK    1  A    between atoms: C2_2  and  C3_3 
REMARK       I    between atoms: C3_3  and  N1_5 
REMARK    2  A    between atoms: N1_5  and  C4_6 
REMARK    3  A    between atoms: C4_6  and  C5_7 
REMARK    4  A    between atoms: C5_7  and  O2_8 
REMARK    5  A    between atoms: C9_12  and  C10_13 
REMARK    6  A    between atoms: C16_23  and  C17_24 
REMARK    7  A    between atoms: C17_24  and  N4_25 
ROOT
HETATM    1  C4  UNL     1      25.798   1.574  51.936  1.00  0.00     0.048 C 
HETATM    2  C7  UNL     1      24.772   0.929  52.365  1.00  0.00     0.019 A 
HETATM    3  C8  UNL     1      23.449   1.406  51.985  1.00  0.00     0.047 A 
HETATM    4  C9  UNL     1      22.276   0.910  52.311  1.00  0.00     0.061 A 
HETATM    5  N2  UNL     1      22.336  -0.241  53.144  1.00  0.00    -0.277 N 
HETATM    6  N3  UNL     1      23.566  -0.754  53.548  1.00  0.00    -0.176 NA
HETATM    7  C16 UNL     1      24.706  -0.249  53.216  1.00  0.00     0.094 A 
HETATM    8  H14 UNL     1      21.564  -0.816  53.539  1.00  0.00     0.189 HD
ENDROOT
BRANCH   1   9
HETATM    9  N1  UNL     1      27.115   1.183  52.253  1.00  0.00    -0.324 N 
HETATM   10  C3  UNL     1      27.829   1.762  53.330  1.00  0.00     0.244 C 
HETATM   11  O1  UNL     1      27.504   2.629  54.148  1.00  0.00    -0.268 OA
HETATM   12  H4  UNL     1      27.931   0.586  52.039  1.00  0.00     0.169 HD
BRANCH  10  13
HETATM   13  C2  UNL     1      29.108   1.695  53.982  1.00  0.00     0.064 C 
HETATM   14  C1  UNL     1      29.488   0.426  53.801  1.00  0.00     0.017 C 
ENDBRANCH  10  13
ENDBRANCH   1   9
BRANCH   1  15
HETATM   15  C5  UNL     1      25.680   2.775  51.107  1.00  0.00     0.225 C 
BRANCH  15  16
HETATM   16  O2  UNL     1      26.807   2.886  50.265  1.00  0.00    -0.390 OA
HETATM   17  C6  UNL     1      26.594   4.001  49.448  1.00  0.00     0.201 C 
ENDBRANCH  15  16
ENDBRANCH   1  15
BRANCH   7  18
HETATM   18  C17 UNL     1      25.935  -0.901  53.731  1.00  0.00     0.328 C 
BRANCH  18  19
HETATM   19  N4  UNL     1      25.968  -0.629  55.188  1.00  0.00     0.084 N 
HETATM   20  H17 UNL     1      25.149  -0.003  55.354  1.00  0.00     0.313 HD
HETATM   21  H18 UNL     1      26.869  -0.204  55.447  1.00  0.00     0.313 HD
ENDBRANCH  18  19
ENDBRANCH   7  18
BRANCH   4  22
HETATM   22  C10 UNL     1      20.954   1.380  51.935  1.00  0.00    -0.006 A 
HETATM   23  C11 UNL     1      20.553   2.676  52.128  1.00  0.00     0.017 A 
HETATM   24  C12 UNL     1      19.319   3.141  51.784  1.00  0.00     0.045 A 
HETATM   25  C13 UNL     1      18.377   2.315  51.208  1.00  0.00     0.138 A 
HETATM   26  F1  UNL     1      17.153   2.781  50.867  1.00  0.00    -0.204 F 
HETATM   27  C14 UNL     1      18.730   0.997  50.992  1.00  0.00     0.073 A 
HETATM   28 CL1  UNL     1      17.540  -0.058  50.262  1.00  0.00    -0.081 Cl
HETATM   29  C15 UNL     1      19.991   0.578  51.359  1.00  0.00     0.040 A 
ENDBRANCH   4  22
TORSDOF 7
ENDMDL
MODEL 5
REMARK VINA RESULT:      -7.4      4.529      7.895
REMARK  7 active torsions:
REMARK  status: ('A' for Active; 'I' for Inactive)
REMARK    1  A    between atoms: C2_2  and  C3_3 
REMARK       I    between atoms: C3_3  and  N1_5 
REMARK    2  A    between atoms: N1_5  and  C4_6 
REMARK    3  A    between atoms: C4_6  and  C5_7 
REMARK    4  A    between atoms: C5_7  and  O2_8 
REMARK    5  A    between atoms: C9_12  and  C10_13 
REMARK    6  A    between atoms: C16_23  and  C17_24 
REMARK    7  A    between atoms: C17_24  and  N4_25 
ROOT
HETATM    1  C4  UNL     1      24.914   1.976  53.226  1.00  0.00     0.048 C 
HETATM    2  C7  UNL     1      24.091   0.989  53.247  1.00  0.00     0.019 A 
HETATM    3  C8  UNL     1      22.849   1.109  52.495  1.00  0.00     0.047 A 
HETATM    4  C9  UNL     1      21.872   0.236  52.383  1.00  0.00     0.061 A 
HETATM    5  N2  UNL     1      22.082  -0.975  53.098  1.00  0.00    -0.277 N 
HETATM    6  N3  UNL     1      23.246  -1.162  53.839  1.00  0.00    -0.176 NA
HETATM    7  C16 UNL     1      24.192  -0.289  53.936  1.00  0.00     0.094 A 
HETATM    8  H14 UNL     1      21.473  -1.814  53.175  1.00  0.00     0.189 HD
ENDROOT
BRANCH   1   9
HETATM    9  N1  UNL     1      26.140   1.945  53.923  1.00  0.00    -0.324 N 
HETATM   10  C3  UNL     1      27.378   2.147  53.266  1.00  0.00     0.244 C 
HETATM   11  O1  UNL     1      27.643   2.379  52.082  1.00  0.00    -0.268 OA
HETATM   12  H4  UNL     1      26.639   1.825  54.819  1.00  0.00     0.169 HD
BRANCH  10  13
HETATM   13  C2  UNL     1      28.788   2.194  53.540  1.00  0.00     0.064 C 
HETATM   14  C1  UNL     1      29.068   0.956  53.962  1.00  0.00     0.017 C 
ENDBRANCH  10  13
ENDBRANCH   1   9
BRANCH   1  15
HETATM   15  C5  UNL     1      24.633   3.216  52.499  1.00  0.00     0.225 C 
BRANCH  15  16
HETATM   16  O2  UNL     1      24.042   4.155  53.371  1.00  0.00    -0.390 OA
HETATM   17  C6  UNL     1      23.101   4.868  52.619  1.00  0.00     0.201 C 
ENDBRANCH  15  16
ENDBRANCH   1  15
BRANCH   7  18
HETATM   18  C17 UNL     1      25.371  -0.626  54.770  1.00  0.00     0.328 C 
BRANCH  18  19
HETATM   19  N4  UNL     1      24.854  -1.400  55.924  1.00  0.00     0.084 N 
HETATM   20  H17 UNL     1      24.861  -2.391  55.596  1.00  0.00     0.313 HD
HETATM   21  H18 UNL     1      23.917  -1.061  56.184  1.00  0.00     0.313 HD
ENDBRANCH  18  19
ENDBRANCH   7  18
BRANCH   4  22
HETATM   22  C10 UNL     1      20.632   0.351  51.636  1.00  0.00    -0.006 A 
HETATM   23  C11 UNL     1      20.552   1.024  50.445  1.00  0.00     0.017 A 
HETATM   24  C12 UNL     1      19.401   1.145  49.725  1.00  0.00     0.045 A 
HETATM   25  C13 UNL     1      18.219   0.584  50.163  1.00  0.00     0.138 A 
HETATM   26  F1  UNL     1      17.079   0.706  49.445  1.00  0.00    -0.204 F 
HETATM   27  C14 UNL     1      18.245  -0.106  51.359  1.00  0.00     0.073 A 
HETATM   28 CL1  UNL     1      16.750  -0.820  51.922  1.00  0.00    -0.081 Cl
HETATM   29  C15 UNL     1      19.436  -0.198  52.048  1.00  0.00     0.040 A 
ENDBRANCH   4  22
TORSDOF 7
ENDMDL
MODEL 6
REMARK VINA RESULT:      -7.3      4.527      5.990
REMARK  7 active torsions:
REMARK  status: ('A' for Active; 'I' for Inactive)
REMARK    1  A    between atoms: C2_2  and  C3_3 
REMARK       I    between atoms: C3_3  and  N1_5 
REMARK    2  A    between atoms: N1_5  and  C4_6 
REMARK    3  A    between atoms: C4_6  and  C5_7 
REMARK    4  A    between atoms: C5_7  and  O2_8 
REMARK    5  A    between atoms: C9_12  and  C10_13 
REMARK    6  A    between atoms: C16_23  and  C17_24 
REMARK    7  A    between atoms: C17_24  and  N4_25 
ROOT
HETATM    1  C4  UNL     1      23.143   1.243  51.554  1.00  0.00     0.048 C 
HETATM    2  C7  UNL     1      24.323   1.752  51.543  1.00  0.00     0.019 A 
HETATM    3  C8  UNL     1      24.575   2.894  50.674  1.00  0.00     0.047 A 
HETATM    4  C9  UNL     1      25.695   3.560  50.502  1.00  0.00     0.061 A 
HETATM    5  N2  UNL     1      26.787   3.084  51.279  1.00  0.00    -0.277 N 
HETATM    6  N3  UNL     1      26.622   1.997  52.133  1.00  0.00    -0.176 NA
HETATM    7  C16 UNL     1      25.511   1.357  52.284  1.00  0.00     0.094 A 
HETATM    8  H14 UNL     1      27.767   3.429  51.328  1.00  0.00     0.189 HD
ENDROOT
BRANCH   1   9
HETATM    9  N1  UNL     1      22.810   0.139  52.365  1.00  0.00    -0.324 N 
HETATM   10  C3  UNL     1      21.800   0.216  53.355  1.00  0.00     0.244 C 
HETATM   11  O1  UNL     1      21.059   1.146  53.691  1.00  0.00    -0.268 OA
HETATM   12  H4  UNL     1      22.980  -0.847  52.621  1.00  0.00     0.169 HD
BRANCH  10  13
HETATM   13  C2  UNL     1      21.162  -0.590  54.359  1.00  0.00     0.064 C 
HETATM   14  C1  UNL     1      22.185  -1.187  54.980  1.00  0.00     0.017 C 
ENDBRANCH  10  13
ENDBRANCH   1   9
BRANCH   1  15
HETATM   15  C5  UNL     1      22.062   1.752  50.708  1.00  0.00     0.225 C 
BRANCH  15  16
HETATM   16  O2  UNL     1      21.625   0.736  49.831  1.00  0.00    -0.390 OA
HETATM   17  C6  UNL     1      21.620   1.287  48.544  1.00  0.00     0.201 C 
ENDBRANCH  15  16
ENDBRANCH   1  15
BRANCH   7  18
HETATM   18  C17 UNL     1      25.489   0.210  53.225  1.00  0.00     0.328 C 
BRANCH  18  19
HETATM   19  N4  UNL     1      26.322   0.610  54.385  1.00  0.00     0.084 N 
HETATM   20  H17 UNL     1      25.969   1.558  54.643  1.00  0.00     0.313 HD
HETATM   21  H18 UNL     1      27.317   0.599  54.123  1.00  0.00     0.313 HD
ENDBRANCH  18  19
ENDBRANCH   7  18
BRANCH   4  22
HETATM   22  C10 UNL     1      25.952   4.699  49.637  1.00  0.00    -0.006 A 
HETATM   23  C11 UNL     1      24.967   5.576  49.266  1.00  0.00     0.017 A 
HETATM   24  C12 UNL     1      25.183   6.651  48.457  1.00  0.00     0.045 A 
HETATM   25  C13 UNL     1      26.436   6.926  47.949  1.00  0.00     0.138 A 
HETATM   26  F1  UNL     1      26.647   7.994  47.146  1.00  0.00    -0.204 F 
HETATM   27  C14 UNL     1      27.466   6.072  48.292  1.00  0.00     0.073 A 
HETATM   28 CL1  UNL     1      29.058   6.413  47.653  1.00  0.00    -0.081 Cl
HETATM   29  C15 UNL     1      27.193   4.999  49.115  1.00  0.00     0.040 A 
ENDBRANCH   4  22
TORSDOF 7
ENDMDL
MODEL 7
REMARK VINA RESULT:      -7.2      4.639      8.069
REMARK  7 active torsions:
REMARK  status: ('A' for Active; 'I' for Inactive)
REMARK    1  A    between atoms: C2_2  and  C3_3 
REMARK       I    between atoms: C3_3  and  N1_5 
REMARK    2  A    between atoms: N1_5  and  C4_6 
REMARK    3  A    between atoms: C4_6  and  C5_7 
REMARK    4  A    between atoms: C5_7  and  O2_8 
REMARK    5  A    between atoms: C9_12  and  C10_13 
REMARK    6  A    between atoms: C16_23  and  C17_24 
REMARK    7  A    between atoms: C17_24  and  N4_25 
ROOT
HETATM    1  C4  UNL     1      24.514   0.754  53.036  1.00  0.00     0.048 C 
HETATM    2  C7  UNL     1      23.654   0.003  53.626  1.00  0.00     0.019 A 
HETATM    3  C8  UNL     1      22.286  -0.006  53.125  1.00  0.00     0.047 A 
HETATM    4  C9  UNL     1      21.254  -0.685  53.575  1.00  0.00     0.061 A 
HETATM    5  N2  UNL     1      21.538  -1.511  54.697  1.00  0.00    -0.277 N 
HETATM    6  N3  UNL     1      22.823  -1.555  55.231  1.00  0.00    -0.176 NA
HETATM    7  C16 UNL     1      23.822  -0.877  54.773  1.00  0.00     0.094 A 
HETATM    8  H14 UNL     1      20.908  -2.140  55.235  1.00  0.00     0.189 HD
ENDROOT
BRANCH   1   9
HETATM    9  N1  UNL     1      25.860   0.823  53.453  1.00  0.00    -0.324 N 
HETATM   10  C3  UNL     1      26.860  -0.006  52.889  1.00  0.00     0.244 C 
HETATM   11  O1  UNL     1      26.801  -0.867  52.005  1.00  0.00    -0.268 OA
HETATM   12  H4  UNL     1      26.568   1.254  54.068  1.00  0.00     0.169 HD
BRANCH  10  13
HETATM   13  C2  UNL     1      28.267  -0.279  52.993  1.00  0.00     0.064 C 
HETATM   14  C1  UNL     1      28.535  -0.066  54.286  1.00  0.00     0.017 C 
ENDBRANCH  10  13
ENDBRANCH   1   9
BRANCH   1  15
HETATM   15  C5  UNL     1      24.160   1.612  51.904  1.00  0.00     0.225 C 
BRANCH  15  16
HETATM   16  O2  UNL     1      24.162   2.963  52.312  1.00  0.00    -0.390 OA
HETATM   17  C6  UNL     1      23.026   3.557  51.751  1.00  0.00     0.201 C 
ENDBRANCH  15  16
ENDBRANCH   1  15
BRANCH   7  18
HETATM   18  C17 UNL     1      25.133  -1.019  55.452  1.00  0.00     0.328 C 
BRANCH  18  19
HETATM   19  N4  UNL     1      24.833  -1.256  56.885  1.00  0.00     0.084 N 
HETATM   20  H17 UNL     1      24.210  -0.463  57.154  1.00  0.00     0.313 HD
HETATM   21  H18 UNL     1      25.708  -1.293  57.426  1.00  0.00     0.313 HD
ENDBRANCH  18  19
ENDBRANCH   7  18
BRANCH   4  22
HETATM   22  C10 UNL     1      19.888  -0.697  53.079  1.00  0.00    -0.006 A 
HETATM   23  C11 UNL     1      18.903  -1.451  53.662  1.00  0.00     0.017 A 
HETATM   24  C12 UNL     1      17.615  -1.479  53.217  1.00  0.00     0.045 A 
HETATM   25  C13 UNL     1      17.217  -0.734  52.126  1.00  0.00     0.138 A 
HETATM   26  F1  UNL     1      15.938  -0.765  51.687  1.00  0.00    -0.204 F 
HETATM   27  C14 UNL     1      18.172   0.043  51.501  1.00  0.00     0.073 A 
HETATM   28 CL1  UNL     1      17.676   0.991  50.117  1.00  0.00    -0.081 Cl
HETATM   29  C15 UNL     1      19.461   0.036  51.992  1.00  0.00     0.040 A 
ENDBRANCH   4  22
TORSDOF 7
ENDMDL
MODEL 8
REMARK VINA RESULT:      -7.1      4.275      7.419
REMARK  7 active torsions:
REMARK  status: ('A' for Active; 'I' for Inactive)
REMARK    1  A    between atoms: C2_2  and  C3_3 
REMARK       I    between atoms: C3_3  and  N1_5 
REMARK    2  A    between atoms: N1_5  and  C4_6 
REMARK    3  A    between atoms: C4_6  and  C5_7 
REMARK    4  A    between atoms: C5_7  and  O2_8 
REMARK    5  A    between atoms: C9_12  and  C10_13 
REMARK    6  A    between atoms: C16_23  and  C17_24 
REMARK    7  A    between atoms: C17_24  and  N4_25 
ROOT
HETATM    1  C4  UNL     1      25.413   0.806  52.425  1.00  0.00     0.048 C 
HETATM    2  C7  UNL     1      24.287   1.360  52.151  1.00  0.00     0.019 A 
HETATM    3  C8  UNL     1      23.065   0.608  52.409  1.00  0.00     0.047 A 
HETATM    4  C9  UNL     1      21.820   0.973  52.200  1.00  0.00     0.061 A 
HETATM    5  N2  UNL     1      21.674   2.277  51.652  1.00  0.00    -0.277 N 
HETATM    6  N3  UNL     1      22.796   3.055  51.379  1.00  0.00    -0.176 NA
HETATM    7  C16 UNL     1      24.010   2.675  51.591  1.00  0.00     0.094 A 
HETATM    8  H14 UNL     1      20.810   2.796  51.396  1.00  0.00     0.189 HD
ENDROOT
BRANCH   1   9
HETATM    9  N1  UNL     1      26.643   1.461  52.210  1.00  0.00    -0.324 N 
HETATM   10  C3  UNL     1      27.475   1.861  53.284  1.00  0.00     0.244 C 
HETATM   11  O1  UNL     1      27.343   1.737  54.506  1.00  0.00    -0.268 OA
HETATM   12  H4  UNL     1      27.327   1.848  51.541  1.00  0.00     0.169 HD
BRANCH  10  13
HETATM   13  C2  UNL     1      28.727   2.520  53.536  1.00  0.00     0.064 C 
HETATM   14  C1  UNL     1      29.328   1.725  54.427  1.00  0.00     0.017 C 
ENDBRANCH  10  13
ENDBRANCH   1   9
BRANCH   1  15
HETATM   15  C5  UNL     1      25.509  -0.555  52.959  1.00  0.00     0.225 C 
BRANCH  15  16
HETATM   16  O2  UNL     1      26.328  -1.339  52.118  1.00  0.00    -0.390 OA
HETATM   17  C6  UNL     1      27.297  -1.931  52.936  1.00  0.00     0.201 C 
ENDBRANCH  15  16
ENDBRANCH   1  15
BRANCH   7  18
HETATM   18  C17 UNL     1      25.107   3.611  51.242  1.00  0.00     0.328 C 
BRANCH  18  19
HETATM   19  N4  UNL     1      24.499   4.963  51.199  1.00  0.00     0.084 N 
HETATM   20  H17 UNL     1      24.764   5.337  50.262  1.00  0.00     0.313 HD
HETATM   21  H18 UNL     1      24.849   5.532  51.983  1.00  0.00     0.313 HD
ENDBRANCH  18  19
ENDBRANCH   7  18
BRANCH   4  22
HETATM   22  C10 UNL     1      20.599   0.227  52.455  1.00  0.00    -0.006 A 
HETATM   23  C11 UNL     1      20.466  -0.620  53.523  1.00  0.00     0.017 A 
HETATM   24  C12 UNL     1      19.332  -1.330  53.784  1.00  0.00     0.045 A 
HETATM   25  C13 UNL     1      18.224  -1.236  52.967  1.00  0.00     0.138 A 
HETATM   26  F1  UNL     1      17.100  -1.942  53.229  1.00  0.00    -0.204 F 
HETATM   27  C14 UNL     1      18.306  -0.395  51.875  1.00  0.00     0.073 A 
HETATM   28 CL1  UNL     1      16.906  -0.271  50.833  1.00  0.00    -0.081 Cl
HETATM   29  C15 UNL     1      19.477   0.300  51.657  1.00  0.00     0.040 A 
ENDBRANCH   4  22
TORSDOF 7
ENDMDL
MODEL 9
REMARK VINA RESULT:      -7.0      2.176      3.364
REMARK  7 active torsions:
REMARK  status: ('A' for Active; 'I' for Inactive)
REMARK    1  A    between atoms: C2_2  and  C3_3 
REMARK       I    between atoms: C3_3  and  N1_5 
REMARK    2  A    between atoms: N1_5  and  C4_6 
REMARK    3  A    between atoms: C4_6  and  C5_7 
REMARK    4  A    between atoms: C5_7  and  O2_8 
REMARK    5  A    between atoms: C9_12  and  C10_13 
REMARK    6  A    between atoms: C16_23  and  C17_24 
REMARK    7  A    between atoms: C17_24  and  N4_25 
ROOT
HETATM    1  C4  UNL     1      22.665   3.463  52.325  1.00  0.00     0.048 C 
HETATM    2  C7  UNL     1      23.045   2.285  52.674  1.00  0.00     0.019 A 
HETATM    3  C8  UNL     1      24.474   2.023  52.780  1.00  0.00     0.047 A 
HETATM    4  C9  UNL     1      25.079   0.904  53.110  1.00  0.00     0.061 A 
HETATM    5  N2  UNL     1      24.199  -0.176  53.398  1.00  0.00    -0.277 N 
HETATM    6  N3  UNL     1      22.820  -0.000  53.318  1.00  0.00    -0.176 NA
HETATM    7  C16 UNL     1      22.249   1.109  52.990  1.00  0.00     0.094 A 
HETATM    8  H14 UNL     1      24.417  -1.153  53.680  1.00  0.00     0.189 HD
ENDROOT
BRANCH   1   9
HETATM    9  N1  UNL     1      21.303   3.804  52.200  1.00  0.00    -0.324 N 
HETATM   10  C3  UNL     1      20.630   3.751  50.955  1.00  0.00     0.244 C 
HETATM   11  O1  UNL     1      21.024   3.424  49.830  1.00  0.00    -0.268 OA
HETATM   12  H4  UNL     1      20.432   4.126  52.652  1.00  0.00     0.169 HD
BRANCH  10  13
HETATM   13  C2  UNL     1      19.337   3.997  50.377  1.00  0.00     0.064 C 
HETATM   14  C1  UNL     1      18.487   3.671  51.356  1.00  0.00     0.017 C 
ENDBRANCH  10  13
ENDBRANCH   1   9
BRANCH   1  15
HETATM   15  C5  UNL     1      23.615   4.531  52.007  1.00  0.00     0.225 C 
BRANCH  15  16
HETATM   16  O2  UNL     1      23.865   4.548  50.619  1.00  0.00    -0.390 OA
HETATM   17  C6  UNL     1      24.921   5.442  50.408  1.00  0.00     0.201 C 
ENDBRANCH  15  16
ENDBRANCH   1  15
BRANCH   7  18
HETATM   18  C17 UNL     1      20.767   1.143  52.939  1.00  0.00     0.328 C 
BRANCH  18  19
HETATM   19  N4  UNL     1      20.368   0.208  51.859  1.00  0.00     0.084 N 
HETATM   20  H17 UNL     1      20.829  -0.693  52.113  1.00  0.00     0.313 HD
HETATM   21  H18 UNL     1      20.665   0.578  50.946  1.00  0.00     0.313 HD
ENDBRANCH  18  19
ENDBRANCH   7  18
BRANCH   4  22
HETATM   22  C10 UNL     1      26.503   0.637  53.217  1.00  0.00    -0.006 A 
HETATM   23  C11 UNL     1      27.427   1.636  53.376  1.00  0.00     0.017 A 
HETATM   24  C12 UNL     1      28.767   1.411  53.480  1.00  0.00     0.045 A 
HETATM   25  C13 UNL     1      29.286   0.134  53.427  1.00  0.00     0.138 A 
HETATM   26  F1  UNL     1      30.617  -0.085  53.530  1.00  0.00    -0.204 F 
HETATM   27  C14 UNL     1      28.397  -0.910  53.268  1.00  0.00     0.073 A 
HETATM   28 CL1  UNL     1      29.046  -2.533  53.200  1.00  0.00    -0.081 Cl
HETATM   29  C15 UNL     1      27.050  -0.627  53.168  1.00  0.00     0.040 A 
ENDBRANCH   4  22
TORSDOF 7
ENDMDL
