MODEL 1
REMARK VINA RESULT:      -8.9      0.000      0.000
REMARK  7 active torsions:
REMARK  status: ('A' for Active; 'I' for Inactive)
REMARK    1  A    between atoms: C3_3  and  N1_4 
REMARK    2  A    between atoms: C10_14  and  N4_15 
REMARK    3  A    between atoms: N4_15  and  C11_16 
REMARK    4  A    between atoms: C11_16  and  C12_17 
REMARK    5  A    between atoms: C11_16  and  C13_19 
REMARK    6  A    between atoms: C12_17  and  O1_18 
REMARK    7  A    between atoms: C18_24  and  N5_25 
ROOT
HETATM    1  N4  UNL     1      23.724   2.027  50.946  1.00  0.00    -0.363 N 
HETATM    2  H11 UNL     1      24.323   1.674  50.226  1.00  0.00     0.162 HD
ENDROOT
BRANCH   1   3
HETATM    3  C10 UNL     1      23.337   1.064  51.894  1.00  0.00     0.139 A 
HETATM    4  N3  UNL     1      22.089   0.628  51.743  1.00  0.00    -0.224 NA
HETATM    5  C9  UNL     1      21.432  -0.270  52.441  1.00  0.00     0.236 A 
HETATM    6  N2  UNL     1      22.114  -0.827  53.449  1.00  0.00    -0.234 NA
HETATM    7  C8  UNL     1      23.405  -0.381  53.612  1.00  0.00     0.114 A 
HETATM    8  S1  UNL     1      24.605  -0.936  54.892  1.00  0.00    -0.072 SA
HETATM    9  C23 UNL     1      24.109   0.550  52.900  1.00  0.00     0.053 A 
HETATM   10  C7  UNL     1      25.922   0.142  54.332  1.00  0.00     0.010 A 
HETATM   11  C6  UNL     1      25.394   0.829  53.252  1.00  0.00    -0.025 A 
HETATM   12  C24 UNL     1      27.257   0.235  54.927  1.00  0.00     0.169 C 
HETATM   13  C5  UNL     1      26.530   1.671  52.874  1.00  0.00     0.060 C 
HETATM   14  C4  UNL     1      27.765   0.795  52.645  1.00  0.00     0.127 C 
HETATM   15  N1  UNL     1      28.234   0.210  53.859  1.00  0.00    -0.385 N 
BRANCH  15  16
HETATM   16  C3  UNL     1      29.579  -0.298  53.815  1.00  0.00     0.081 C 
HETATM   17  C2  UNL     1      29.835  -1.528  53.450  1.00  0.00    -0.014 C 
HETATM   18  C1  UNL     1      28.670  -2.380  53.082  1.00  0.00     0.037 C 
ENDBRANCH  15  16
ENDBRANCH   1   3
BRANCH   1  19
HETATM   19  C11 UNL     1      23.506   3.430  50.709  1.00  0.00     0.142 C 
BRANCH  19  20
HETATM   20  C12 UNL     1      23.124   4.056  52.061  1.00  0.00     0.194 C 
BRANCH  20  21
HETATM   21  O1  UNL     1      24.270   4.326  52.806  1.00  0.00    -0.399 OA
HETATM   22  H15 UNL     1      25.040   4.593  52.256  1.00  0.00     0.209 HD
ENDBRANCH  20  21
ENDBRANCH  19  20
BRANCH  19  23
HETATM   23  C13 UNL     1      24.646   4.047  50.063  1.00  0.00    -0.007 A 
HETATM   24  C14 UNL     1      25.973   3.722  49.978  1.00  0.00     0.011 A 
HETATM   25  C15 UNL     1      26.952   4.414  49.318  1.00  0.00     0.001 A 
HETATM   26  C16 UNL     1      26.642   5.555  48.656  1.00  0.00     0.002 A 
HETATM   27  C17 UNL     1      25.316   5.974  48.681  1.00  0.00     0.030 A 
HETATM   28  C18 UNL     1      24.370   5.230  49.368  1.00  0.00     0.038 A 
BRANCH  28  29
HETATM   29  N5  UNL     1      23.083   5.878  49.228  1.00  0.00    -0.376 N 
HETATM   30  C19 UNL     1      21.782   5.673  48.621  1.00  0.00     0.149 C 
HETATM   31  C20 UNL     1      20.668   5.808  49.656  1.00  0.00     0.187 C 
HETATM   32  O2  UNL     1      20.669   7.129  50.096  1.00  0.00    -0.388 OA
HETATM   33  C21 UNL     1      21.848   7.278  50.827  1.00  0.00     0.187 C 
HETATM   34  C22 UNL     1      23.023   7.179  49.888  1.00  0.00     0.149 C 
ENDBRANCH  28  29
ENDBRANCH  19  23
ENDBRANCH   1  19
TORSDOF 7
ENDMDL
MODEL 2
REMARK VINA RESULT:      -8.4      1.706      2.619
REMARK  7 active torsions:
REMARK  status: ('A' for Active; 'I' for Inactive)
REMARK    1  A    between atoms: C3_3  and  N1_4 
REMARK    2  A    between atoms: C10_14  and  N4_15 
REMARK    3  A    between atoms: N4_15  and  C11_16 
REMARK    4  A    between atoms: C11_16  and  C12_17 
REMARK    5  A    between atoms: C11_16  and  C13_19 
REMARK    6  A    between atoms: C12_17  and  O1_18 
REMARK    7  A    between atoms: C18_24  and  N5_25 
ROOT
HETATM    1  N4  UNL     1      24.013   3.282  51.545  1.00  0.00    -0.363 N 
HETATM    2  H11 UNL     1      23.846   4.047  52.168  1.00  0.00     0.162 HD
ENDROOT
BRANCH   1   3
HETATM    3  C10 UNL     1      23.587   2.036  52.037  1.00  0.00     0.139 A 
HETATM    4  N3  UNL     1      22.386   1.665  51.601  1.00  0.00    -0.224 NA
HETATM    5  C9  UNL     1      21.714   0.565  51.854  1.00  0.00     0.236 A 
HETATM    6  N2  UNL     1      22.322  -0.308  52.667  1.00  0.00    -0.234 NA
HETATM    7  C8  UNL     1      23.565   0.069  53.122  1.00  0.00     0.114 A 
HETATM    8  S1  UNL     1      24.660  -0.891  54.246  1.00  0.00    -0.072 SA
HETATM    9  C23 UNL     1      24.283   1.206  52.873  1.00  0.00     0.053 A 
HETATM   10  C7  UNL     1      25.964   0.337  54.259  1.00  0.00     0.010 A 
HETATM   11  C6  UNL     1      25.510   1.360  53.444  1.00  0.00    -0.025 A 
HETATM   12  C24 UNL     1      27.227   0.230  54.994  1.00  0.00     0.169 C 
HETATM   13  C5  UNL     1      26.629   2.299  53.521  1.00  0.00     0.060 C 
HETATM   14  C4  UNL     1      27.927   1.584  53.135  1.00  0.00     0.127 C 
HETATM   15  N1  UNL     1      28.305   0.608  54.104  1.00  0.00    -0.385 N 
BRANCH  15  16
HETATM   16  C3  UNL     1      29.673   0.171  54.033  1.00  0.00     0.081 C 
HETATM   17  C2  UNL     1      29.992  -1.013  53.578  1.00  0.00    -0.014 C 
HETATM   18  C1  UNL     1      28.872  -1.891  53.136  1.00  0.00     0.037 C 
ENDBRANCH  15  16
ENDBRANCH   1   3
BRANCH   1  19
HETATM   19  C11 UNL     1      24.635   3.795  50.352  1.00  0.00     0.142 C 
BRANCH  19  20
HETATM   20  C12 UNL     1      25.936   3.001  50.151  1.00  0.00     0.194 C 
BRANCH  20  21
HETATM   21  O1  UNL     1      27.039   3.810  50.419  1.00  0.00    -0.399 OA
HETATM   22  H15 UNL     1      27.897   3.332  50.368  1.00  0.00     0.209 HD
ENDBRANCH  20  21
ENDBRANCH  19  20
BRANCH  19  23
HETATM   23  C13 UNL     1      23.731   3.762  49.221  1.00  0.00    -0.007 A 
HETATM   24  C14 UNL     1      23.030   2.763  48.603  1.00  0.00     0.011 A 
HETATM   25  C15 UNL     1      22.198   2.884  47.523  1.00  0.00     0.001 A 
HETATM   26  C16 UNL     1      22.003   4.099  46.954  1.00  0.00     0.002 A 
HETATM   27  C17 UNL     1      22.673   5.184  47.510  1.00  0.00     0.030 A 
HETATM   28  C18 UNL     1      23.503   4.997  48.604  1.00  0.00     0.038 A 
BRANCH  28  29
HETATM   29  N5  UNL     1      24.063   6.277  48.982  1.00  0.00    -0.376 N 
HETATM   30  C19 UNL     1      24.145   7.176  50.116  1.00  0.00     0.149 C 
HETATM   31  C20 UNL     1      25.597   7.520  50.438  1.00  0.00     0.187 C 
HETATM   32  O2  UNL     1      26.101   8.239  49.357  1.00  0.00    -0.388 OA
HETATM   33  C21 UNL     1      26.182   7.324  48.306  1.00  0.00     0.187 C 
HETATM   34  C22 UNL     1      24.787   6.928  47.894  1.00  0.00     0.149 C 
ENDBRANCH  28  29
ENDBRANCH  19  23
ENDBRANCH   1  19
TORSDOF 7
ENDMDL
MODEL 3
REMARK VINA RESULT:      -8.4      2.799      7.643
REMARK  7 active torsions:
REMARK  status: ('A' for Active; 'I' for Inactive)
REMARK    1  A    between atoms: C3_3  and  N1_4 
REMARK    2  A    between atoms: C10_14  and  N4_15 
REMARK    3  A    between atoms: N4_15  and  C11_16 
REMARK    4  A    between atoms: C11_16  and  C12_17 
REMARK    5  A    between atoms: C11_16  and  C13_19 
REMARK    6  A    between atoms: C12_17  and  O1_18 
REMARK    7  A    between atoms: C18_24  and  N5_25 
ROOT
HETATM    1  N4  UNL     1      23.814   1.723  51.021  1.00  0.00    -0.363 N 
HETATM    2  H11 UNL     1      24.640   1.259  50.699  1.00  0.00     0.162 HD
ENDROOT
BRANCH   1   3
HETATM    3  C10 UNL     1      22.923   2.087  49.997  1.00  0.00     0.139 A 
HETATM    4  N3  UNL     1      21.957   1.198  49.779  1.00  0.00    -0.224 NA
HETATM    5  C9  UNL     1      20.968   1.241  48.916  1.00  0.00     0.236 A 
HETATM    6  N2  UNL     1      20.923   2.334  48.144  1.00  0.00    -0.234 NA
HETATM    7  C8  UNL     1      21.918   3.258  48.364  1.00  0.00     0.114 A 
HETATM    8  S1  UNL     1      22.146   4.857  47.482  1.00  0.00    -0.072 SA
HETATM    9  C23 UNL     1      22.956   3.236  49.254  1.00  0.00     0.053 A 
HETATM   10  C7  UNL     1      23.609   5.323  48.404  1.00  0.00     0.010 A 
HETATM   11  C6  UNL     1      23.829   4.281  49.290  1.00  0.00    -0.025 A 
HETATM   12  C24 UNL     1      24.374   6.560  48.221  1.00  0.00     0.169 C 
HETATM   13  C5  UNL     1      25.027   4.751  49.984  1.00  0.00     0.060 C 
HETATM   14  C4  UNL     1      24.776   6.149  50.555  1.00  0.00     0.127 C 
HETATM   15  N1  UNL     1      24.639   7.127  49.525  1.00  0.00    -0.385 N 
BRANCH  15  16
HETATM   16  C3  UNL     1      24.788   8.492  49.953  1.00  0.00     0.081 C 
HETATM   17  C2  UNL     1      25.948   9.096  49.927  1.00  0.00    -0.014 C 
HETATM   18  C1  UNL     1      27.110   8.306  49.432  1.00  0.00     0.037 C 
ENDBRANCH  15  16
ENDBRANCH   1   3
BRANCH   1  19
HETATM   19  C11 UNL     1      23.877   1.821  52.456  1.00  0.00     0.142 C 
BRANCH  19  20
HETATM   20  C12 UNL     1      23.723   3.310  52.809  1.00  0.00     0.194 C 
BRANCH  20  21
HETATM   21  O1  UNL     1      24.703   3.690  53.722  1.00  0.00    -0.399 OA
HETATM   22  H15 UNL     1      25.303   4.392  53.383  1.00  0.00     0.209 HD
ENDBRANCH  20  21
ENDBRANCH  19  20
BRANCH  19  23
HETATM   23  C13 UNL     1      22.911   0.950  53.094  1.00  0.00    -0.007 A 
HETATM   24  C14 UNL     1      21.554   1.010  53.264  1.00  0.00     0.011 A 
HETATM   25  C15 UNL     1      20.761   0.094  53.901  1.00  0.00     0.001 A 
HETATM   26  C16 UNL     1      21.315  -1.017  54.444  1.00  0.00     0.002 A 
HETATM   27  C17 UNL     1      22.693  -1.173  54.326  1.00  0.00     0.030 A 
HETATM   28  C18 UNL     1      23.442  -0.210  53.669  1.00  0.00     0.038 A 
BRANCH  28  29
HETATM   29  N5  UNL     1      24.831  -0.619  53.682  1.00  0.00    -0.376 N 
HETATM   30  C19 UNL     1      25.876  -1.076  52.787  1.00  0.00     0.149 C 
HETATM   31  C20 UNL     1      27.122  -0.203  52.910  1.00  0.00     0.187 C 
HETATM   32  O2  UNL     1      27.629  -0.384  54.195  1.00  0.00    -0.388 OA
HETATM   33  C21 UNL     1      26.699   0.211  55.049  1.00  0.00     0.187 C 
HETATM   34  C22 UNL     1      25.423  -0.591  55.017  1.00  0.00     0.149 C 
ENDBRANCH  28  29
ENDBRANCH  19  23
ENDBRANCH   1  19
TORSDOF 7
ENDMDL
MODEL 4
REMARK VINA RESULT:      -8.2      1.875      2.395
REMARK  7 active torsions:
REMARK  status: ('A' for Active; 'I' for Inactive)
REMARK    1  A    between atoms: C3_3  and  N1_4 
REMARK    2  A    between atoms: C10_14  and  N4_15 
REMARK    3  A    between atoms: N4_15  and  C11_16 
REMARK    4  A    between atoms: C11_16  and  C12_17 
REMARK    5  A    between atoms: C11_16  and  C13_19 
REMARK    6  A    between atoms: C12_17  and  O1_18 
REMARK    7  A    between atoms: C18_24  and  N5_25 
ROOT
HETATM    1  N4  UNL     1      22.059   1.102  51.536  1.00  0.00    -0.363 N 
HETATM    2  H11 UNL     1      22.607   0.705  50.799  1.00  0.00     0.162 HD
ENDROOT
BRANCH   1   3
HETATM    3  C10 UNL     1      21.905   0.264  52.654  1.00  0.00     0.139 A 
HETATM    4  N3  UNL     1      20.659  -0.166  52.840  1.00  0.00    -0.224 NA
HETATM    5  C9  UNL     1      20.186  -0.965  53.770  1.00  0.00     0.236 A 
HETATM    6  N2  UNL     1      21.084  -1.412  54.657  1.00  0.00    -0.234 NA
HETATM    7  C8  UNL     1      22.374  -0.971  54.471  1.00  0.00     0.114 A 
HETATM    8  S1  UNL     1      23.837  -1.392  55.504  1.00  0.00    -0.072 SA
HETATM    9  C23 UNL     1      22.889  -0.142  53.514  1.00  0.00     0.053 A 
HETATM   10  C7  UNL     1      24.982  -0.410  54.538  1.00  0.00     0.010 A 
HETATM   11  C6  UNL     1      24.218   0.155  53.532  1.00  0.00    -0.025 A 
HETATM   12  C24 UNL     1      26.417  -0.270  54.802  1.00  0.00     0.169 C 
HETATM   13  C5  UNL     1      25.230   0.927  52.811  1.00  0.00     0.060 C 
HETATM   14  C4  UNL     1      26.391   0.010  52.415  1.00  0.00     0.127 C 
HETATM   15  N1  UNL     1      27.127  -0.437  53.552  1.00  0.00    -0.385 N 
BRANCH  15  16
HETATM   16  C3  UNL     1      28.433  -0.969  53.267  1.00  0.00     0.081 C 
HETATM   17  C2  UNL     1      29.520  -0.283  53.511  1.00  0.00    -0.014 C 
HETATM   18  C1  UNL     1      29.346   1.074  54.099  1.00  0.00     0.037 C 
ENDBRANCH  15  16
ENDBRANCH   1   3
BRANCH   1  19
HETATM   19  C11 UNL     1      21.646   2.422  51.136  1.00  0.00     0.142 C 
BRANCH  19  20
HETATM   20  C12 UNL     1      21.078   3.110  52.388  1.00  0.00     0.194 C 
BRANCH  20  21
HETATM   21  O1  UNL     1      19.708   2.877  52.484  1.00  0.00    -0.399 OA
HETATM   22  H15 UNL     1      19.230   2.996  51.634  1.00  0.00     0.209 HD
ENDBRANCH  20  21
ENDBRANCH  19  20
BRANCH  19  23
HETATM   23  C13 UNL     1      22.722   3.145  50.489  1.00  0.00    -0.007 A 
HETATM   24  C14 UNL     1      24.065   3.252  50.729  1.00  0.00     0.011 A 
HETATM   25  C15 UNL     1      24.974   3.987  50.018  1.00  0.00     0.001 A 
HETATM   26  C16 UNL     1      24.568   4.711  48.947  1.00  0.00     0.002 A 
HETATM   27  C17 UNL     1      23.217   4.670  48.618  1.00  0.00     0.030 A 
HETATM   28  C18 UNL     1      22.344   3.906  49.377  1.00  0.00     0.038 A 
BRANCH  28  29
HETATM   29  N5  UNL     1      21.014   4.034  48.819  1.00  0.00    -0.376 N 
HETATM   30  C19 UNL     1      20.072   3.312  47.987  1.00  0.00     0.149 C 
HETATM   31  C20 UNL     1      18.727   3.157  48.691  1.00  0.00     0.187 C 
HETATM   32  O2  UNL     1      18.189   4.433  48.840  1.00  0.00    -0.388 OA
HETATM   33  C21 UNL     1      19.003   5.074  49.776  1.00  0.00     0.187 C 
HETATM   34  C22 UNL     1      20.365   5.294  49.169  1.00  0.00     0.149 C 
ENDBRANCH  28  29
ENDBRANCH  19  23
ENDBRANCH   1  19
TORSDOF 7
ENDMDL
MODEL 5
REMARK VINA RESULT:      -8.1      2.665      8.443
REMARK  7 active torsions:
REMARK  status: ('A' for Active; 'I' for Inactive)
REMARK    1  A    between atoms: C3_3  and  N1_4 
REMARK    2  A    between atoms: C10_14  and  N4_15 
REMARK    3  A    between atoms: N4_15  and  C11_16 
REMARK    4  A    between atoms: C11_16  and  C12_17 
REMARK    5  A    between atoms: C11_16  and  C13_19 
REMARK    6  A    between atoms: C12_17  and  O1_18 
REMARK    7  A    between atoms: C18_24  and  N5_25 
ROOT
HETATM    1  N4  UNL     1      24.679   2.672  50.721  1.00  0.00    -0.363 N 
HETATM    2  H11 UNL     1      23.860   2.329  50.259  1.00  0.00     0.162 HD
ENDROOT
BRANCH   1   3
HETATM    3  C10 UNL     1      25.270   3.781  50.092  1.00  0.00     0.139 A 
HETATM    4  N3  UNL     1      26.486   3.542  49.606  1.00  0.00    -0.224 NA
HETATM    5  C9  UNL     1      27.295   4.348  48.956  1.00  0.00     0.236 A 
HETATM    6  N2  UNL     1      26.831   5.587  48.752  1.00  0.00    -0.234 NA
HETATM    7  C8  UNL     1      25.574   5.842  49.251  1.00  0.00     0.114 A 
HETATM    8  S1  UNL     1      24.652   7.430  49.144  1.00  0.00    -0.072 SA
HETATM    9  C23 UNL     1      24.717   5.022  49.930  1.00  0.00     0.053 A 
HETATM   10  C7  UNL     1      23.214   6.821  50.021  1.00  0.00     0.010 A 
HETATM   11  C6  UNL     1      23.507   5.503  50.330  1.00  0.00    -0.025 A 
HETATM   12  C24 UNL     1      22.007   7.596  50.320  1.00  0.00     0.169 C 
HETATM   13  C5  UNL     1      22.289   5.103  51.034  1.00  0.00     0.060 C 
HETATM   14  C4  UNL     1      21.069   5.389  50.155  1.00  0.00     0.127 C 
HETATM   15  N1  UNL     1      20.853   6.789  49.984  1.00  0.00    -0.385 N 
BRANCH  15  16
HETATM   16  C3  UNL     1      19.544   7.154  49.514  1.00  0.00     0.081 C 
HETATM   17  C2  UNL     1      19.308   7.374  48.246  1.00  0.00    -0.014 C 
HETATM   18  C1  UNL     1      20.457   7.228  47.310  1.00  0.00     0.037 C 
ENDBRANCH  15  16
ENDBRANCH   1   3
BRANCH   1  19
HETATM   19  C11 UNL     1      24.916   1.863  51.888  1.00  0.00     0.142 C 
BRANCH  19  20
HETATM   20  C12 UNL     1      25.470   2.800  52.974  1.00  0.00     0.194 C 
BRANCH  20  21
HETATM   21  O1  UNL     1      24.469   3.659  53.424  1.00  0.00    -0.399 OA
HETATM   22  H15 UNL     1      24.240   3.532  54.371  1.00  0.00     0.209 HD
ENDBRANCH  20  21
ENDBRANCH  19  20
BRANCH  19  23
HETATM   23  C13 UNL     1      23.731   1.127  52.278  1.00  0.00    -0.007 A 
HETATM   24  C14 UNL     1      22.390   1.339  52.108  1.00  0.00     0.011 A 
HETATM   25  C15 UNL     1      21.366   0.538  52.539  1.00  0.00     0.001 A 
HETATM   26  C16 UNL     1      21.641  -0.603  53.215  1.00  0.00     0.002 A 
HETATM   27  C17 UNL     1      22.979  -0.911  53.442  1.00  0.00     0.030 A 
HETATM   28  C18 UNL     1      23.971  -0.060  52.979  1.00  0.00     0.038 A 
BRANCH  28  29
HETATM   29  N5  UNL     1      25.258  -0.615  53.340  1.00  0.00    -0.376 N 
HETATM   30  C19 UNL     1      26.393  -1.296  52.748  1.00  0.00     0.149 C 
HETATM   31  C20 UNL     1      27.694  -0.559  53.051  1.00  0.00     0.187 C 
HETATM   32  O2  UNL     1      27.897  -0.627  54.427  1.00  0.00    -0.388 OA
HETATM   33  C21 UNL     1      26.901   0.173  54.990  1.00  0.00     0.187 C 
HETATM   34  C22 UNL     1      25.562  -0.481  54.762  1.00  0.00     0.149 C 
ENDBRANCH  28  29
ENDBRANCH  19  23
ENDBRANCH   1  19
TORSDOF 7
ENDMDL
MODEL 6
REMARK VINA RESULT:      -7.9      2.003      2.899
REMARK  7 active torsions:
REMARK  status: ('A' for Active; 'I' for Inactive)
REMARK    1  A    between atoms: C3_3  and  N1_4 
REMARK    2  A    between atoms: C10_14  and  N4_15 
REMARK    3  A    between atoms: N4_15  and  C11_16 
REMARK    4  A    between atoms: C11_16  and  C12_17 
REMARK    5  A    between atoms: C11_16  and  C13_19 
REMARK    6  A    between atoms: C12_17  and  O1_18 
REMARK    7  A    between atoms: C18_24  and  N5_25 
ROOT
HETATM    1  N4  UNL     1      23.433   2.698  51.355  1.00  0.00    -0.363 N 
HETATM    2  H11 UNL     1      24.258   2.675  50.788  1.00  0.00     0.162 HD
ENDROOT
BRANCH   1   3
HETATM    3  C10 UNL     1      23.179   1.502  52.048  1.00  0.00     0.139 A 
HETATM    4  N3  UNL     1      21.993   0.962  51.778  1.00  0.00    -0.224 NA
HETATM    5  C9  UNL     1      21.460  -0.147  52.238  1.00  0.00     0.236 A 
HETATM    6  N2  UNL     1      22.217  -0.834  53.103  1.00  0.00    -0.234 NA
HETATM    7  C8  UNL     1      23.445  -0.282  53.388  1.00  0.00     0.114 A 
HETATM    8  S1  UNL     1      24.718  -0.965  54.526  1.00  0.00    -0.072 SA
HETATM    9  C23 UNL     1      24.019   0.868  52.922  1.00  0.00     0.053 A 
HETATM   10  C7  UNL     1      25.885   0.367  54.254  1.00  0.00     0.010 A 
HETATM   11  C6  UNL     1      25.264   1.215  53.352  1.00  0.00    -0.025 A 
HETATM   12  C24 UNL     1      27.205   0.484  54.879  1.00  0.00     0.169 C 
HETATM   13  C5  UNL     1      26.282   2.255  53.199  1.00  0.00     0.060 C 
HETATM   14  C4  UNL     1      27.614   1.615  52.797  1.00  0.00     0.127 C 
HETATM   15  N1  UNL     1      28.165   0.827  53.851  1.00  0.00    -0.385 N 
BRANCH  15  16
HETATM   16  C3  UNL     1      29.562   0.513  53.716  1.00  0.00     0.081 C 
HETATM   17  C2  UNL     1      29.966  -0.692  53.405  1.00  0.00    -0.014 C 
HETATM   18  C1  UNL     1      28.914  -1.725  53.198  1.00  0.00     0.037 C 
ENDBRANCH  15  16
ENDBRANCH   1   3
BRANCH   1  19
HETATM   19  C11 UNL     1      22.830   3.999  51.229  1.00  0.00     0.142 C 
BRANCH  19  20
HETATM   20  C12 UNL     1      23.794   5.002  51.883  1.00  0.00     0.194 C 
BRANCH  20  21
HETATM   21  O1  UNL     1      23.651   4.972  53.268  1.00  0.00    -0.399 OA
HETATM   22  H15 UNL     1      22.793   5.336  53.581  1.00  0.00     0.209 HD
ENDBRANCH  20  21
ENDBRANCH  19  20
BRANCH  19  23
HETATM   23  C13 UNL     1      22.493   4.301  49.852  1.00  0.00    -0.007 A 
HETATM   24  C14 UNL     1      23.199   4.817  48.800  1.00  0.00     0.011 A 
HETATM   25  C15 UNL     1      22.738   5.049  47.532  1.00  0.00     0.001 A 
HETATM   26  C16 UNL     1      21.453   4.759  47.217  1.00  0.00     0.002 A 
HETATM   27  C17 UNL     1      20.648   4.228  48.220  1.00  0.00     0.030 A 
HETATM   28  C18 UNL     1      21.173   4.016  49.485  1.00  0.00     0.038 A 
BRANCH  28  29
HETATM   29  N5  UNL     1      20.137   3.454  50.326  1.00  0.00    -0.376 N 
HETATM   30  C19 UNL     1      19.466   3.689  51.589  1.00  0.00     0.149 C 
HETATM   31  C20 UNL     1      17.953   3.753  51.402  1.00  0.00     0.187 C 
HETATM   32  O2  UNL     1      17.533   2.490  50.988  1.00  0.00    -0.388 OA
HETATM   33  C21 UNL     1      18.041   2.335  49.697  1.00  0.00     0.187 C 
HETATM   34  C22 UNL     1      19.543   2.242  49.770  1.00  0.00     0.149 C 
ENDBRANCH  28  29
ENDBRANCH  19  23
ENDBRANCH   1  19
TORSDOF 7
ENDMDL
MODEL 7
REMARK VINA RESULT:      -7.6      5.883      8.835
REMARK  7 active torsions:
REMARK  status: ('A' for Active; 'I' for Inactive)
REMARK    1  A    between atoms: C3_3  and  N1_4 
REMARK    2  A    between atoms: C10_14  and  N4_15 
REMARK    3  A    between atoms: N4_15  and  C11_16 
REMARK    4  A    between atoms: C11_16  and  C12_17 
REMARK    5  A    between atoms: C11_16  and  C13_19 
REMARK    6  A    between atoms: C12_17  and  O1_18 
REMARK    7  A    between atoms: C18_24  and  N5_25 
ROOT
HETATM    1  N4  UNL     1      28.662   7.995  48.827  1.00  0.00    -0.363 N 
HETATM    2  H11 UNL     1      28.920   7.302  49.501  1.00  0.00     0.162 HD
ENDROOT
BRANCH   1   3
HETATM    3  C10 UNL     1      29.660   8.952  48.574  1.00  0.00     0.139 A 
HETATM    4  N3  UNL     1      29.297  10.200  48.858  1.00  0.00    -0.224 NA
HETATM    5  C9  UNL     1      29.990  11.311  48.754  1.00  0.00     0.236 A 
HETATM    6  N2  UNL     1      31.240  11.169  48.295  1.00  0.00    -0.234 NA
HETATM    7  C8  UNL     1      31.623   9.881  47.999  1.00  0.00     0.114 A 
HETATM    8  S1  UNL     1      33.259   9.343  47.354  1.00  0.00    -0.072 SA
HETATM    9  C23 UNL     1      30.921   8.712  48.100  1.00  0.00     0.053 A 
HETATM   10  C7  UNL     1      32.825   7.606  47.290  1.00  0.00     0.010 A 
HETATM   11  C6  UNL     1      31.518   7.541  47.743  1.00  0.00    -0.025 A 
HETATM   12  C24 UNL     1      33.706   6.524  46.845  1.00  0.00     0.169 C 
HETATM   13  C5  UNL     1      31.261   6.104  47.653  1.00  0.00     0.060 C 
HETATM   14  C4  UNL     1      32.338   5.339  48.427  1.00  0.00     0.127 C 
HETATM   15  N1  UNL     1      33.617   5.442  47.802  1.00  0.00    -0.385 N 
BRANCH  15  16
HETATM   16  C3  UNL     1      34.585   4.465  48.223  1.00  0.00     0.081 C 
HETATM   17  C2  UNL     1      34.684   3.301  47.635  1.00  0.00    -0.014 C 
HETATM   18  C1  UNL     1      33.748   3.031  46.507  1.00  0.00     0.037 C 
ENDBRANCH  15  16
ENDBRANCH   1   3
BRANCH   1  19
HETATM   19  C11 UNL     1      27.326   7.710  48.371  1.00  0.00     0.142 C 
BRANCH  19  20
HETATM   20  C12 UNL     1      27.288   8.039  46.870  1.00  0.00     0.194 C 
BRANCH  20  21
HETATM   21  O1  UNL     1      26.903   9.364  46.678  1.00  0.00    -0.399 OA
HETATM   22  H15 UNL     1      26.839   9.878  47.514  1.00  0.00     0.209 HD
ENDBRANCH  20  21
ENDBRANCH  19  20
BRANCH  19  23
HETATM   23  C13 UNL     1      26.926   6.357  48.699  1.00  0.00    -0.007 A 
HETATM   24  C14 UNL     1      27.599   5.168  48.779  1.00  0.00     0.011 A 
HETATM   25  C15 UNL     1      27.078   3.946  49.109  1.00  0.00     0.001 A 
HETATM   26  C16 UNL     1      25.760   3.830  49.400  1.00  0.00     0.002 A 
HETATM   27  C17 UNL     1      24.985   4.985  49.348  1.00  0.00     0.030 A 
HETATM   28  C18 UNL     1      25.571   6.194  49.007  1.00  0.00     0.038 A 
BRANCH  28  29
HETATM   29  N5  UNL     1      24.553   7.223  49.035  1.00  0.00    -0.376 N 
HETATM   30  C19 UNL     1      23.738   8.021  48.140  1.00  0.00     0.149 C 
HETATM   31  C20 UNL     1      22.257   7.883  48.481  1.00  0.00     0.187 C 
HETATM   32  O2  UNL     1      22.070   8.436  49.746  1.00  0.00    -0.388 OA
HETATM   33  C21 UNL     1      22.716   7.570  50.630  1.00  0.00     0.187 C 
HETATM   34  C22 UNL     1      24.201   7.643  50.388  1.00  0.00     0.149 C 
ENDBRANCH  28  29
ENDBRANCH  19  23
ENDBRANCH   1  19
TORSDOF 7
ENDMDL
MODEL 8
REMARK VINA RESULT:      -7.6      3.019      8.455
REMARK  7 active torsions:
REMARK  status: ('A' for Active; 'I' for Inactive)
REMARK    1  A    between atoms: C3_3  and  N1_4 
REMARK    2  A    between atoms: C10_14  and  N4_15 
REMARK    3  A    between atoms: N4_15  and  C11_16 
REMARK    4  A    between atoms: C11_16  and  C12_17 
REMARK    5  A    between atoms: C11_16  and  C13_19 
REMARK    6  A    between atoms: C12_17  and  O1_18 
REMARK    7  A    between atoms: C18_24  and  N5_25 
ROOT
HETATM    1  N4  UNL     1      24.190   3.267  50.882  1.00  0.00    -0.363 N 
HETATM    2  H11 UNL     1      24.189   2.362  50.455  1.00  0.00     0.162 HD
ENDROOT
BRANCH   1   3
HETATM    3  C10 UNL     1      24.489   4.319  49.999  1.00  0.00     0.139 A 
HETATM    4  N3  UNL     1      25.764   4.698  50.022  1.00  0.00    -0.224 NA
HETATM    5  C9  UNL     1      26.367   5.629  49.318  1.00  0.00     0.236 A 
HETATM    6  N2  UNL     1      25.589   6.291  48.452  1.00  0.00    -0.234 NA
HETATM    7  C8  UNL     1      24.269   5.904  48.423  1.00  0.00     0.114 A 
HETATM    8  S1  UNL     1      22.944   6.606  47.357  1.00  0.00    -0.072 SA
HETATM    9  C23 UNL     1      23.620   4.941  49.144  1.00  0.00     0.053 A 
HETATM   10  C7  UNL     1      21.662   5.529  47.994  1.00  0.00     0.010 A 
HETATM   11  C6  UNL     1      22.290   4.735  48.938  1.00  0.00    -0.025 A 
HETATM   12  C24 UNL     1      20.259   5.530  47.569  1.00  0.00     0.169 C 
HETATM   13  C5  UNL     1      21.174   3.905  49.394  1.00  0.00     0.060 C 
HETATM   14  C4  UNL     1      20.517   3.222  48.191  1.00  0.00     0.127 C 
HETATM   15  N1  UNL     1      19.851   4.160  47.346  1.00  0.00    -0.385 N 
BRANCH  15  16
HETATM   16  C3  UNL     1      18.899   3.591  46.430  1.00  0.00     0.081 C 
HETATM   17  C2  UNL     1      19.168   3.461  45.156  1.00  0.00    -0.014 C 
HETATM   18  C1  UNL     1      20.505   3.930  44.696  1.00  0.00     0.037 C 
ENDBRANCH  15  16
ENDBRANCH   1   3
BRANCH   1  19
HETATM   19  C11 UNL     1      23.863   3.113  52.275  1.00  0.00     0.142 C 
BRANCH  19  20
HETATM   20  C12 UNL     1      23.072   4.364  52.689  1.00  0.00     0.194 C 
BRANCH  20  21
HETATM   21  O1  UNL     1      23.901   5.252  53.371  1.00  0.00    -0.399 OA
HETATM   22  H15 UNL     1      24.852   5.005  53.338  1.00  0.00     0.209 HD
ENDBRANCH  20  21
ENDBRANCH  19  20
BRANCH  19  23
HETATM   23  C13 UNL     1      23.180   1.860  52.529  1.00  0.00    -0.007 A 
HETATM   24  C14 UNL     1      21.877   1.458  52.421  1.00  0.00     0.011 A 
HETATM   25  C15 UNL     1      21.370   0.217  52.701  1.00  0.00     0.001 A 
HETATM   26  C16 UNL     1      22.194  -0.766  53.137  1.00  0.00     0.002 A 
HETATM   27  C17 UNL     1      23.544  -0.458  53.281  1.00  0.00     0.030 A 
HETATM   28  C18 UNL     1      23.996   0.817  52.982  1.00  0.00     0.038 A 
BRANCH  28  29
HETATM   29  N5  UNL     1      25.425   0.864  53.209  1.00  0.00    -0.376 N 
HETATM   30  C19 UNL     1      26.394   1.357  54.169  1.00  0.00     0.149 C 
HETATM   31  C20 UNL     1      27.319   0.237  54.637  1.00  0.00     0.187 C 
HETATM   32  O2  UNL     1      28.064  -0.173  53.534  1.00  0.00    -0.388 OA
HETATM   33  C21 UNL     1      27.154  -0.802  52.682  1.00  0.00     0.187 C 
HETATM   34  C22 UNL     1      26.196   0.229  52.144  1.00  0.00     0.149 C 
ENDBRANCH  28  29
ENDBRANCH  19  23
ENDBRANCH   1  19
TORSDOF 7
ENDMDL
MODEL 9
REMARK VINA RESULT:      -7.3      3.697      6.664
REMARK  7 active torsions:
REMARK  status: ('A' for Active; 'I' for Inactive)
REMARK    1  A    between atoms: C3_3  and  N1_4 
REMARK    2  A    between atoms: C10_14  and  N4_15 
REMARK    3  A    between atoms: N4_15  and  C11_16 
REMARK    4  A    between atoms: C11_16  and  C12_17 
REMARK    5  A    between atoms: C11_16  and  C13_19 
REMARK    6  A    between atoms: C12_17  and  O1_18 
REMARK    7  A    between atoms: C18_24  and  N5_25 
ROOT
HETATM    1  N4  UNL     1      20.336   2.363  51.951  1.00  0.00    -0.363 N 
HETATM    2  H11 UNL     1      20.358   2.229  52.942  1.00  0.00     0.162 HD
ENDROOT
BRANCH   1   3
HETATM    3  C10 UNL     1      21.161   3.405  51.493  1.00  0.00     0.139 A 
HETATM    4  N3  UNL     1      20.501   4.518  51.179  1.00  0.00    -0.224 NA
HETATM    5  C9  UNL     1      20.967   5.665  50.742  1.00  0.00     0.236 A 
HETATM    6  N2  UNL     1      22.296   5.727  50.591  1.00  0.00    -0.234 NA
HETATM    7  C8  UNL     1      22.986   4.580  50.914  1.00  0.00     0.114 A 
HETATM    8  S1  UNL     1      24.806   4.331  50.820  1.00  0.00    -0.072 SA
HETATM    9  C23 UNL     1      22.523   3.377  51.369  1.00  0.00     0.053 A 
HETATM   10  C7  UNL     1      24.749   2.638  51.403  1.00  0.00     0.010 A 
HETATM   11  C6  UNL     1      23.408   2.374  51.625  1.00  0.00    -0.025 A 
HETATM   12  C24 UNL     1      25.909   1.762  51.589  1.00  0.00     0.169 C 
HETATM   13  C5  UNL     1      23.468   0.989  52.091  1.00  0.00     0.060 C 
HETATM   14  C4  UNL     1      24.435   0.885  53.273  1.00  0.00     0.127 C 
HETATM   15  N1  UNL     1      25.787   1.113  52.877  1.00  0.00    -0.385 N 
BRANCH  15  16
HETATM   16  C3  UNL     1      26.783   0.664  53.812  1.00  0.00     0.081 C 
HETATM   17  C2  UNL     1      27.328  -0.522  53.716  1.00  0.00    -0.014 C 
HETATM   18  C1  UNL     1      26.868  -1.388  52.594  1.00  0.00     0.037 C 
ENDBRANCH  15  16
ENDBRANCH   1   3
BRANCH   1  19
HETATM   19  C11 UNL     1      19.444   1.388  51.380  1.00  0.00     0.142 C 
BRANCH  19  20
HETATM   20  C12 UNL     1      19.977   1.065  49.974  1.00  0.00     0.194 C 
BRANCH  20  21
HETATM   21  O1  UNL     1      19.199   1.700  49.008  1.00  0.00    -0.399 OA
HETATM   22  H15 UNL     1      18.697   1.076  48.437  1.00  0.00     0.209 HD
ENDBRANCH  20  21
ENDBRANCH  19  20
BRANCH  19  23
HETATM   23  C13 UNL     1      19.289   0.235  52.242  1.00  0.00    -0.007 A 
HETATM   24  C14 UNL     1      20.151  -0.476  53.032  1.00  0.00     0.011 A 
HETATM   25  C15 UNL     1      19.855  -1.564  53.807  1.00  0.00     0.001 A 
HETATM   26  C16 UNL     1      18.587  -2.042  53.843  1.00  0.00     0.002 A 
HETATM   27  C17 UNL     1      17.631  -1.388  53.072  1.00  0.00     0.030 A 
HETATM   28  C18 UNL     1      17.993  -0.291  52.308  1.00  0.00     0.038 A 
BRANCH  28  29
HETATM   29  N5  UNL     1      16.818   0.199  51.618  1.00  0.00    -0.376 N 
HETATM   30  C19 UNL     1      15.918   1.335  51.600  1.00  0.00     0.149 C 
HETATM   31  C20 UNL     1      15.819   1.933  50.199  1.00  0.00     0.187 C 
HETATM   32  O2  UNL     1      15.223   0.975  49.382  1.00  0.00    -0.388 OA
HETATM   33  C21 UNL     1      16.164  -0.049  49.261  1.00  0.00     0.187 C 
HETATM   34  C22 UNL     1      16.327  -0.725  50.599  1.00  0.00     0.149 C 
ENDBRANCH  28  29
ENDBRANCH  19  23
ENDBRANCH   1  19
TORSDOF 7
ENDMDL
