MODEL 1
REMARK VINA RESULT:      -9.9      0.000      0.000
REMARK  3 active torsions:
REMARK  status: ('A' for Active; 'I' for Inactive)
REMARK    1  A    between atoms: C17_18  and  S1_19 
REMARK    2  A    between atoms: S1_19  and  C18_22 
REMARK    3  A    between atoms: C18_22  and  C19_23 
ROOT
HETATM    1  C1  UNL     1      22.841   1.676  50.226  1.00  0.00     0.070 C 
HETATM    2  C2  UNL     1      22.095   2.524  51.155  1.00  0.00     0.034 C 
HETATM    3  C3  UNL     1      21.373   2.225  52.220  1.00  0.00     0.038 C 
HETATM    4  C4  UNL     1      21.347   0.793  52.501  1.00  0.00    -0.038 C 
HETATM    5  C5  UNL     1      21.330  -0.482  52.189  1.00  0.00    -0.015 C 
HETATM    6  C6  UNL     1      22.514  -1.209  52.744  1.00  0.00     0.036 C 
HETATM    7  C7  UNL     1      22.699  -0.926  54.203  1.00  0.00     0.016 C 
HETATM    8  C8  UNL     1      21.419  -0.342  54.779  1.00  0.00    -0.021 C 
HETATM    9  C9  UNL     1      21.396   0.721  53.991  1.00  0.00     0.007 C 
HETATM   10  C10 UNL     1      23.910  -0.159  54.584  1.00  0.00     0.047 C 
HETATM   11  C11 UNL     1      24.642   0.529  53.521  1.00  0.00    -0.055 A 
HETATM   12  C12 UNL     1      25.614  -0.045  52.692  1.00  0.00     0.007 A 
HETATM   13  C13 UNL     1      26.246   0.662  51.688  1.00  0.00     0.003 A 
HETATM   14  C14 UNL     1      25.961   1.988  51.431  1.00  0.00     0.029 A 
HETATM   15  C15 UNL     1      25.001   2.643  52.212  1.00  0.00     0.034 A 
HETATM   16  C16 UNL     1      24.437   1.846  53.182  1.00  0.00     0.036 A 
HETATM   17  N1  UNL     1      24.547   3.997  52.042  1.00  0.00    -0.332 N 
HETATM   18  C17 UNL     1      23.420   4.482  51.259  1.00  0.00     0.226 C 
HETATM   19  N2  UNL     1      22.322   3.902  50.837  1.00  0.00    -0.226 NA
HETATM   20  H17 UNL     1      25.113   4.697  52.557  1.00  0.00     0.168 HD
ENDROOT
BRANCH  18  21
HETATM   21  S1  UNL     1      23.484   6.154  50.748  1.00  0.00     0.213 S 
HETATM   22  O1  UNL     1      24.546   6.895  51.517  1.00  0.00    -0.219 OA
HETATM   23  O2  UNL     1      22.191   6.856  51.024  1.00  0.00    -0.219 OA
BRANCH  21  24
HETATM   24  C18 UNL     1      23.905   6.273  49.013  1.00  0.00     0.187 C 
BRANCH  24  25
HETATM   25  C19 UNL     1      25.357   6.031  48.811  1.00  0.00    -0.044 A 
HETATM   26  C20 UNL     1      26.157   7.053  48.355  1.00  0.00     0.008 A 
HETATM   27  C21 UNL     1      27.485   6.830  48.171  1.00  0.00     0.001 A 
HETATM   28  C22 UNL     1      28.037   5.597  48.435  1.00  0.00     0.000 A 
HETATM   29  C23 UNL     1      27.287   4.512  48.900  1.00  0.00     0.001 A 
HETATM   30  C24 UNL     1      25.954   4.826  49.058  1.00  0.00     0.008 A 
ENDBRANCH  24  25
ENDBRANCH  21  24
ENDBRANCH  18  21
TORSDOF 3
ENDMDL
MODEL 2
REMARK VINA RESULT:      -9.5      2.575      7.094
REMARK  3 active torsions:
REMARK  status: ('A' for Active; 'I' for Inactive)
REMARK    1  A    between atoms: C17_18  and  S1_19 
REMARK    2  A    between atoms: S1_19  and  C18_22 
REMARK    3  A    between atoms: C18_22  and  C19_23 
ROOT
HETATM    1  C1  UNL     1      23.872   2.925  49.482  1.00  0.00     0.070 C 
HETATM    2  C2  UNL     1      25.035   3.684  49.938  1.00  0.00     0.034 C 
HETATM    3  C3  UNL     1      25.391   4.941  49.732  1.00  0.00     0.038 C 
HETATM    4  C4  UNL     1      24.428   5.674  48.918  1.00  0.00    -0.038 C 
HETATM    5  C5  UNL     1      23.542   5.816  47.959  1.00  0.00    -0.015 C 
HETATM    6  C6  UNL     1      22.210   6.244  48.488  1.00  0.00     0.036 C 
HETATM    7  C7  UNL     1      22.334   7.423  49.403  1.00  0.00     0.016 C 
HETATM    8  C8  UNL     1      23.683   8.092  49.198  1.00  0.00    -0.021 C 
HETATM    9  C9  UNL     1      24.404   7.035  49.532  1.00  0.00     0.007 C 
HETATM   10  C10 UNL     1      22.011   7.193  50.832  1.00  0.00     0.047 C 
HETATM   11  C11 UNL     1      21.918   5.808  51.295  1.00  0.00    -0.055 A 
HETATM   12  C12 UNL     1      20.786   4.988  51.201  1.00  0.00     0.007 A 
HETATM   13  C13 UNL     1      20.781   3.677  51.636  1.00  0.00     0.003 A 
HETATM   14  C14 UNL     1      21.895   3.083  52.193  1.00  0.00     0.029 A 
HETATM   15  C15 UNL     1      23.073   3.830  52.326  1.00  0.00     0.034 A 
HETATM   16  C16 UNL     1      22.965   5.121  51.863  1.00  0.00     0.036 A 
HETATM   17  N1  UNL     1      24.331   3.350  52.829  1.00  0.00    -0.332 N 
HETATM   18  C17 UNL     1      25.446   2.781  52.086  1.00  0.00     0.226 C 
HETATM   19  N2  UNL     1      25.815   2.882  50.831  1.00  0.00    -0.226 NA
HETATM   20  H17 UNL     1      24.431   3.435  53.858  1.00  0.00     0.168 HD
ENDROOT
BRANCH  18  21
HETATM   21  S1  UNL     1      26.538   1.749  52.982  1.00  0.00     0.213 S 
HETATM   22  O1  UNL     1      26.418   2.017  54.459  1.00  0.00    -0.219 OA
HETATM   23  O2  UNL     1      27.964   2.020  52.615  1.00  0.00    -0.219 OA
BRANCH  21  24
HETATM   24  C18 UNL     1      26.140   0.024  52.722  1.00  0.00     0.187 C 
BRANCH  24  25
HETATM   25  C19 UNL     1      24.903  -0.343  53.459  1.00  0.00    -0.044 A 
HETATM   26  C20 UNL     1      23.677  -0.126  52.875  1.00  0.00     0.008 A 
HETATM   27  C21 UNL     1      22.547  -0.463  53.551  1.00  0.00     0.001 A 
HETATM   28  C22 UNL     1      22.616  -1.017  54.809  1.00  0.00     0.000 A 
HETATM   29  C23 UNL     1      23.825  -1.267  55.465  1.00  0.00     0.001 A 
HETATM   30  C24 UNL     1      24.917  -0.896  54.709  1.00  0.00     0.008 A 
ENDBRANCH  24  25
ENDBRANCH  21  24
ENDBRANCH  18  21
TORSDOF 3
ENDMDL
MODEL 3
REMARK VINA RESULT:      -9.4      1.067      1.275
REMARK  3 active torsions:
REMARK  status: ('A' for Active; 'I' for Inactive)
REMARK    1  A    between atoms: C17_18  and  S1_19 
REMARK    2  A    between atoms: S1_19  and  C18_22 
REMARK    3  A    between atoms: C18_22  and  C19_23 
ROOT
HETATM    1  C1  UNL     1      23.085   2.536  49.402  1.00  0.00     0.070 C 
HETATM    2  C2  UNL     1      22.201   3.463  50.107  1.00  0.00     0.034 C 
HETATM    3  C3  UNL     1      21.174   3.249  50.910  1.00  0.00     0.038 C 
HETATM    4  C4  UNL     1      20.910   1.830  51.123  1.00  0.00    -0.038 C 
HETATM    5  C5  UNL     1      20.843   0.566  50.776  1.00  0.00    -0.015 C 
HETATM    6  C6  UNL     1      21.729  -0.294  51.621  1.00  0.00     0.036 C 
HETATM    7  C7  UNL     1      21.515  -0.035  53.081  1.00  0.00     0.016 C 
HETATM    8  C8  UNL     1      20.196   0.692  53.285  1.00  0.00    -0.021 C 
HETATM    9  C9  UNL     1      20.519   1.751  52.561  1.00  0.00     0.007 C 
HETATM   10  C10 UNL     1      22.641   0.586  53.819  1.00  0.00     0.047 C 
HETATM   11  C11 UNL     1      23.720   1.185  53.035  1.00  0.00    -0.055 A 
HETATM   12  C12 UNL     1      24.821   0.503  52.499  1.00  0.00     0.007 A 
HETATM   13  C13 UNL     1      25.789   1.133  51.743  1.00  0.00     0.003 A 
HETATM   14  C14 UNL     1      25.739   2.483  51.460  1.00  0.00     0.029 A 
HETATM   15  C15 UNL     1      24.673   3.245  51.955  1.00  0.00     0.034 A 
HETATM   16  C16 UNL     1      23.769   2.518  52.696  1.00  0.00     0.036 A 
HETATM   17  N1  UNL     1      24.440   4.642  51.709  1.00  0.00    -0.332 N 
HETATM   18  C17 UNL     1      23.647   5.255  50.652  1.00  0.00     0.226 C 
HETATM   19  N2  UNL     1      22.661   4.806  49.914  1.00  0.00    -0.226 NA
HETATM   20  H17 UNL     1      24.907   5.272  52.388  1.00  0.00     0.168 HD
ENDROOT
BRANCH  18  21
HETATM   21  S1  UNL     1      24.041   6.909  50.239  1.00  0.00     0.213 S 
HETATM   22  O1  UNL     1      25.151   7.418  51.119  1.00  0.00    -0.219 OA
HETATM   23  O2  UNL     1      22.871   7.817  50.461  1.00  0.00    -0.219 OA
BRANCH  21  24
HETATM   24  C18 UNL     1      24.611   7.022  48.547  1.00  0.00     0.187 C 
BRANCH  24  25
HETATM   25  C19 UNL     1      26.014   6.546  48.436  1.00  0.00    -0.044 A 
HETATM   26  C20 UNL     1      26.984   7.398  47.962  1.00  0.00     0.008 A 
HETATM   27  C21 UNL     1      28.267   6.960  47.862  1.00  0.00     0.001 A 
HETATM   28  C22 UNL     1      28.605   5.677  48.228  1.00  0.00     0.000 A 
HETATM   29  C23 UNL     1      27.675   4.756  48.718  1.00  0.00     0.001 A 
HETATM   30  C24 UNL     1      26.402   5.282  48.786  1.00  0.00     0.008 A 
ENDBRANCH  24  25
ENDBRANCH  21  24
ENDBRANCH  18  21
TORSDOF 3
ENDMDL
MODEL 4
REMARK VINA RESULT:      -8.9      2.435      7.130
REMARK  3 active torsions:
REMARK  status: ('A' for Active; 'I' for Inactive)
REMARK    1  A    between atoms: C17_18  and  S1_19 
REMARK    2  A    between atoms: S1_19  and  C18_22 
REMARK    3  A    between atoms: C18_22  and  C19_23 
ROOT
HETATM    1  C1  UNL     1      23.555   5.007  52.509  1.00  0.00     0.070 C 
HETATM    2  C2  UNL     1      22.384   5.334  51.698  1.00  0.00     0.034 C 
HETATM    3  C3  UNL     1      22.157   6.326  50.854  1.00  0.00     0.038 C 
HETATM    4  C4  UNL     1      23.299   7.225  50.721  1.00  0.00    -0.038 C 
HETATM    5  C5  UNL     1      24.350   7.887  51.145  1.00  0.00    -0.015 C 
HETATM    6  C6  UNL     1      25.591   7.497  50.407  1.00  0.00     0.036 C 
HETATM    7  C7  UNL     1      25.386   7.537  48.924  1.00  0.00     0.016 C 
HETATM    8  C8  UNL     1      24.144   8.352  48.600  1.00  0.00    -0.021 C 
HETATM    9  C9  UNL     1      23.304   7.581  49.270  1.00  0.00     0.007 C 
HETATM   10  C10 UNL     1      25.430   6.237  48.211  1.00  0.00     0.047 C 
HETATM   11  C11 UNL     1      25.345   5.018  49.014  1.00  0.00    -0.055 A 
HETATM   12  C12 UNL     1      26.416   4.380  49.653  1.00  0.00     0.007 A 
HETATM   13  C13 UNL     1      26.253   3.243  50.419  1.00  0.00     0.003 A 
HETATM   14  C14 UNL     1      25.020   2.655  50.610  1.00  0.00     0.029 A 
HETATM   15  C15 UNL     1      23.891   3.226  50.008  1.00  0.00     0.034 A 
HETATM   16  C16 UNL     1      24.167   4.352  49.267  1.00  0.00     0.036 A 
HETATM   17  N1  UNL     1      22.533   2.775  50.150  1.00  0.00    -0.332 N 
HETATM   18  C17 UNL     1      21.534   3.204  51.118  1.00  0.00     0.226 C 
HETATM   19  N2  UNL     1      21.403   4.299  51.828  1.00  0.00    -0.226 NA
HETATM   20  H17 UNL     1      22.255   2.054  49.458  1.00  0.00     0.168 HD
ENDROOT
BRANCH  18  21
HETATM   21  S1  UNL     1      20.230   2.083  51.445  1.00  0.00     0.213 S 
HETATM   22  O1  UNL     1      19.094   2.307  50.482  1.00  0.00    -0.219 OA
HETATM   23  O2  UNL     1      19.671   2.287  52.818  1.00  0.00    -0.219 OA
BRANCH  21  24
HETATM   24  C18 UNL     1      20.778   0.393  51.235  1.00  0.00     0.187 C 
BRANCH  24  25
HETATM   25  C19 UNL     1      21.469  -0.088  52.459  1.00  0.00    -0.044 A 
HETATM   26  C20 UNL     1      20.752  -0.755  53.424  1.00  0.00     0.008 A 
HETATM   27  C21 UNL     1      21.387  -1.194  54.543  1.00  0.00     0.001 A 
HETATM   28  C22 UNL     1      22.735  -0.979  54.720  1.00  0.00     0.000 A 
HETATM   29  C23 UNL     1      23.528  -0.310  53.783  1.00  0.00     0.001 A 
HETATM   30  C24 UNL     1      22.805   0.100  52.682  1.00  0.00     0.008 A 
ENDBRANCH  24  25
ENDBRANCH  21  24
ENDBRANCH  18  21
TORSDOF 3
ENDMDL
MODEL 5
REMARK VINA RESULT:      -8.7      3.099      6.701
REMARK  3 active torsions:
REMARK  status: ('A' for Active; 'I' for Inactive)
REMARK    1  A    between atoms: C17_18  and  S1_19 
REMARK    2  A    between atoms: S1_19  and  C18_22 
REMARK    3  A    between atoms: C18_22  and  C19_23 
ROOT
HETATM    1  C1  UNL     1      22.012   3.419  51.513  1.00  0.00     0.070 C 
HETATM    2  C2  UNL     1      22.777   2.453  50.727  1.00  0.00     0.034 C 
HETATM    3  C3  UNL     1      22.664   2.067  49.468  1.00  0.00     0.038 C 
HETATM    4  C4  UNL     1      21.587   2.755  48.762  1.00  0.00    -0.038 C 
HETATM    5  C5  UNL     1      20.407   3.319  48.648  1.00  0.00    -0.015 C 
HETATM    6  C6  UNL     1      20.511   4.753  48.237  1.00  0.00     0.036 C 
HETATM    7  C7  UNL     1      21.400   4.921  47.043  1.00  0.00     0.016 C 
HETATM    8  C8  UNL     1      21.591   3.579  46.353  1.00  0.00    -0.021 C 
HETATM    9  C9  UNL     1      22.142   2.976  47.394  1.00  0.00     0.007 C 
HETATM   10  C10 UNL     1      22.674   5.649  47.259  1.00  0.00     0.047 C 
HETATM   11  C11 UNL     1      23.113   5.858  48.639  1.00  0.00    -0.055 A 
HETATM   12  C12 UNL     1      22.703   6.901  49.480  1.00  0.00     0.007 A 
HETATM   13  C13 UNL     1      23.141   7.018  50.785  1.00  0.00     0.003 A 
HETATM   14  C14 UNL     1      24.013   6.112  51.352  1.00  0.00     0.029 A 
HETATM   15  C15 UNL     1      24.475   5.035  50.584  1.00  0.00     0.034 A 
HETATM   16  C16 UNL     1      23.978   5.017  49.300  1.00  0.00     0.036 A 
HETATM   17  N1  UNL     1      25.337   3.977  51.035  1.00  0.00    -0.332 N 
HETATM   18  C17 UNL     1      24.966   2.685  51.595  1.00  0.00     0.226 C 
HETATM   19  N2  UNL     1      23.876   1.962  51.504  1.00  0.00    -0.226 NA
HETATM   20  H17 UNL     1      26.347   4.187  50.934  1.00  0.00     0.168 HD
ENDROOT
BRANCH  18  21
HETATM   21  S1  UNL     1      26.164   1.894  52.596  1.00  0.00     0.213 S 
HETATM   22  O1  UNL     1      26.138   2.463  53.990  1.00  0.00    -0.219 OA
HETATM   23  O2  UNL     1      27.547   2.122  52.069  1.00  0.00    -0.219 OA
BRANCH  21  24
HETATM   24  C18 UNL     1      25.824   0.143  52.730  1.00  0.00     0.187 C 
BRANCH  24  25
HETATM   25  C19 UNL     1      27.080  -0.617  52.957  1.00  0.00    -0.044 A 
HETATM   26  C20 UNL     1      27.143  -1.944  52.601  1.00  0.00     0.008 A 
HETATM   27  C21 UNL     1      28.294  -2.637  52.808  1.00  0.00     0.001 A 
HETATM   28  C22 UNL     1      29.393  -2.027  53.370  1.00  0.00     0.000 A 
HETATM   29  C23 UNL     1      29.403  -0.684  53.756  1.00  0.00     0.001 A 
HETATM   30  C24 UNL     1      28.199  -0.059  53.510  1.00  0.00     0.008 A 
ENDBRANCH  24  25
ENDBRANCH  21  24
ENDBRANCH  18  21
TORSDOF 3
ENDMDL
MODEL 6
REMARK VINA RESULT:      -8.5      2.563      6.472
REMARK  3 active torsions:
REMARK  status: ('A' for Active; 'I' for Inactive)
REMARK    1  A    between atoms: C17_18  and  S1_19 
REMARK    2  A    between atoms: S1_19  and  C18_22 
REMARK    3  A    between atoms: C18_22  and  C19_23 
ROOT
HETATM    1  C1  UNL     1      23.770   5.096  52.379  1.00  0.00     0.070 C 
HETATM    2  C2  UNL     1      22.406   4.814  51.935  1.00  0.00     0.034 C 
HETATM    3  C3  UNL     1      21.563   5.522  51.204  1.00  0.00     0.038 C 
HETATM    4  C4  UNL     1      22.127   6.794  50.766  1.00  0.00    -0.038 C 
HETATM    5  C5  UNL     1      22.860   7.877  50.887  1.00  0.00    -0.015 C 
HETATM    6  C6  UNL     1      23.909   7.963  49.824  1.00  0.00     0.036 C 
HETATM    7  C7  UNL     1      23.328   7.751  48.460  1.00  0.00     0.016 C 
HETATM    8  C8  UNL     1      21.820   7.933  48.510  1.00  0.00    -0.021 C 
HETATM    9  C9  UNL     1      21.601   6.960  49.379  1.00  0.00     0.007 C 
HETATM   10  C10 UNL     1      23.742   6.520  47.744  1.00  0.00     0.047 C 
HETATM   11  C11 UNL     1      24.402   5.471  48.521  1.00  0.00    -0.055 A 
HETATM   12  C12 UNL     1      25.769   5.413  48.823  1.00  0.00     0.007 A 
HETATM   13  C13 UNL     1      26.318   4.403  49.588  1.00  0.00     0.003 A 
HETATM   14  C14 UNL     1      25.556   3.378  50.110  1.00  0.00     0.029 A 
HETATM   15  C15 UNL     1      24.178   3.356  49.859  1.00  0.00     0.034 A 
HETATM   16  C16 UNL     1      23.738   4.407  49.086  1.00  0.00     0.036 A 
HETATM   17  N1  UNL     1      23.236   2.398  50.371  1.00  0.00    -0.332 N 
HETATM   18  C17 UNL     1      22.440   2.473  51.587  1.00  0.00     0.226 C 
HETATM   19  N2  UNL     1      22.039   3.484  52.321  1.00  0.00    -0.226 NA
HETATM   20  H17 UNL     1      23.127   1.556  49.775  1.00  0.00     0.168 HD
ENDROOT
BRANCH  18  21
HETATM   21  S1  UNL     1      21.882   0.954  52.252  1.00  0.00     0.213 S 
HETATM   22  O1  UNL     1      21.845  -0.103  51.180  1.00  0.00    -0.219 OA
HETATM   23  O2  UNL     1      20.486   1.073  52.780  1.00  0.00    -0.219 OA
BRANCH  21  24
HETATM   24  C18 UNL     1      22.990   0.374  53.531  1.00  0.00     0.187 C 
BRANCH  24  25
HETATM   25  C19 UNL     1      24.398   0.712  53.194  1.00  0.00    -0.044 A 
HETATM   26  C20 UNL     1      24.973   1.837  53.736  1.00  0.00     0.008 A 
HETATM   27  C21 UNL     1      26.261   2.143  53.427  1.00  0.00     0.001 A 
HETATM   28  C22 UNL     1      26.993   1.343  52.580  1.00  0.00     0.000 A 
HETATM   29  C23 UNL     1      26.476   0.184  51.992  1.00  0.00     0.001 A 
HETATM   30  C24 UNL     1      25.167  -0.050  52.359  1.00  0.00     0.008 A 
ENDBRANCH  24  25
ENDBRANCH  21  24
ENDBRANCH  18  21
TORSDOF 3
ENDMDL
MODEL 7
REMARK VINA RESULT:      -8.4      3.353      6.918
REMARK  3 active torsions:
REMARK  status: ('A' for Active; 'I' for Inactive)
REMARK    1  A    between atoms: C17_18  and  S1_19 
REMARK    2  A    between atoms: S1_19  and  C18_22 
REMARK    3  A    between atoms: C18_22  and  C19_23 
ROOT
HETATM    1  C1  UNL     1      23.949   6.688  51.508  1.00  0.00     0.070 C 
HETATM    2  C2  UNL     1      23.004   5.573  51.527  1.00  0.00     0.034 C 
HETATM    3  C3  UNL     1      21.763   5.473  51.085  1.00  0.00     0.038 C 
HETATM    4  C4  UNL     1      21.286   6.703  50.461  1.00  0.00    -0.038 C 
HETATM    5  C5  UNL     1      21.185   8.004  50.317  1.00  0.00    -0.015 C 
HETATM    6  C6  UNL     1      21.664   8.457  48.974  1.00  0.00     0.036 C 
HETATM    7  C7  UNL     1      21.044   7.656  47.870  1.00  0.00     0.016 C 
HETATM    8  C8  UNL     1      19.818   6.925  48.393  1.00  0.00    -0.021 C 
HETATM    9  C9  UNL     1      20.467   6.224  49.309  1.00  0.00     0.007 C 
HETATM   10  C10 UNL     1      21.954   6.782  47.090  1.00  0.00     0.047 C 
HETATM   11  C11 UNL     1      23.283   6.519  47.642  1.00  0.00    -0.055 A 
HETATM   12  C12 UNL     1      24.408   7.339  47.496  1.00  0.00     0.007 A 
HETATM   13  C13 UNL     1      25.627   7.038  48.070  1.00  0.00     0.003 A 
HETATM   14  C14 UNL     1      25.821   5.903  48.832  1.00  0.00     0.029 A 
HETATM   15  C15 UNL     1      24.749   5.024  49.032  1.00  0.00     0.034 A 
HETATM   16  C16 UNL     1      23.584   5.420  48.414  1.00  0.00     0.036 A 
HETATM   17  N1  UNL     1      24.764   3.834  49.839  1.00  0.00    -0.332 N 
HETATM   18  C17 UNL     1      24.408   3.689  51.243  1.00  0.00     0.226 C 
HETATM   19  N2  UNL     1      23.651   4.403  52.041  1.00  0.00    -0.226 NA
HETATM   20  H17 UNL     1      25.069   2.985  49.329  1.00  0.00     0.168 HD
ENDROOT
BRANCH  18  21
HETATM   21  S1  UNL     1      25.097   2.319  52.087  1.00  0.00     0.213 S 
HETATM   22  O1  UNL     1      24.263   1.088  51.851  1.00  0.00    -0.219 OA
HETATM   23  O2  UNL     1      25.113   2.546  53.566  1.00  0.00    -0.219 OA
BRANCH  21  24
HETATM   24  C18 UNL     1      26.745   1.966  51.487  1.00  0.00     0.187 C 
BRANCH  24  25
HETATM   25  C19 UNL     1      27.538   1.259  52.525  1.00  0.00    -0.044 A 
HETATM   26  C20 UNL     1      28.395   1.975  53.328  1.00  0.00     0.008 A 
HETATM   27  C21 UNL     1      29.119   1.326  54.277  1.00  0.00     0.001 A 
HETATM   28  C22 UNL     1      29.005  -0.036  54.444  1.00  0.00     0.000 A 
HETATM   29  C23 UNL     1      28.155  -0.828  53.666  1.00  0.00     0.001 A 
HETATM   30  C24 UNL     1      27.461  -0.090  52.731  1.00  0.00     0.008 A 
ENDBRANCH  24  25
ENDBRANCH  21  24
ENDBRANCH  18  21
TORSDOF 3
ENDMDL
MODEL 8
REMARK VINA RESULT:      -8.2      2.689      5.447
REMARK  3 active torsions:
REMARK  status: ('A' for Active; 'I' for Inactive)
REMARK    1  A    between atoms: C17_18  and  S1_19 
REMARK    2  A    between atoms: S1_19  and  C18_22 
REMARK    3  A    between atoms: C18_22  and  C19_23 
ROOT
HETATM    1  C1  UNL     1      23.875   3.548  52.728  1.00  0.00     0.070 C 
HETATM    2  C2  UNL     1      24.629   3.284  51.504  1.00  0.00     0.034 C 
HETATM    3  C3  UNL     1      25.779   2.663  51.305  1.00  0.00     0.038 C 
HETATM    4  C4  UNL     1      26.365   2.152  52.539  1.00  0.00    -0.038 C 
HETATM    5  C5  UNL     1      26.650   2.172  53.820  1.00  0.00    -0.015 C 
HETATM    6  C6  UNL     1      26.093   0.983  54.537  1.00  0.00     0.036 C 
HETATM    7  C7  UNL     1      26.445  -0.295  53.839  1.00  0.00     0.016 C 
HETATM    8  C8  UNL     1      27.595  -0.052  52.874  1.00  0.00    -0.021 C 
HETATM    9  C9  UNL     1      26.958   0.842  52.136  1.00  0.00     0.007 C 
HETATM   10  C10 UNL     1      25.325  -1.051  53.229  1.00  0.00     0.047 C 
HETATM   11  C11 UNL     1      24.046  -0.361  53.068  1.00  0.00    -0.055 A 
HETATM   12  C12 UNL     1      23.053  -0.236  54.048  1.00  0.00     0.007 A 
HETATM   13  C13 UNL     1      21.878   0.457  53.832  1.00  0.00     0.003 A 
HETATM   14  C14 UNL     1      21.601   1.077  52.631  1.00  0.00     0.029 A 
HETATM   15  C15 UNL     1      22.539   1.005  51.592  1.00  0.00     0.034 A 
HETATM   16  C16 UNL     1      23.669   0.290  51.916  1.00  0.00     0.036 A 
HETATM   17  N1  UNL     1      22.433   1.638  50.306  1.00  0.00    -0.332 N 
HETATM   18  C17 UNL     1      22.924   2.946  49.898  1.00  0.00     0.226 C 
HETATM   19  N2  UNL     1      23.873   3.720  50.369  1.00  0.00    -0.226 NA
HETATM   20  H17 UNL     1      21.941   1.065  49.595  1.00  0.00     0.168 HD
ENDROOT
BRANCH  18  21
HETATM   21  S1  UNL     1      22.135   3.684  48.522  1.00  0.00     0.213 S 
HETATM   22  O1  UNL     1      21.797   2.639  47.491  1.00  0.00    -0.219 OA
HETATM   23  O2  UNL     1      23.034   4.673  47.847  1.00  0.00    -0.219 OA
BRANCH  21  24
HETATM   24  C18 UNL     1      20.600   4.461  49.011  1.00  0.00     0.187 C 
BRANCH  24  25
HETATM   25  C19 UNL     1      19.750   3.508  49.770  1.00  0.00    -0.044 A 
HETATM   26  C20 UNL     1      19.475   3.751  51.095  1.00  0.00     0.008 A 
HETATM   27  C21 UNL     1      18.697   2.878  51.787  1.00  0.00     0.001 A 
HETATM   28  C22 UNL     1      18.183   1.755  51.178  1.00  0.00     0.000 A 
HETATM   29  C23 UNL     1      18.419   1.443  49.836  1.00  0.00     0.001 A 
HETATM   30  C24 UNL     1      19.216   2.380  49.212  1.00  0.00     0.008 A 
ENDBRANCH  24  25
ENDBRANCH  21  24
ENDBRANCH  18  21
TORSDOF 3
ENDMDL
MODEL 9
REMARK VINA RESULT:      -8.2      3.011      8.962
REMARK  3 active torsions:
REMARK  status: ('A' for Active; 'I' for Inactive)
REMARK    1  A    between atoms: C17_18  and  S1_19 
REMARK    2  A    between atoms: S1_19  and  C18_22 
REMARK    3  A    between atoms: C18_22  and  C19_23 
ROOT
HETATM    1  C1  UNL     1      27.204   7.791  46.911  1.00  0.00     0.070 C 
HETATM    2  C2  UNL     1      27.582   6.763  47.879  1.00  0.00     0.034 C 
HETATM    3  C3  UNL     1      28.766   6.365  48.311  1.00  0.00     0.038 C 
HETATM    4  C4  UNL     1      29.866   7.111  47.709  1.00  0.00    -0.038 C 
HETATM    5  C5  UNL     1      30.484   7.750  46.743  1.00  0.00    -0.015 C 
HETATM    6  C6  UNL     1      30.786   9.167  47.114  1.00  0.00     0.036 C 
HETATM    7  C7  UNL     1      31.457   9.255  48.451  1.00  0.00     0.016 C 
HETATM    8  C8  UNL     1      32.010   7.893  48.837  1.00  0.00    -0.021 C 
HETATM    9  C9  UNL     1      30.842   7.272  48.827  1.00  0.00     0.007 C 
HETATM   10  C10 UNL     1      30.687   9.901  49.541  1.00  0.00     0.047 C 
HETATM   11  C11 UNL     1      29.253  10.103  49.334  1.00  0.00    -0.055 A 
HETATM   12  C12 UNL     1      28.666  11.185  48.665  1.00  0.00     0.007 A 
HETATM   13  C13 UNL     1      27.302  11.294  48.484  1.00  0.00     0.003 A 
HETATM   14  C14 UNL     1      26.419  10.342  48.951  1.00  0.00     0.029 A 
HETATM   15  C15 UNL     1      26.918   9.224  49.632  1.00  0.00     0.034 A 
HETATM   16  C16 UNL     1      28.289   9.217  49.757  1.00  0.00     0.036 A 
HETATM   17  N1  UNL     1      26.147   8.118  50.131  1.00  0.00    -0.332 N 
HETATM   18  C17 UNL     1      25.829   6.863  49.465  1.00  0.00     0.226 C 
HETATM   19  N2  UNL     1      26.405   6.213  48.482  1.00  0.00    -0.226 NA
HETATM   20  H17 UNL     1      25.785   8.258  51.093  1.00  0.00     0.168 HD
ENDROOT
BRANCH  18  21
HETATM   21  S1  UNL     1      24.411   6.011  50.037  1.00  0.00     0.213 S 
HETATM   22  O1  UNL     1      23.163   6.776  49.684  1.00  0.00    -0.219 OA
HETATM   23  O2  UNL     1      24.423   5.881  51.529  1.00  0.00    -0.219 OA
BRANCH  21  24
HETATM   24  C18 UNL     1      24.283   4.402  49.267  1.00  0.00     0.187 C 
BRANCH  24  25
HETATM   25  C19 UNL     1      24.797   3.345  50.177  1.00  0.00    -0.044 A 
HETATM   26  C20 UNL     1      26.155   3.174  50.319  1.00  0.00     0.008 A 
HETATM   27  C21 UNL     1      26.622   2.208  51.152  1.00  0.00     0.001 A 
HETATM   28  C22 UNL     1      25.756   1.401  51.853  1.00  0.00     0.000 A 
HETATM   29  C23 UNL     1      24.366   1.516  51.761  1.00  0.00     0.001 A 
HETATM   30  C24 UNL     1      23.980   2.519  50.896  1.00  0.00     0.008 A 
ENDBRANCH  24  25
ENDBRANCH  21  24
ENDBRANCH  18  21
TORSDOF 3
ENDMDL
