MODEL 1
REMARK VINA RESULT:      -7.5      0.000      0.000
REMARK  6 active torsions:
REMARK  status: ('A' for Active; 'I' for Inactive)
REMARK    1  A    between atoms: O1_2  and  C2_3 
REMARK    2  A    between atoms: C6_7  and  N1_8 
REMARK    3  A    between atoms: N1_8  and  C7_9 
REMARK    4  A    between atoms: C8_10  and  N2_11 
REMARK    5  A    between atoms: C8_10  and  N3_12 
REMARK    6  A    between atoms: N3_12  and  C9_13 
ROOT
HETATM    1  C7  UNL     1      26.152   3.112  50.406  1.00  0.00     0.132 C 
HETATM    2  C8  UNL     1      25.304   4.137  50.431  1.00  0.00     0.114 C 
ENDROOT
BRANCH   1   3
HETATM    3  N1  UNL     1      26.198   2.238  51.553  1.00  0.00    -0.385 N 
HETATM    4  H7  UNL     1      25.145   2.256  51.698  1.00  0.00     0.159 HD
BRANCH   3   5
HETATM    5  C6  UNL     1      27.077   1.479  52.413  1.00  0.00     0.142 C 
HETATM    6  C5  UNL     1      26.915   0.022  52.051  1.00  0.00     0.032 C 
HETATM    7  C4  UNL     1      26.505  -0.543  53.188  1.00  0.00     0.055 C 
HETATM    8  C3  UNL     1      25.534  -0.444  54.351  1.00  0.00     0.066 C 
HETATM    9  N4  UNL     1      27.763  -1.087  53.939  1.00  0.00    -0.254 NA
HETATM   10  C2  UNL     1      25.192   0.735  53.720  1.00  0.00     0.079 C 
HETATM   11  C15 UNL     1      26.487   1.631  53.843  1.00  0.00     0.207 C 
HETATM   12  O2  UNL     1      27.462   1.191  54.763  1.00  0.00    -0.346 OA
HETATM   13  C16 UNL     1      28.370   0.050  54.599  1.00  0.00     0.295 C 
BRANCH  10  14
HETATM   14  O1  UNL     1      24.176   1.495  53.010  1.00  0.00    -0.357 OA
HETATM   15  C1  UNL     1      23.049   0.665  52.711  1.00  0.00     0.209 C 
ENDBRANCH  10  14
ENDBRANCH   3   5
ENDBRANCH   1   3
BRANCH   2  16
HETATM   16  N2  UNL     1      24.561   4.174  51.656  1.00  0.00    -0.384 N 
HETATM   17  H9  UNL     1      23.818   3.453  51.486  1.00  0.00     0.157 HD
HETATM   18  H10 UNL     1      24.828   4.826  52.438  1.00  0.00     0.157 HD
ENDBRANCH   2  16
BRANCH   2  19
HETATM   19  N3  UNL     1      25.248   5.005  49.311  1.00  0.00    -0.342 N 
HETATM   20  H11 UNL     1      24.658   4.857  48.459  1.00  0.00     0.167 HD
BRANCH  19  21
HETATM   21  C9  UNL     1      26.057   6.199  49.309  1.00  0.00     0.034 A 
HETATM   22  C10 UNL     1      25.795   7.309  50.114  1.00  0.00     0.029 A 
HETATM   23  C11 UNL     1      26.638   8.401  50.031  1.00  0.00     0.004 A 
HETATM   24  C12 UNL     1      27.715   8.454  49.201  1.00  0.00     0.019 A 
HETATM   25  C13 UNL     1      28.004   7.373  48.390  1.00  0.00     0.013 A 
HETATM   26 BR1  UNL     1      29.489   7.359  47.200  1.00  0.00    -0.051 Br
HETATM   27  C14 UNL     1      27.161   6.285  48.475  1.00  0.00     0.048 A 
ENDBRANCH  19  21
ENDBRANCH   2  19
TORSDOF 6
ENDMDL
MODEL 2
REMARK VINA RESULT:      -6.9      1.898      2.371
REMARK  6 active torsions:
REMARK  status: ('A' for Active; 'I' for Inactive)
REMARK    1  A    between atoms: O1_2  and  C2_3 
REMARK    2  A    between atoms: C6_7  and  N1_8 
REMARK    3  A    between atoms: N1_8  and  C7_9 
REMARK    4  A    between atoms: C8_10  and  N2_11 
REMARK    5  A    between atoms: C8_10  and  N3_12 
REMARK    6  A    between atoms: N3_12  and  C9_13 
ROOT
HETATM    1  C7  UNL     1      24.421   3.371  52.980  1.00  0.00     0.132 C 
HETATM    2  C8  UNL     1      23.766   3.326  51.822  1.00  0.00     0.114 C 
ENDROOT
BRANCH   1   3
HETATM    3  N1  UNL     1      25.086   2.174  53.432  1.00  0.00    -0.385 N 
HETATM    4  H7  UNL     1      24.195   1.593  53.434  1.00  0.00     0.159 HD
BRANCH   3   5
HETATM    5  C6  UNL     1      26.364   1.617  53.815  1.00  0.00     0.142 C 
HETATM    6  C5  UNL     1      27.105   1.273  52.546  1.00  0.00     0.032 C 
HETATM    7  C4  UNL     1      27.321  -0.039  52.651  1.00  0.00     0.055 C 
HETATM    8  C3  UNL     1      26.695  -1.385  52.971  1.00  0.00     0.066 C 
HETATM    9  N4  UNL     1      28.735  -0.247  53.284  1.00  0.00    -0.254 NA
HETATM   10  C2  UNL     1      25.596  -0.596  53.245  1.00  0.00     0.079 C 
HETATM   11  C15 UNL     1      26.034   0.260  54.498  1.00  0.00     0.207 C 
HETATM   12  O2  UNL     1      27.193  -0.177  55.175  1.00  0.00    -0.346 OA
HETATM   13  C16 UNL     1      28.579  -0.052  54.710  1.00  0.00     0.295 C 
BRANCH  10  14
HETATM   14  O1  UNL     1      24.236  -0.223  52.890  1.00  0.00    -0.357 OA
HETATM   15  C1  UNL     1      23.306  -0.774  53.829  1.00  0.00     0.209 C 
ENDBRANCH  10  14
ENDBRANCH   3   5
ENDBRANCH   1   3
BRANCH   2  16
HETATM   16  N2  UNL     1      23.854   2.029  51.218  1.00  0.00    -0.384 N 
HETATM   17  H9  UNL     1      22.991   1.557  51.582  1.00  0.00     0.157 HD
HETATM   18  H10 UNL     1      24.657   1.774  50.587  1.00  0.00     0.157 HD
ENDBRANCH   2  16
BRANCH   2  19
HETATM   19  N3  UNL     1      23.106   4.496  51.364  1.00  0.00    -0.342 N 
HETATM   20  H11 UNL     1      22.220   4.886  51.762  1.00  0.00     0.167 HD
BRANCH  19  21
HETATM   21  C9  UNL     1      23.673   5.235  50.263  1.00  0.00     0.034 A 
HETATM   22  C10 UNL     1      22.937   6.108  49.461  1.00  0.00     0.029 A 
HETATM   23  C11 UNL     1      23.583   6.766  48.432  1.00  0.00     0.004 A 
HETATM   24  C12 UNL     1      24.907   6.606  48.156  1.00  0.00     0.019 A 
HETATM   25  C13 UNL     1      25.665   5.750  48.930  1.00  0.00     0.013 A 
HETATM   26 BR1  UNL     1      27.521   5.466  48.617  1.00  0.00    -0.051 Br
HETATM   27  C14 UNL     1      25.017   5.095  49.956  1.00  0.00     0.048 A 
ENDBRANCH  19  21
ENDBRANCH   2  19
TORSDOF 6
ENDMDL
MODEL 3
REMARK VINA RESULT:      -6.9      3.088      3.919
REMARK  6 active torsions:
REMARK  status: ('A' for Active; 'I' for Inactive)
REMARK    1  A    between atoms: O1_2  and  C2_3 
REMARK    2  A    between atoms: C6_7  and  N1_8 
REMARK    3  A    between atoms: N1_8  and  C7_9 
REMARK    4  A    between atoms: C8_10  and  N2_11 
REMARK    5  A    between atoms: C8_10  and  N3_12 
REMARK    6  A    between atoms: N3_12  and  C9_13 
ROOT
HETATM    1  C7  UNL     1      26.075   3.325  50.550  1.00  0.00     0.132 C 
HETATM    2  C8  UNL     1      25.137   4.261  50.432  1.00  0.00     0.114 C 
ENDROOT
BRANCH   1   3
HETATM    3  N1  UNL     1      26.404   2.853  51.873  1.00  0.00    -0.385 N 
HETATM    4  H7  UNL     1      25.798   3.579  52.359  1.00  0.00     0.159 HD
BRANCH   3   5
HETATM    5  C6  UNL     1      27.166   1.872  52.611  1.00  0.00     0.142 C 
HETATM    6  C5  UNL     1      27.018   0.552  51.894  1.00  0.00     0.032 C 
HETATM    7  C4  UNL     1      26.473  -0.247  52.812  1.00  0.00     0.055 C 
HETATM    8  C3  UNL     1      25.380  -0.384  53.857  1.00  0.00     0.066 C 
HETATM    9  N4  UNL     1      27.628  -1.010  53.536  1.00  0.00    -0.254 NA
HETATM   10  C2  UNL     1      25.133   0.926  53.497  1.00  0.00     0.079 C 
HETATM   11  C15 UNL     1      26.424   1.708  53.966  1.00  0.00     0.207 C 
HETATM   12  O2  UNL     1      27.282   1.018  54.849  1.00  0.00    -0.346 OA
HETATM   13  C16 UNL     1      28.180  -0.092  54.510  1.00  0.00     0.295 C 
BRANCH  10  14
HETATM   14  O1  UNL     1      24.218   1.878  52.890  1.00  0.00    -0.357 OA
HETATM   15  C1  UNL     1      23.145   1.192  52.235  1.00  0.00     0.209 C 
ENDBRANCH  10  14
ENDBRANCH   3   5
ENDBRANCH   1   3
BRANCH   2  16
HETATM   16  N2  UNL     1      24.607   4.638  51.709  1.00  0.00    -0.384 N 
HETATM   17  H9  UNL     1      23.697   4.117  51.733  1.00  0.00     0.157 HD
HETATM   18  H10 UNL     1      25.131   5.290  52.348  1.00  0.00     0.157 HD
ENDBRANCH   2  16
BRANCH   2  19
HETATM   19  N3  UNL     1      24.803   4.735  49.137  1.00  0.00    -0.342 N 
HETATM   20  H11 UNL     1      25.434   5.292  48.515  1.00  0.00     0.167 HD
BRANCH  19  21
HETATM   21  C9  UNL     1      23.496   4.446  48.600  1.00  0.00     0.034 A 
HETATM   22  C10 UNL     1      22.831   5.278  47.698  1.00  0.00     0.029 A 
HETATM   23  C11 UNL     1      21.581   4.902  47.247  1.00  0.00     0.004 A 
HETATM   24  C12 UNL     1      20.958   3.756  47.638  1.00  0.00     0.019 A 
HETATM   25  C13 UNL     1      21.587   2.909  48.528  1.00  0.00     0.013 A 
HETATM   26 BR1  UNL     1      20.792   1.287  49.128  1.00  0.00    -0.051 Br
HETATM   27  C14 UNL     1      22.835   3.287  48.977  1.00  0.00     0.048 A 
ENDBRANCH  19  21
ENDBRANCH   2  19
TORSDOF 6
ENDMDL
MODEL 4
REMARK VINA RESULT:      -6.6      4.181      7.180
REMARK  6 active torsions:
REMARK  status: ('A' for Active; 'I' for Inactive)
REMARK    1  A    between atoms: O1_2  and  C2_3 
REMARK    2  A    between atoms: C6_7  and  N1_8 
REMARK    3  A    between atoms: N1_8  and  C7_9 
REMARK    4  A    between atoms: C8_10  and  N2_11 
REMARK    5  A    between atoms: C8_10  and  N3_12 
REMARK    6  A    between atoms: N3_12  and  C9_13 
ROOT
HETATM    1  C7  UNL     1      24.147   2.339  51.528  1.00  0.00     0.132 C 
HETATM    2  C8  UNL     1      25.107   2.909  52.253  1.00  0.00     0.114 C 
ENDROOT
BRANCH   1   3
HETATM    3  N1  UNL     1      22.780   2.509  51.956  1.00  0.00    -0.385 N 
HETATM    4  H7  UNL     1      23.049   3.010  52.855  1.00  0.00     0.159 HD
BRANCH   3   5
HETATM    5  C6  UNL     1      21.402   2.254  51.603  1.00  0.00     0.142 C 
HETATM    6  C5  UNL     1      21.271   2.465  50.114  1.00  0.00     0.032 C 
HETATM    7  C4  UNL     1      20.359   3.433  50.011  1.00  0.00     0.055 C 
HETATM    8  C3  UNL     1      19.925   4.798  50.516  1.00  0.00     0.066 C 
HETATM    9  N4  UNL     1      18.960   2.762  49.826  1.00  0.00    -0.254 NA
HETATM   10  C2  UNL     1      21.004   4.619  51.359  1.00  0.00     0.079 C 
HETATM   11  C15 UNL     1      20.588   3.398  52.270  1.00  0.00     0.207 C 
HETATM   12  O2  UNL     1      19.224   3.034  52.238  1.00  0.00    -0.346 OA
HETATM   13  C16 UNL     1      18.526   2.349  51.144  1.00  0.00     0.295 C 
BRANCH  10  14
HETATM   14  O1  UNL     1      22.327   5.063  51.766  1.00  0.00    -0.357 OA
HETATM   15  C1  UNL     1      22.857   5.993  50.815  1.00  0.00     0.209 C 
ENDBRANCH  10  14
ENDBRANCH   3   5
ENDBRANCH   1   3
BRANCH   2  16
HETATM   16  N2  UNL     1      24.568   3.618  53.375  1.00  0.00    -0.384 N 
HETATM   17  H9  UNL     1      25.382   4.208  53.676  1.00  0.00     0.157 HD
HETATM   18  H10 UNL     1      23.576   3.467  53.692  1.00  0.00     0.157 HD
ENDBRANCH   2  16
BRANCH   2  19
HETATM   19  N3  UNL     1      26.457   2.750  51.845  1.00  0.00    -0.342 N 
HETATM   20  H11 UNL     1      26.910   3.249  51.044  1.00  0.00     0.167 HD
BRANCH  19  21
HETATM   21  C9  UNL     1      27.305   1.835  52.569  1.00  0.00     0.034 A 
HETATM   22  C10 UNL     1      28.314   2.246  53.440  1.00  0.00     0.029 A 
HETATM   23  C11 UNL     1      29.068   1.282  54.083  1.00  0.00     0.004 A 
HETATM   24  C12 UNL     1      28.877  -0.055  53.909  1.00  0.00     0.019 A 
HETATM   25  C13 UNL     1      27.887  -0.496  53.055  1.00  0.00     0.013 A 
HETATM   26 BR1  UNL     1      27.550  -2.345  52.753  1.00  0.00    -0.051 Br
HETATM   27  C14 UNL     1      27.137   0.468  52.415  1.00  0.00     0.048 A 
ENDBRANCH  19  21
ENDBRANCH   2  19
TORSDOF 6
ENDMDL
MODEL 5
REMARK VINA RESULT:      -6.4      4.531      7.963
REMARK  6 active torsions:
REMARK  status: ('A' for Active; 'I' for Inactive)
REMARK    1  A    between atoms: O1_2  and  C2_3 
REMARK    2  A    between atoms: C6_7  and  N1_8 
REMARK    3  A    between atoms: N1_8  and  C7_9 
REMARK    4  A    between atoms: C8_10  and  N2_11 
REMARK    5  A    between atoms: C8_10  and  N3_12 
REMARK    6  A    between atoms: N3_12  and  C9_13 
ROOT
HETATM    1  C7  UNL     1      27.709   4.877  48.624  1.00  0.00     0.132 C 
HETATM    2  C8  UNL     1      26.587   5.255  49.234  1.00  0.00     0.114 C 
ENDROOT
BRANCH   1   3
HETATM    3  N1  UNL     1      28.809   5.810  48.586  1.00  0.00    -0.385 N 
HETATM    4  H7  UNL     1      28.267   6.579  49.081  1.00  0.00     0.159 HD
BRANCH   3   5
HETATM    5  C6  UNL     1      30.178   5.989  48.159  1.00  0.00     0.142 C 
HETATM    6  C5  UNL     1      31.020   6.153  49.401  1.00  0.00     0.032 C 
HETATM    7  C4  UNL     1      31.579   7.354  49.248  1.00  0.00     0.055 C 
HETATM    8  C3  UNL     1      31.331   8.811  48.897  1.00  0.00     0.066 C 
HETATM    9  N4  UNL     1      32.978   7.156  48.581  1.00  0.00    -0.254 NA
HETATM   10  C2  UNL     1      30.052   8.342  48.671  1.00  0.00     0.079 C 
HETATM   11  C15 UNL     1      30.207   7.366  47.438  1.00  0.00     0.207 C 
HETATM   12  O2  UNL     1      31.422   7.456  46.724  1.00  0.00    -0.346 OA
HETATM   13  C16 UNL     1      32.735   6.972  47.165  1.00  0.00     0.295 C 
BRANCH  10  14
HETATM   14  O1  UNL     1      28.653   8.361  49.065  1.00  0.00    -0.357 OA
HETATM   15  C1  UNL     1      28.282   9.665  49.528  1.00  0.00     0.209 C 
ENDBRANCH  10  14
ENDBRANCH   3   5
ENDBRANCH   1   3
BRANCH   2  16
HETATM   16  N2  UNL     1      26.697   6.582  49.763  1.00  0.00    -0.384 N 
HETATM   17  H9  UNL     1      27.186   6.416  50.676  1.00  0.00     0.157 HD
HETATM   18  H10 UNL     1      26.325   7.413  49.235  1.00  0.00     0.157 HD
ENDBRANCH   2  16
BRANCH   2  19
HETATM   19  N3  UNL     1      25.496   4.348  49.279  1.00  0.00    -0.342 N 
HETATM   20  H11 UNL     1      24.867   4.118  48.476  1.00  0.00     0.167 HD
BRANCH  19  21
HETATM   21  C9  UNL     1      25.200   3.670  50.517  1.00  0.00     0.034 A 
HETATM   22  C10 UNL     1      24.233   4.107  51.424  1.00  0.00     0.029 A 
HETATM   23  C11 UNL     1      24.031   3.378  52.580  1.00  0.00     0.004 A 
HETATM   24  C12 UNL     1      24.730   2.250  52.885  1.00  0.00     0.019 A 
HETATM   25  C13 UNL     1      25.693   1.788  52.010  1.00  0.00     0.013 A 
HETATM   26 BR1  UNL     1      26.716   0.221  52.355  1.00  0.00    -0.051 Br
HETATM   27  C14 UNL     1      25.892   2.518  50.857  1.00  0.00     0.048 A 
ENDBRANCH  19  21
ENDBRANCH   2  19
TORSDOF 6
ENDMDL
MODEL 6
REMARK VINA RESULT:      -6.3      1.325      2.309
REMARK  6 active torsions:
REMARK  status: ('A' for Active; 'I' for Inactive)
REMARK    1  A    between atoms: O1_2  and  C2_3 
REMARK    2  A    between atoms: C6_7  and  N1_8 
REMARK    3  A    between atoms: N1_8  and  C7_9 
REMARK    4  A    between atoms: C8_10  and  N2_11 
REMARK    5  A    between atoms: C8_10  and  N3_12 
REMARK    6  A    between atoms: N3_12  and  C9_13 
ROOT
HETATM    1  C7  UNL     1      26.271   3.138  50.367  1.00  0.00     0.132 C 
HETATM    2  C8  UNL     1      25.454   4.188  50.314  1.00  0.00     0.114 C 
ENDROOT
BRANCH   1   3
HETATM    3  N1  UNL     1      26.248   2.318  51.554  1.00  0.00    -0.385 N 
HETATM    4  H7  UNL     1      26.797   3.019  52.136  1.00  0.00     0.159 HD
BRANCH   3   5
HETATM    5  C6  UNL     1      25.789   1.061  52.101  1.00  0.00     0.142 C 
HETATM    6  C5  UNL     1      25.377   1.315  53.531  1.00  0.00     0.032 C 
HETATM    7  C4  UNL     1      26.165   0.502  54.236  1.00  0.00     0.055 C 
HETATM    8  C3  UNL     1      27.588   0.017  54.448  1.00  0.00     0.066 C 
HETATM    9  N4  UNL     1      25.392  -0.835  54.472  1.00  0.00    -0.254 NA
HETATM   10  C2  UNL     1      27.829   0.843  53.368  1.00  0.00     0.079 C 
HETATM   11  C15 UNL     1      27.052   0.159  52.174  1.00  0.00     0.207 C 
HETATM   12  O2  UNL     1      26.624  -1.169  52.391  1.00  0.00    -0.346 OA
HETATM   13  C16 UNL     1      25.516  -1.602  53.250  1.00  0.00     0.295 C 
BRANCH  10  14
HETATM   14  O1  UNL     1      28.478   2.042  52.863  1.00  0.00    -0.357 OA
HETATM   15  C1  UNL     1      29.383   2.569  53.839  1.00  0.00     0.209 C 
ENDBRANCH  10  14
ENDBRANCH   3   5
ENDBRANCH   1   3
BRANCH   2  16
HETATM   16  N2  UNL     1      24.669   4.305  51.507  1.00  0.00    -0.384 N 
HETATM   17  H9  UNL     1      25.118   5.124  51.987  1.00  0.00     0.157 HD
HETATM   18  H10 UNL     1      23.871   3.648  51.703  1.00  0.00     0.157 HD
ENDBRANCH   2  16
BRANCH   2  19
HETATM   19  N3  UNL     1      25.467   5.004  49.153  1.00  0.00    -0.342 N 
HETATM   20  H11 UNL     1      24.925   4.819  48.277  1.00  0.00     0.167 HD
BRANCH  19  21
HETATM   21  C9  UNL     1      26.281   6.195  49.142  1.00  0.00     0.034 A 
HETATM   22  C10 UNL     1      25.968   7.349  49.862  1.00  0.00     0.029 A 
HETATM   23  C11 UNL     1      26.821   8.433  49.779  1.00  0.00     0.004 A 
HETATM   24  C12 UNL     1      27.956   8.436  49.028  1.00  0.00     0.019 A 
HETATM   25  C13 UNL     1      28.296   7.311  48.303  1.00  0.00     0.013 A 
HETATM   26 BR1  UNL     1      29.863   7.227  47.227  1.00  0.00    -0.051 Br
HETATM   27  C14 UNL     1      27.443   6.231  48.388  1.00  0.00     0.048 A 
ENDBRANCH  19  21
ENDBRANCH   2  19
TORSDOF 6
ENDMDL
MODEL 7
REMARK VINA RESULT:      -6.2      7.855      8.985
REMARK  6 active torsions:
REMARK  status: ('A' for Active; 'I' for Inactive)
REMARK    1  A    between atoms: O1_2  and  C2_3 
REMARK    2  A    between atoms: C6_7  and  N1_8 
REMARK    3  A    between atoms: N1_8  and  C7_9 
REMARK    4  A    between atoms: C8_10  and  N2_11 
REMARK    5  A    between atoms: C8_10  and  N3_12 
REMARK    6  A    between atoms: N3_12  and  C9_13 
ROOT
HETATM    1  C7  UNL     1      30.740   7.683  47.820  1.00  0.00     0.132 C 
HETATM    2  C8  UNL     1      30.550   8.007  49.097  1.00  0.00     0.114 C 
ENDROOT
BRANCH   1   3
HETATM    3  N1  UNL     1      31.902   6.897  47.483  1.00  0.00    -0.385 N 
HETATM    4  H7  UNL     1      32.583   7.585  47.925  1.00  0.00     0.159 HD
BRANCH   3   5
HETATM    5  C6  UNL     1      32.349   5.680  46.845  1.00  0.00     0.142 C 
HETATM    6  C5  UNL     1      32.249   4.573  47.867  1.00  0.00     0.032 C 
HETATM    7  C4  UNL     1      33.500   4.120  47.966  1.00  0.00     0.055 C 
HETATM    8  C3  UNL     1      34.959   4.509  48.130  1.00  0.00     0.066 C 
HETATM    9  N4  UNL     1      33.657   2.914  46.984  1.00  0.00    -0.254 NA
HETATM   10  C2  UNL     1      34.431   5.783  48.055  1.00  0.00     0.079 C 
HETATM   11  C15 UNL     1      33.867   5.884  46.583  1.00  0.00     0.207 C 
HETATM   12  O2  UNL     1      34.290   4.882  45.685  1.00  0.00    -0.346 OA
HETATM   13  C16 UNL     1      33.854   3.481  45.666  1.00  0.00     0.295 C 
BRANCH  10  14
HETATM   14  O1  UNL     1      34.180   7.047  48.729  1.00  0.00    -0.357 OA
HETATM   15  C1  UNL     1      35.153   8.022  48.340  1.00  0.00     0.209 C 
ENDBRANCH  10  14
ENDBRANCH   3   5
ENDBRANCH   1   3
BRANCH   2  16
HETATM   16  N2  UNL     1      31.590   7.485  49.933  1.00  0.00    -0.384 N 
HETATM   17  H9  UNL     1      31.593   6.468  49.671  1.00  0.00     0.157 HD
HETATM   18  H10 UNL     1      32.123   8.106  50.594  1.00  0.00     0.157 HD
ENDBRANCH   2  16
BRANCH   2  19
HETATM   19  N3  UNL     1      29.411   8.780  49.443  1.00  0.00    -0.342 N 
HETATM   20  H11 UNL     1      28.539   8.409  49.886  1.00  0.00     0.167 HD
BRANCH  19  21
HETATM   21  C9  UNL     1      29.420  10.198  49.177  1.00  0.00     0.034 A 
HETATM   22  C10 UNL     1      30.560  10.995  49.284  1.00  0.00     0.029 A 
HETATM   23  C11 UNL     1      30.453  12.345  49.005  1.00  0.00     0.004 A 
HETATM   24  C12 UNL     1      29.289  12.941  48.629  1.00  0.00     0.019 A 
HETATM   25  C13 UNL     1      28.141  12.182  48.512  1.00  0.00     0.013 A 
HETATM   26 BR1  UNL     1      26.471  12.932  47.993  1.00  0.00    -0.051 Br
HETATM   27  C14 UNL     1      28.251  10.836  48.792  1.00  0.00     0.048 A 
ENDBRANCH  19  21
ENDBRANCH   2  19
TORSDOF 6
ENDMDL
MODEL 8
REMARK VINA RESULT:      -6.1      4.395      8.557
REMARK  6 active torsions:
REMARK  status: ('A' for Active; 'I' for Inactive)
REMARK    1  A    between atoms: O1_2  and  C2_3 
REMARK    2  A    between atoms: C6_7  and  N1_8 
REMARK    3  A    between atoms: N1_8  and  C7_9 
REMARK    4  A    between atoms: C8_10  and  N2_11 
REMARK    5  A    between atoms: C8_10  and  N3_12 
REMARK    6  A    between atoms: N3_12  and  C9_13 
ROOT
HETATM    1  C7  UNL     1      27.213   5.472  48.651  1.00  0.00     0.132 C 
HETATM    2  C8  UNL     1      26.146   5.347  49.438  1.00  0.00     0.114 C 
ENDROOT
BRANCH   1   3
HETATM    3  N1  UNL     1      28.041   6.642  48.808  1.00  0.00    -0.385 N 
HETATM    4  H7  UNL     1      28.575   6.241  49.636  1.00  0.00     0.159 HD
BRANCH   3   5
HETATM    5  C6  UNL     1      28.320   7.959  48.281  1.00  0.00     0.142 C 
HETATM    6  C5  UNL     1      28.610   7.803  46.808  1.00  0.00     0.032 C 
HETATM    7  C4  UNL     1      29.848   8.282  46.677  1.00  0.00     0.055 C 
HETATM    8  C3  UNL     1      31.261   8.261  47.234  1.00  0.00     0.066 C 
HETATM    9  N4  UNL     1      29.743   9.790  46.281  1.00  0.00    -0.254 NA
HETATM   10  C2  UNL     1      30.673   7.443  48.178  1.00  0.00     0.079 C 
HETATM   11  C15 UNL     1      29.662   8.389  48.938  1.00  0.00     0.207 C 
HETATM   12  O2  UNL     1      29.825   9.775  48.721  1.00  0.00    -0.346 OA
HETATM   13  C16 UNL     1      29.477  10.518  47.504  1.00  0.00     0.295 C 
BRANCH  10  14
HETATM   14  O1  UNL     1      30.587   6.116  48.767  1.00  0.00    -0.357 OA
HETATM   15  C1  UNL     1      31.698   5.885  49.640  1.00  0.00     0.209 C 
ENDBRANCH  10  14
ENDBRANCH   3   5
ENDBRANCH   1   3
BRANCH   2  16
HETATM   16  N2  UNL     1      26.022   6.458  50.335  1.00  0.00    -0.384 N 
HETATM   17  H9  UNL     1      25.589   7.190  49.720  1.00  0.00     0.157 HD
HETATM   18  H10 UNL     1      26.336   6.389  51.337  1.00  0.00     0.157 HD
ENDBRANCH   2  16
BRANCH   2  19
HETATM   19  N3  UNL     1      25.322   4.201  49.295  1.00  0.00    -0.342 N 
HETATM   20  H11 UNL     1      24.637   4.041  48.520  1.00  0.00     0.167 HD
BRANCH  19  21
HETATM   21  C9  UNL     1      25.407   3.150  50.279  1.00  0.00     0.034 A 
HETATM   22  C10 UNL     1      26.613   2.622  50.740  1.00  0.00     0.029 A 
HETATM   23  C11 UNL     1      26.578   1.615  51.686  1.00  0.00     0.004 A 
HETATM   24  C12 UNL     1      25.421   1.107  52.194  1.00  0.00     0.019 A 
HETATM   25  C13 UNL     1      24.209   1.606  51.760  1.00  0.00     0.013 A 
HETATM   26 BR1  UNL     1      22.545   0.956  52.416  1.00  0.00    -0.051 Br
HETATM   27  C14 UNL     1      24.248   2.611  50.816  1.00  0.00     0.048 A 
ENDBRANCH  19  21
ENDBRANCH   2  19
TORSDOF 6
ENDMDL
MODEL 9
REMARK VINA RESULT:      -6.0      3.505      7.885
REMARK  6 active torsions:
REMARK  status: ('A' for Active; 'I' for Inactive)
REMARK    1  A    between atoms: O1_2  and  C2_3 
REMARK    2  A    between atoms: C6_7  and  N1_8 
REMARK    3  A    between atoms: N1_8  and  C7_9 
REMARK    4  A    between atoms: C8_10  and  N2_11 
REMARK    5  A    between atoms: C8_10  and  N3_12 
REMARK    6  A    between atoms: N3_12  and  C9_13 
ROOT
HETATM    1  C7  UNL     1      22.954   4.692  51.013  1.00  0.00     0.132 C 
HETATM    2  C8  UNL     1      22.958   4.044  52.176  1.00  0.00     0.114 C 
ENDROOT
BRANCH   1   3
HETATM    3  N1  UNL     1      23.771   5.875  50.891  1.00  0.00    -0.385 N 
HETATM    4  H7  UNL     1      24.391   5.618  51.716  1.00  0.00     0.159 HD
BRANCH   3   5
HETATM    5  C6  UNL     1      23.972   7.086  50.130  1.00  0.00     0.142 C 
HETATM    6  C5  UNL     1      23.714   6.755  48.680  1.00  0.00     0.032 C 
HETATM    7  C4  UNL     1      24.867   7.048  48.077  1.00  0.00     0.055 C 
HETATM    8  C3  UNL     1      26.376   6.887  48.126  1.00  0.00     0.066 C 
HETATM    9  N4  UNL     1      24.774   8.513  47.541  1.00  0.00    -0.254 NA
HETATM   10  C2  UNL     1      26.081   6.249  49.313  1.00  0.00     0.079 C 
HETATM   11  C15 UNL     1      25.493   7.390  50.233  1.00  0.00     0.207 C 
HETATM   12  O2  UNL     1      25.701   8.714  49.791  1.00  0.00    -0.346 OA
HETATM   13  C16 UNL     1      25.022   9.381  48.673  1.00  0.00     0.295 C 
BRANCH  10  14
HETATM   14  O1  UNL     1      26.081   5.007  50.069  1.00  0.00    -0.357 OA
HETATM   15  C1  UNL     1      26.749   3.975  49.335  1.00  0.00     0.209 C 
ENDBRANCH  10  14
ENDBRANCH   3   5
ENDBRANCH   1   3
BRANCH   2  16
HETATM   16  N2  UNL     1      23.819   4.678  53.129  1.00  0.00    -0.384 N 
HETATM   17  H9  UNL     1      24.512   3.920  53.340  1.00  0.00     0.157 HD
HETATM   18  H10 UNL     1      23.655   5.671  53.437  1.00  0.00     0.157 HD
ENDBRANCH   2  16
BRANCH   2  19
HETATM   19  N3  UNL     1      22.158   2.879  52.311  1.00  0.00    -0.342 N 
HETATM   20  H11 UNL     1      21.130   2.826  52.126  1.00  0.00     0.167 HD
BRANCH  19  21
HETATM   21  C9  UNL     1      22.779   1.648  52.736  1.00  0.00     0.034 A 
HETATM   22  C10 UNL     1      22.111   0.656  53.454  1.00  0.00     0.029 A 
HETATM   23  C11 UNL     1      22.804  -0.485  53.810  1.00  0.00     0.004 A 
HETATM   24  C12 UNL     1      24.112  -0.694  53.496  1.00  0.00     0.019 A 
HETATM   25  C13 UNL     1      24.804   0.266  52.786  1.00  0.00     0.013 A 
HETATM   26 BR1  UNL     1      26.633   0.058  52.303  1.00  0.00    -0.051 Br
HETATM   27  C14 UNL     1      24.109   1.404  52.432  1.00  0.00     0.048 A 
ENDBRANCH  19  21
ENDBRANCH   2  19
TORSDOF 6
ENDMDL
