MODEL 1
REMARK VINA RESULT:      -7.5      0.000      0.000
REMARK  5 active torsions:
REMARK  status: ('A' for Active; 'I' for Inactive)
REMARK    1  A    between atoms: C2_2  and  P1_3 
REMARK    2  A    between atoms: P1_3  and  C3_4 
REMARK    3  A    between atoms: C3_4  and  C4_5 
REMARK    4  A    between atoms: N2_12  and  C9_13 
REMARK    5  A    between atoms: N3_22  and  C15_23 
ROOT
HETATM    1  C4  UNL     1      25.115   1.497  53.344  1.00  0.00     0.105 C 
HETATM    2  C5  UNL     1      24.061   0.701  53.411  1.00  0.00     0.058 C 
HETATM    3  C6  UNL     1      23.425  -0.543  53.781  1.00  0.00    -0.001 C 
HETATM    4  C7  UNL     1      22.111  -0.643  53.479  1.00  0.00     0.089 C 
HETATM    5  N1  UNL     1      21.787   0.558  52.872  1.00  0.00    -0.319 N 
HETATM    6  C8  UNL     1      21.466   1.749  52.271  1.00  0.00     0.332 C 
HETATM    7  O1  UNL     1      20.773   2.535  52.780  1.00  0.00    -0.246 OA
HETATM    8  N2  UNL     1      21.634   2.578  51.154  1.00  0.00    -0.248 N 
HETATM    9  C14 UNL     1      21.716   3.987  51.370  1.00  0.00     0.110 C 
HETATM   10  N3  UNL     1      21.447   5.275  51.320  1.00  0.00    -0.376 N 
HETATM   11  C17 UNL     1      22.815   4.201  52.231  1.00  0.00     0.048 C 
HETATM   12  C18 UNL     1      23.640   3.174  52.746  1.00  0.00     0.200 C 
HETATM   13  O2  UNL     1      24.952   2.813  52.744  1.00  0.00    -0.372 OA
HETATM   14  H10 UNL     1      22.267   0.271  52.004  1.00  0.00     0.170 HD
HETATM   15  H13 UNL     1      20.414   5.047  51.173  1.00  0.00     0.161 HD
ENDROOT
BRANCH   8  16
HETATM   16  C9  UNL     1      22.017   2.652  49.829  1.00  0.00     0.069 A 
HETATM   17  C10 UNL     1      22.846   2.838  48.899  1.00  0.00     0.114 A 
HETATM   18 CL1  UNL     1      24.442   3.229  49.292  1.00  0.00    -0.080 Cl
HETATM   19  C11 UNL     1      22.307   2.695  47.539  1.00  0.00     0.302 A 
HETATM   20  F1  UNL     1      22.939   1.638  46.885  1.00  0.00    -0.195 F 
HETATM   21  F2  UNL     1      22.478   3.876  46.864  1.00  0.00    -0.195 F 
HETATM   22  C12 UNL     1      20.862   2.370  47.788  1.00  0.00     0.059 A 
HETATM   23  C13 UNL     1      20.770   2.360  49.087  1.00  0.00     0.034 A 
ENDBRANCH   8  16
BRANCH  10  24
HETATM   24  C15 UNL     1      21.958   6.622  51.404  1.00  0.00     0.116 C 
HETATM   25  C16 UNL     1      21.185   7.431  50.372  1.00  0.00     0.026 C 
ENDBRANCH  10  24
BRANCH   1  26
HETATM   26  C3  UNL     1      26.538   1.696  53.632  1.00  0.00     0.085 C 
BRANCH  26  27
HETATM   27  P1  UNL     1      27.396   0.251  54.378  1.00  0.00    -0.063 P 
BRANCH  27  28
HETATM   28  C2  UNL     1      29.056   0.245  54.439  1.00  0.00    -0.019 C 
HETATM   29  C1  UNL     1      29.776  -0.743  53.553  1.00  0.00     0.037 C 
ENDBRANCH  27  28
ENDBRANCH  26  27
ENDBRANCH   1  26
TORSDOF 5
ENDMDL
MODEL 2
REMARK VINA RESULT:      -6.7      4.704      6.395
REMARK  5 active torsions:
REMARK  status: ('A' for Active; 'I' for Inactive)
REMARK    1  A    between atoms: C2_2  and  P1_3 
REMARK    2  A    between atoms: P1_3  and  C3_4 
REMARK    3  A    between atoms: C3_4  and  C4_5 
REMARK    4  A    between atoms: N2_12  and  C9_13 
REMARK    5  A    between atoms: N3_22  and  C15_23 
ROOT
HETATM    1  C4  UNL     1      26.074   8.016  49.166  1.00  0.00     0.105 C 
HETATM    2  C5  UNL     1      26.906   7.030  48.874  1.00  0.00     0.058 C 
HETATM    3  C6  UNL     1      28.153   6.531  48.341  1.00  0.00    -0.001 C 
HETATM    4  C7  UNL     1      28.320   5.190  48.393  1.00  0.00     0.089 C 
HETATM    5  N1  UNL     1      27.162   4.705  48.978  1.00  0.00    -0.319 N 
HETATM    6  C8  UNL     1      26.015   4.225  49.558  1.00  0.00     0.332 C 
HETATM    7  O1  UNL     1      26.006   3.760  50.626  1.00  0.00    -0.246 OA
HETATM    8  N2  UNL     1      24.635   4.024  49.427  1.00  0.00    -0.248 N 
HETATM    9  C14 UNL     1      23.818   4.203  50.584  1.00  0.00     0.110 C 
HETATM   10  N3  UNL     1      22.979   3.959  51.570  1.00  0.00    -0.376 N 
HETATM   11  C17 UNL     1      24.017   5.532  51.019  1.00  0.00     0.048 C 
HETATM   12  C18 UNL     1      24.875   6.461  50.385  1.00  0.00     0.200 C 
HETATM   13  O2  UNL     1      24.807   7.687  49.800  1.00  0.00    -0.372 OA
HETATM   14  H10 UNL     1      26.634   4.858  48.104  1.00  0.00     0.170 HD
HETATM   15  H13 UNL     1      23.274   2.932  51.559  1.00  0.00     0.161 HD
ENDROOT
BRANCH   8  16
HETATM   16  C9  UNL     1      23.566   3.939  48.556  1.00  0.00     0.069 A 
HETATM   17  C10 UNL     1      22.727   4.412  47.746  1.00  0.00     0.114 A 
HETATM   18 CL1  UNL     1      22.768   6.064  47.396  1.00  0.00    -0.080 Cl
HETATM   19  C11 UNL     1      21.776   3.440  47.187  1.00  0.00     0.302 A 
HETATM   20  F1  UNL     1      21.945   3.349  45.806  1.00  0.00    -0.195 F 
HETATM   21  F2  UNL     1      20.501   3.824  47.511  1.00  0.00    -0.195 F 
HETATM   22  C12 UNL     1      22.185   2.157  47.852  1.00  0.00     0.059 A 
HETATM   23  C13 UNL     1      23.190   2.507  48.601  1.00  0.00     0.034 A 
ENDBRANCH   8  16
BRANCH  10  24
HETATM   24  C15 UNL     1      22.010   4.495  52.495  1.00  0.00     0.116 C 
HETATM   25  C16 UNL     1      20.727   3.709  52.265  1.00  0.00     0.026 C 
ENDBRANCH  10  24
BRANCH   1  26
HETATM   26  C3  UNL     1      25.806   9.457  49.150  1.00  0.00     0.085 C 
BRANCH  26  27
HETATM   27  P1  UNL     1      27.030  10.472  48.229  1.00  0.00    -0.063 P 
BRANCH  27  28
HETATM   28  C2  UNL     1      28.423  10.948  49.000  1.00  0.00    -0.019 C 
HETATM   29  C1  UNL     1      29.525   9.924  49.128  1.00  0.00     0.037 C 
ENDBRANCH  27  28
ENDBRANCH  26  27
ENDBRANCH   1  26
TORSDOF 5
ENDMDL
MODEL 3
REMARK VINA RESULT:      -6.5      9.757     10.956
REMARK  5 active torsions:
REMARK  status: ('A' for Active; 'I' for Inactive)
REMARK    1  A    between atoms: C2_2  and  P1_3 
REMARK    2  A    between atoms: P1_3  and  C3_4 
REMARK    3  A    between atoms: C3_4  and  C4_5 
REMARK    4  A    between atoms: N2_12  and  C9_13 
REMARK    5  A    between atoms: N3_22  and  C15_23 
ROOT
HETATM    1  C4  UNL     1      32.251   7.393  45.372  1.00  0.00     0.105 C 
HETATM    2  C5  UNL     1      32.329   6.474  46.320  1.00  0.00     0.058 C 
HETATM    3  C6  UNL     1      32.676   5.152  46.788  1.00  0.00    -0.001 C 
HETATM    4  C7  UNL     1      32.422   4.904  48.093  1.00  0.00     0.089 C 
HETATM    5  N1  UNL     1      31.874   6.077  48.583  1.00  0.00    -0.319 N 
HETATM    6  C8  UNL     1      31.331   7.240  49.068  1.00  0.00     0.332 C 
HETATM    7  O1  UNL     1      31.895   7.921  49.827  1.00  0.00    -0.246 OA
HETATM    8  N2  UNL     1      30.240   8.119  49.047  1.00  0.00    -0.248 N 
HETATM    9  C14 UNL     1      30.505   9.520  49.124  1.00  0.00     0.110 C 
HETATM   10  N3  UNL     1      30.514  10.768  49.545  1.00  0.00    -0.376 N 
HETATM   11  C17 UNL     1      31.330   9.836  48.022  1.00  0.00     0.048 C 
HETATM   12  C18 UNL     1      31.774   8.899  47.060  1.00  0.00     0.200 C 
HETATM   13  O2  UNL     1      31.707   8.698  45.716  1.00  0.00    -0.372 OA
HETATM   14  H10 UNL     1      30.978   5.878  48.110  1.00  0.00     0.170 HD
HETATM   15  H13 UNL     1      30.399  10.423  50.550  1.00  0.00     0.161 HD
ENDROOT
BRANCH   8  16
HETATM   16  C9  UNL     1      28.904   8.282  48.733  1.00  0.00     0.069 A 
HETATM   17  C10 UNL     1      27.724   8.653  48.967  1.00  0.00     0.114 A 
HETATM   18 CL1  UNL     1      27.375   9.383  50.450  1.00  0.00    -0.080 Cl
HETATM   19  C11 UNL     1      26.758   8.391  47.891  1.00  0.00     0.302 A 
HETATM   20  F1  UNL     1      26.248   9.596  47.406  1.00  0.00    -0.195 F 
HETATM   21  F2  UNL     1      25.761   7.582  48.370  1.00  0.00    -0.195 F 
HETATM   22  C12 UNL     1      27.601   7.720  46.845  1.00  0.00     0.059 A 
HETATM   23  C13 UNL     1      28.789   7.693  47.380  1.00  0.00     0.034 A 
ENDBRANCH   8  16
BRANCH  10  24
HETATM   24  C15 UNL     1      30.629  12.163  49.195  1.00  0.00     0.116 C 
HETATM   25  C16 UNL     1      29.206  12.668  49.001  1.00  0.00     0.026 C 
ENDBRANCH  10  24
BRANCH   1  26
HETATM   26  C3  UNL     1      32.490   7.752  43.971  1.00  0.00     0.085 C 
BRANCH  26  27
HETATM   27  P1  UNL     1      34.143   7.287  43.315  1.00  0.00    -0.063 P 
BRANCH  27  28
HETATM   28  C2  UNL     1      34.545   5.678  43.216  1.00  0.00    -0.019 C 
HETATM   29  C1  UNL     1      33.415   4.694  43.037  1.00  0.00     0.037 C 
ENDBRANCH  27  28
ENDBRANCH  26  27
ENDBRANCH   1  26
TORSDOF 5
ENDMDL
MODEL 4
REMARK VINA RESULT:      -6.4      3.203      5.444
REMARK  5 active torsions:
REMARK  status: ('A' for Active; 'I' for Inactive)
REMARK    1  A    between atoms: C2_2  and  P1_3 
REMARK    2  A    between atoms: P1_3  and  C3_4 
REMARK    3  A    between atoms: C3_4  and  C4_5 
REMARK    4  A    between atoms: N2_12  and  C9_13 
REMARK    5  A    between atoms: N3_22  and  C15_23 
ROOT
HETATM    1  C4  UNL     1      22.728   0.779  52.239  1.00  0.00     0.105 C 
HETATM    2  C5  UNL     1      23.901   1.354  52.446  1.00  0.00     0.058 C 
HETATM    3  C6  UNL     1      25.120   1.526  53.203  1.00  0.00    -0.001 C 
HETATM    4  C7  UNL     1      25.986   2.447  52.721  1.00  0.00     0.089 C 
HETATM    5  N1  UNL     1      25.377   2.956  51.587  1.00  0.00    -0.319 N 
HETATM    6  C8  UNL     1      24.774   3.460  50.462  1.00  0.00     0.332 C 
HETATM    7  O1  UNL     1      25.183   3.251  49.391  1.00  0.00    -0.246 OA
HETATM    8  N2  UNL     1      23.717   4.218  49.942  1.00  0.00    -0.248 N 
HETATM    9  C14 UNL     1      23.124   3.791  48.715  1.00  0.00     0.110 C 
HETATM   10  N3  UNL     1      22.713   3.782  47.464  1.00  0.00    -0.376 N 
HETATM   11  C17 UNL     1      22.644   2.481  48.933  1.00  0.00     0.048 C 
HETATM   12  C18 UNL     1      22.758   1.779  50.155  1.00  0.00     0.200 C 
HETATM   13  O2  UNL     1      21.952   1.187  51.078  1.00  0.00    -0.372 OA
HETATM   14  H10 UNL     1      24.721   3.506  52.163  1.00  0.00     0.170 HD
HETATM   15  H13 UNL     1      23.506   4.449  47.205  1.00  0.00     0.161 HD
ENDROOT
BRANCH   8  16
HETATM   16  C9  UNL     1      22.740   5.157  50.210  1.00  0.00     0.069 A 
HETATM   17  C10 UNL     1      21.646   5.544  50.698  1.00  0.00     0.114 A 
HETATM   18 CL1  UNL     1      20.685   4.435  51.535  1.00  0.00    -0.080 Cl
HETATM   19  C11 UNL     1      21.321   6.959  50.469  1.00  0.00     0.302 A 
HETATM   20  F1  UNL     1      21.249   7.635  51.687  1.00  0.00    -0.195 F 
HETATM   21  F2  UNL     1      20.138   7.041  49.781  1.00  0.00    -0.195 F 
HETATM   22  C12 UNL     1      22.495   7.443  49.668  1.00  0.00     0.059 A 
HETATM   23  C13 UNL     1      23.250   6.387  49.562  1.00  0.00     0.034 A 
ENDBRANCH   8  16
BRANCH  10  24
HETATM   24  C15 UNL     1      21.766   3.267  46.505  1.00  0.00     0.116 C 
HETATM   25  C16 UNL     1      21.866   4.172  45.285  1.00  0.00     0.026 C 
ENDBRANCH  10  24
BRANCH   1  26
HETATM   26  C3  UNL     1      21.730  -0.197  52.687  1.00  0.00     0.085 C 
BRANCH  26  27
HETATM   27  P1  UNL     1      20.034   0.471  52.927  1.00  0.00    -0.063 P 
BRANCH  27  28
HETATM   28  C2  UNL     1      18.755  -0.308  52.208  1.00  0.00    -0.019 C 
HETATM   29  C1  UNL     1      17.941  -1.241  53.072  1.00  0.00     0.037 C 
ENDBRANCH  27  28
ENDBRANCH  26  27
ENDBRANCH   1  26
TORSDOF 5
ENDMDL
MODEL 5
REMARK VINA RESULT:      -6.2      4.294      6.087
REMARK  5 active torsions:
REMARK  status: ('A' for Active; 'I' for Inactive)
REMARK    1  A    between atoms: C2_2  and  P1_3 
REMARK    2  A    between atoms: P1_3  and  C3_4 
REMARK    3  A    between atoms: C3_4  and  C4_5 
REMARK    4  A    between atoms: N2_12  and  C9_13 
REMARK    5  A    between atoms: N3_22  and  C15_23 
ROOT
HETATM    1  C4  UNL     1      22.319   4.631  50.523  1.00  0.00     0.105 C 
HETATM    2  C5  UNL     1      22.303   3.946  49.392  1.00  0.00     0.058 C 
HETATM    3  C6  UNL     1      22.590   3.806  47.983  1.00  0.00    -0.001 C 
HETATM    4  C7  UNL     1      22.222   2.631  47.422  1.00  0.00     0.089 C 
HETATM    5  N1  UNL     1      21.651   1.903  48.452  1.00  0.00    -0.319 N 
HETATM    6  C8  UNL     1      21.086   1.181  49.472  1.00  0.00     0.332 C 
HETATM    7  O1  UNL     1      21.594   0.232  49.918  1.00  0.00    -0.246 OA
HETATM    8  N2  UNL     1      20.014   1.062  50.366  1.00  0.00    -0.248 N 
HETATM    9  C14 UNL     1      20.292   0.610  51.692  1.00  0.00     0.110 C 
HETATM   10  N3  UNL     1      20.283  -0.115  52.791  1.00  0.00    -0.376 N 
HETATM   11  C17 UNL     1      21.212   1.527  52.247  1.00  0.00     0.048 C 
HETATM   12  C18 UNL     1      21.722   2.658  51.569  1.00  0.00     0.200 C 
HETATM   13  O2  UNL     1      21.768   4.010  51.717  1.00  0.00    -0.372 OA
HETATM   14  H10 UNL     1      20.796   2.480  48.411  1.00  0.00     0.170 HD
HETATM   15  H13 UNL     1      20.078  -0.986  52.207  1.00  0.00     0.161 HD
ENDROOT
BRANCH   8  16
HETATM   16  C9  UNL     1      18.712   1.428  50.651  1.00  0.00     0.069 A 
HETATM   17  C10 UNL     1      17.822   2.226  51.045  1.00  0.00     0.114 A 
HETATM   18 CL1  UNL     1      18.276   3.770  51.560  1.00  0.00    -0.080 Cl
HETATM   19  C11 UNL     1      16.450   1.700  51.017  1.00  0.00     0.302 A 
HETATM   20  F1  UNL     1      15.673   2.444  50.129  1.00  0.00    -0.195 F 
HETATM   21  F2  UNL     1      15.931   1.733  52.285  1.00  0.00    -0.195 F 
HETATM   22  C12 UNL     1      16.641   0.302  50.503  1.00  0.00     0.059 A 
HETATM   23  C13 UNL     1      17.928   0.218  50.317  1.00  0.00     0.034 A 
ENDBRANCH   8  16
BRANCH  10  24
HETATM   24  C15 UNL     1      20.447  -0.143  54.224  1.00  0.00     0.116 C 
HETATM   25  C16 UNL     1      21.352  -1.330  54.523  1.00  0.00     0.026 C 
ENDBRANCH  10  24
BRANCH   1  26
HETATM   26  C3  UNL     1      22.682   5.871  51.215  1.00  0.00     0.085 C 
BRANCH  26  27
HETATM   27  P1  UNL     1      24.198   6.703  50.591  1.00  0.00    -0.063 P 
BRANCH  27  28
HETATM   28  C2  UNL     1      25.412   5.777  49.936  1.00  0.00    -0.019 C 
HETATM   29  C1  UNL     1      26.378   6.465  49.003  1.00  0.00     0.037 C 
ENDBRANCH  27  28
ENDBRANCH  26  27
ENDBRANCH   1  26
TORSDOF 5
ENDMDL
MODEL 6
REMARK VINA RESULT:      -6.2      9.954     12.065
REMARK  5 active torsions:
REMARK  status: ('A' for Active; 'I' for Inactive)
REMARK    1  A    between atoms: C2_2  and  P1_3 
REMARK    2  A    between atoms: P1_3  and  C3_4 
REMARK    3  A    between atoms: C3_4  and  C4_5 
REMARK    4  A    between atoms: N2_12  and  C9_13 
REMARK    5  A    between atoms: N3_22  and  C15_23 
ROOT
HETATM    1  C4  UNL     1      28.441  11.041  45.769  1.00  0.00     0.105 C 
HETATM    2  C5  UNL     1      28.534  11.681  46.923  1.00  0.00     0.058 C 
HETATM    3  C6  UNL     1      28.521  12.890  47.714  1.00  0.00    -0.001 C 
HETATM    4  C7  UNL     1      28.718  12.726  49.042  1.00  0.00     0.089 C 
HETATM    5  N1  UNL     1      28.880  11.362  49.217  1.00  0.00    -0.319 N 
HETATM    6  C8  UNL     1      29.040  10.010  49.390  1.00  0.00     0.332 C 
HETATM    7  O1  UNL     1      28.246   9.355  49.937  1.00  0.00    -0.246 OA
HETATM    8  N2  UNL     1      29.846   8.889  49.157  1.00  0.00    -0.248 N 
HETATM    9  C14 UNL     1      29.203   7.649  48.861  1.00  0.00     0.110 C 
HETATM   10  N3  UNL     1      28.817   6.392  48.943  1.00  0.00    -0.376 N 
HETATM   11  C17 UNL     1      28.424   7.863  47.703  1.00  0.00     0.048 C 
HETATM   12  C18 UNL     1      28.339   9.095  47.012  1.00  0.00     0.200 C 
HETATM   13  O2  UNL     1      28.575   9.592  45.768  1.00  0.00    -0.372 OA
HETATM   14  H10 UNL     1      29.834  11.406  48.825  1.00  0.00     0.170 HD
HETATM   15  H13 UNL     1      28.933   6.432  50.004  1.00  0.00     0.161 HD
ENDROOT
BRANCH   8  16
HETATM   16  C9  UNL     1      31.109   8.432  48.830  1.00  0.00     0.069 A 
HETATM   17  C10 UNL     1      32.070   7.622  48.893  1.00  0.00     0.114 A 
HETATM   18 CL1  UNL     1      31.930   6.262  49.885  1.00  0.00    -0.080 Cl
HETATM   19  C11 UNL     1      33.240   7.971  48.075  1.00  0.00     0.302 A 
HETATM   20  F1  UNL     1      33.451   6.992  47.104  1.00  0.00    -0.195 F 
HETATM   21  F2  UNL     1      34.333   8.109  48.891  1.00  0.00    -0.195 F 
HETATM   22  C12 UNL     1      32.824   9.264  47.435  1.00  0.00     0.059 A 
HETATM   23  C13 UNL     1      31.623   9.462  47.898  1.00  0.00     0.034 A 
ENDBRANCH   8  16
BRANCH  10  24
HETATM   24  C15 UNL     1      28.357   5.219  48.239  1.00  0.00     0.116 C 
HETATM   25  C16 UNL     1      27.166   4.694  49.028  1.00  0.00     0.026 C 
ENDBRANCH  10  24
BRANCH   1  26
HETATM   26  C3  UNL     1      28.237  11.122  44.320  1.00  0.00     0.085 C 
BRANCH  26  27
HETATM   27  P1  UNL     1      29.507  12.084  43.403  1.00  0.00    -0.063 P 
BRANCH  27  28
HETATM   28  C2  UNL     1      31.113  11.809  43.726  1.00  0.00    -0.019 C 
HETATM   29  C1  UNL     1      31.858  12.882  44.484  1.00  0.00     0.037 C 
ENDBRANCH  27  28
ENDBRANCH  26  27
ENDBRANCH   1  26
TORSDOF 5
ENDMDL
MODEL 7
REMARK VINA RESULT:      -6.0      4.981      6.523
REMARK  5 active torsions:
REMARK  status: ('A' for Active; 'I' for Inactive)
REMARK    1  A    between atoms: C2_2  and  P1_3 
REMARK    2  A    between atoms: P1_3  and  C3_4 
REMARK    3  A    between atoms: C3_4  and  C4_5 
REMARK    4  A    between atoms: N2_12  and  C9_13 
REMARK    5  A    between atoms: N3_22  and  C15_23 
ROOT
HETATM    1  C4  UNL     1      26.581   8.012  47.562  1.00  0.00     0.105 C 
HETATM    2  C5  UNL     1      27.033   6.850  48.004  1.00  0.00     0.058 C 
HETATM    3  C6  UNL     1      28.086   5.877  48.181  1.00  0.00    -0.001 C 
HETATM    4  C7  UNL     1      27.737   4.747  48.838  1.00  0.00     0.089 C 
HETATM    5  N1  UNL     1      26.396   4.905  49.142  1.00  0.00    -0.319 N 
HETATM    6  C8  UNL     1      25.067   5.062  49.444  1.00  0.00     0.332 C 
HETATM    7  O1  UNL     1      24.691   5.213  50.537  1.00  0.00    -0.246 OA
HETATM    8  N2  UNL     1      23.759   5.151  48.951  1.00  0.00    -0.248 N 
HETATM    9  C14 UNL     1      22.865   6.070  49.580  1.00  0.00     0.110 C 
HETATM   10  N3  UNL     1      21.829   6.557  50.231  1.00  0.00    -0.376 N 
HETATM   11  C17 UNL     1      23.453   7.349  49.463  1.00  0.00     0.048 C 
HETATM   12  C18 UNL     1      24.692   7.606  48.832  1.00  0.00     0.200 C 
HETATM   13  O2  UNL     1      25.187   8.351  47.807  1.00  0.00    -0.372 OA
HETATM   14  H10 UNL     1      26.132   4.717  48.162  1.00  0.00     0.170 HD
HETATM   15  H13 UNL     1      21.724   5.627  50.746  1.00  0.00     0.161 HD
ENDROOT
BRANCH   8  16
HETATM   16  C9  UNL     1      22.913   4.892  47.890  1.00  0.00     0.069 A 
HETATM   17  C10 UNL     1      22.361   5.163  46.791  1.00  0.00     0.114 A 
HETATM   18 CL1  UNL     1      22.734   6.623  46.026  1.00  0.00    -0.080 Cl
HETATM   19  C11 UNL     1      21.423   4.147  46.292  1.00  0.00     0.302 A 
HETATM   20  F1  UNL     1      21.883   3.628  45.082  1.00  0.00    -0.195 F 
HETATM   21  F2  UNL     1      20.182   4.713  46.154  1.00  0.00    -0.195 F 
HETATM   22  C12 UNL     1      21.470   3.098  47.365  1.00  0.00     0.059 A 
HETATM   23  C13 UNL     1      22.322   3.577  48.225  1.00  0.00     0.034 A 
ENDBRANCH   8  16
BRANCH  10  24
HETATM   24  C15 UNL     1      20.970   7.693  50.464  1.00  0.00     0.116 C 
HETATM   25  C16 UNL     1      19.819   7.562  49.476  1.00  0.00     0.026 C 
ENDBRANCH  10  24
BRANCH   1  26
HETATM   26  C3  UNL     1      26.866   9.267  46.861  1.00  0.00     0.085 C 
BRANCH  26  27
HETATM   27  P1  UNL     1      28.071  10.375  47.697  1.00  0.00    -0.063 P 
BRANCH  27  28
HETATM   28  C2  UNL     1      28.629   9.963  49.207  1.00  0.00    -0.019 C 
HETATM   29  C1  UNL     1      29.997   9.331  49.289  1.00  0.00     0.037 C 
ENDBRANCH  27  28
ENDBRANCH  26  27
ENDBRANCH   1  26
TORSDOF 5
ENDMDL
MODEL 8
REMARK VINA RESULT:      -5.9      2.013      2.779
REMARK  5 active torsions:
REMARK  status: ('A' for Active; 'I' for Inactive)
REMARK    1  A    between atoms: C2_2  and  P1_3 
REMARK    2  A    between atoms: P1_3  and  C3_4 
REMARK    3  A    between atoms: C3_4  and  C4_5 
REMARK    4  A    between atoms: N2_12  and  C9_13 
REMARK    5  A    between atoms: N3_22  and  C15_23 
ROOT
HETATM    1  C4  UNL     1      22.110   1.386  52.299  1.00  0.00     0.105 C 
HETATM    2  C5  UNL     1      20.889   1.050  51.919  1.00  0.00     0.058 C 
HETATM    3  C6  UNL     1      19.797   0.109  51.825  1.00  0.00    -0.001 C 
HETATM    4  C7  UNL     1      18.689   0.555  51.190  1.00  0.00     0.089 C 
HETATM    5  N1  UNL     1      18.987   1.852  50.812  1.00  0.00    -0.319 N 
HETATM    6  C8  UNL     1      19.283   3.138  50.437  1.00  0.00     0.332 C 
HETATM    7  O1  UNL     1      18.765   4.062  50.922  1.00  0.00    -0.246 OA
HETATM    8  N2  UNL     1      20.058   3.968  49.616  1.00  0.00    -0.248 N 
HETATM    9  C14 UNL     1      20.527   5.202  50.160  1.00  0.00     0.110 C 
HETATM   10  N3  UNL     1      20.728   6.492  50.339  1.00  0.00    -0.376 N 
HETATM   11  C17 UNL     1      21.304   4.875  51.293  1.00  0.00     0.048 C 
HETATM   12  C18 UNL     1      21.538   3.557  51.750  1.00  0.00     0.200 C 
HETATM   13  O2  UNL     1      22.587   2.726  51.993  1.00  0.00    -0.372 OA
HETATM   14  H10 UNL     1      19.593   1.510  50.049  1.00  0.00     0.170 HD
HETATM   15  H13 UNL     1      19.779   6.695  49.891  1.00  0.00     0.161 HD
ENDROOT
BRANCH   8  16
HETATM   16  C9  UNL     1      20.841   4.050  48.481  1.00  0.00     0.069 A 
HETATM   17  C10 UNL     1      21.926   3.974  47.847  1.00  0.00     0.114 A 
HETATM   18 CL1  UNL     1      23.333   3.549  48.681  1.00  0.00    -0.080 Cl
HETATM   19  C11 UNL     1      21.839   4.282  46.412  1.00  0.00     0.302 A 
HETATM   20  F1  UNL     1      22.185   3.158  45.663  1.00  0.00    -0.195 F 
HETATM   21  F2  UNL     1      22.660   5.343  46.131  1.00  0.00    -0.195 F 
HETATM   22  C12 UNL     1      20.384   4.607  46.231  1.00  0.00     0.059 A 
HETATM   23  C13 UNL     1      19.886   4.456  47.425  1.00  0.00     0.034 A 
ENDBRANCH   8  16
BRANCH  10  24
HETATM   24  C15 UNL     1      21.599   7.521  50.851  1.00  0.00     0.116 C 
HETATM   25  C16 UNL     1      22.150   8.252  49.635  1.00  0.00     0.026 C 
ENDBRANCH  10  24
BRANCH   1  26
HETATM   26  C3  UNL     1      23.351   0.990  52.970  1.00  0.00     0.085 C 
BRANCH  26  27
HETATM   27  P1  UNL     1      24.890   1.686  52.245  1.00  0.00    -0.063 P 
BRANCH  27  28
HETATM   28  C2  UNL     1      26.231   0.713  52.120  1.00  0.00    -0.019 C 
HETATM   29  C1  UNL     1      27.479   1.162  52.841  1.00  0.00     0.037 C 
ENDBRANCH  27  28
ENDBRANCH  26  27
ENDBRANCH   1  26
TORSDOF 5
ENDMDL
MODEL 9
REMARK VINA RESULT:      -5.8      3.664      5.434
REMARK  5 active torsions:
REMARK  status: ('A' for Active; 'I' for Inactive)
REMARK    1  A    between atoms: C2_2  and  P1_3 
REMARK    2  A    between atoms: P1_3  and  C3_4 
REMARK    3  A    between atoms: C3_4  and  C4_5 
REMARK    4  A    between atoms: N2_12  and  C9_13 
REMARK    5  A    between atoms: N3_22  and  C15_23 
ROOT
HETATM    1  C4  UNL     1      21.164   2.974  51.198  1.00  0.00     0.105 C 
HETATM    2  C5  UNL     1      21.558   2.576  50.000  1.00  0.00     0.058 C 
HETATM    3  C6  UNL     1      21.936   1.546  49.060  1.00  0.00    -0.001 C 
HETATM    4  C7  UNL     1      22.264   1.973  47.820  1.00  0.00     0.089 C 
HETATM    5  N1  UNL     1      22.121   3.350  47.863  1.00  0.00    -0.319 N 
HETATM    6  C8  UNL     1      21.979   4.714  47.906  1.00  0.00     0.332 C 
HETATM    7  O1  UNL     1      21.134   5.269  47.328  1.00  0.00    -0.246 OA
HETATM    8  N2  UNL     1      22.460   5.923  48.424  1.00  0.00    -0.248 N 
HETATM    9  C14 UNL     1      21.509   6.929  48.773  1.00  0.00     0.110 C 
HETATM   10  N3  UNL     1      20.852   8.070  48.801  1.00  0.00    -0.376 N 
HETATM   11  C17 UNL     1      20.655   6.359  49.743  1.00  0.00     0.048 C 
HETATM   12  C18 UNL     1      20.772   5.038  50.234  1.00  0.00     0.200 C 
HETATM   13  O2  UNL     1      20.951   4.396  51.420  1.00  0.00    -0.372 OA
HETATM   14  H10 UNL     1      22.998   3.442  48.400  1.00  0.00     0.170 HD
HETATM   15  H13 UNL     1      21.114   8.239  47.779  1.00  0.00     0.161 HD
ENDROOT
BRANCH   8  16
HETATM   16  C9  UNL     1      23.524   6.574  49.018  1.00  0.00     0.069 A 
HETATM   17  C10 UNL     1      24.255   6.892  49.993  1.00  0.00     0.114 A 
HETATM   18 CL1  UNL     1      23.887   6.278  51.524  1.00  0.00    -0.080 Cl
HETATM   19  C11 UNL     1      25.371   7.793  49.675  1.00  0.00     0.302 A 
HETATM   20  F1  UNL     1      26.585   7.156  49.932  1.00  0.00    -0.195 F 
HETATM   21  F2  UNL     1      25.243   8.942  50.410  1.00  0.00    -0.195 F 
HETATM   22  C12 UNL     1      25.201   8.023  48.200  1.00  0.00     0.059 A 
HETATM   23  C13 UNL     1      24.153   7.312  47.898  1.00  0.00     0.034 A 
ENDBRANCH   8  16
BRANCH  10  24
HETATM   24  C15 UNL     1      20.039   8.981  49.570  1.00  0.00     0.116 C 
HETATM   25  C16 UNL     1      20.391  10.378  49.081  1.00  0.00     0.026 C 
ENDBRANCH  10  24
BRANCH   1  26
HETATM   26  C3  UNL     1      20.794   2.603  52.567  1.00  0.00     0.085 C 
BRANCH  26  27
HETATM   27  P1  UNL     1      20.648   0.798  52.878  1.00  0.00    -0.063 P 
BRANCH  27  28
HETATM   28  C2  UNL     1      21.935  -0.187  52.516  1.00  0.00    -0.019 C 
HETATM   29  C1  UNL     1      23.315   0.331  52.845  1.00  0.00     0.037 C 
ENDBRANCH  27  28
ENDBRANCH  26  27
ENDBRANCH   1  26
TORSDOF 5
ENDMDL
