MODEL 1
REMARK VINA RESULT:      -7.4      0.000      0.000
REMARK  6 active torsions:
REMARK  status: ('A' for Active; 'I' for Inactive)
REMARK    1  A    between atoms: C4_5  and  C5_6 
REMARK    2  A    between atoms: C5_6  and  O1_7 
REMARK    3  A    between atoms: O1_7  and  C6_8 
REMARK    4  A    between atoms: C11_15  and  O2_16 
REMARK    5  A    between atoms: O2_16  and  C12_17 
REMARK    6  A    between atoms: C12_17  and  P1_18 
ROOT
HETATM    1  C6  UNL     1      26.578  -0.515  53.996  1.00  0.00     0.174 C 
HETATM    2  C7  UNL     1      26.728  -1.009  52.599  1.00  0.00     0.065 C 
HETATM    3  C8  UNL     1      27.268  -2.401  52.698  1.00  0.00    -0.005 C 
HETATM    4  C9  UNL     1      28.520  -2.725  52.992  1.00  0.00     0.114 C 
HETATM    5  N1  UNL     1      29.656  -1.914  53.283  1.00  0.00    -0.257 NA
HETATM    6  C10 UNL     1      29.811  -0.693  53.678  1.00  0.00     0.204 C 
HETATM    7  N2  UNL     1      28.898   0.356  53.988  1.00  0.00    -0.356 N 
HETATM    8  C11 UNL     1      27.549   0.527  54.431  1.00  0.00     0.251 C 
HETATM    9  H11 UNL     1      29.356   1.305  53.849  1.00  0.00     0.163 HD
ENDROOT
BRANCH   1  10
HETATM   10  O1  UNL     1      25.281   0.038  54.078  1.00  0.00    -0.377 OA
BRANCH  10  11
HETATM   11  C5  UNL     1      24.430  -0.875  54.680  1.00  0.00     0.207 C 
BRANCH  11  12
HETATM   12  C4  UNL     1      23.064  -0.749  54.127  1.00  0.00    -0.033 A 
HETATM   13  C3  UNL     1      21.879  -1.164  54.679  1.00  0.00     0.012 A 
HETATM   14  C2  UNL     1      20.672  -0.992  54.071  1.00  0.00     0.044 A 
HETATM   15  C1  UNL     1      20.613  -0.363  52.825  1.00  0.00     0.138 A 
HETATM   16  F1  UNL     1      19.451  -0.156  52.157  1.00  0.00    -0.204 F 
HETATM   17  C14 UNL     1      21.763   0.074  52.221  1.00  0.00     0.073 A 
HETATM   18  C13 UNL     1      22.966  -0.128  52.887  1.00  0.00     0.036 A 
HETATM   19 CL1  UNL     1      21.726   0.868  50.654  1.00  0.00    -0.081 Cl
ENDBRANCH  11  12
ENDBRANCH  10  11
ENDBRANCH   1  10
BRANCH   8  20
HETATM   20  O2  UNL     1      27.072   1.782  54.057  1.00  0.00    -0.360 OA
BRANCH  20  21
HETATM   21  C12 UNL     1      27.787   2.311  52.989  1.00  0.00     0.198 C 
BRANCH  21  22
HETATM   22  P1  UNL     1      26.622   2.490  51.546  1.00  0.00    -0.116 P 
HETATM   23  H15 UNL     1      25.790   1.309  51.397  1.00  0.00     0.056 HD
HETATM   24  H16 UNL     1      25.727   3.609  51.774  1.00  0.00     0.056 HD
ENDBRANCH  21  22
ENDBRANCH  20  21
ENDBRANCH   8  20
TORSDOF 6
ENDMDL
MODEL 2
REMARK VINA RESULT:      -7.4      1.603      1.968
REMARK  6 active torsions:
REMARK  status: ('A' for Active; 'I' for Inactive)
REMARK    1  A    between atoms: C4_5  and  C5_6 
REMARK    2  A    between atoms: C5_6  and  O1_7 
REMARK    3  A    between atoms: O1_7  and  C6_8 
REMARK    4  A    between atoms: C11_15  and  O2_16 
REMARK    5  A    between atoms: O2_16  and  C12_17 
REMARK    6  A    between atoms: C12_17  and  P1_18 
ROOT
HETATM    1  C6  UNL     1      26.214   0.277  53.489  1.00  0.00     0.174 C 
HETATM    2  C7  UNL     1      27.211  -0.229  52.504  1.00  0.00     0.065 C 
HETATM    3  C8  UNL     1      28.322  -0.836  53.302  1.00  0.00    -0.005 C 
HETATM    4  C9  UNL     1      29.253  -0.164  53.966  1.00  0.00     0.114 C 
HETATM    5  N1  UNL     1      29.473   1.236  54.116  1.00  0.00    -0.257 NA
HETATM    6  C10 UNL     1      28.729   2.283  53.974  1.00  0.00     0.204 C 
HETATM    7  N2  UNL     1      27.366   2.468  53.603  1.00  0.00    -0.356 N 
HETATM    8  C11 UNL     1      26.126   1.757  53.631  1.00  0.00     0.251 C 
HETATM    9  H11 UNL     1      27.222   3.429  53.172  1.00  0.00     0.163 HD
ENDROOT
BRANCH   1  10
HETATM   10  O1  UNL     1      24.956  -0.192  53.048  1.00  0.00    -0.377 OA
BRANCH  10  11
HETATM   11  C5  UNL     1      24.232  -0.653  54.135  1.00  0.00     0.207 C 
BRANCH  11  12
HETATM   12  C4  UNL     1      22.785  -0.647  53.830  1.00  0.00    -0.033 A 
HETATM   13  C3  UNL     1      21.761  -1.214  54.545  1.00  0.00     0.012 A 
HETATM   14  C2  UNL     1      20.455  -1.143  54.163  1.00  0.00     0.044 A 
HETATM   15  C1  UNL     1      20.119  -0.463  52.990  1.00  0.00     0.138 A 
HETATM   16  F1  UNL     1      18.843  -0.350  52.543  1.00  0.00    -0.204 F 
HETATM   17  C14 UNL     1      21.096   0.123  52.231  1.00  0.00     0.073 A 
HETATM   18  C13 UNL     1      22.411   0.019  52.669  1.00  0.00     0.036 A 
HETATM   19 CL1  UNL     1      20.710   0.985  50.749  1.00  0.00    -0.081 Cl
ENDBRANCH  11  12
ENDBRANCH  10  11
ENDBRANCH   1  10
BRANCH   8  20
HETATM   20  O2  UNL     1      25.257   2.260  52.664  1.00  0.00    -0.360 OA
BRANCH  20  21
HETATM   21  C12 UNL     1      24.360   3.176  53.199  1.00  0.00     0.198 C 
BRANCH  21  22
HETATM   22  P1  UNL     1      23.273   3.794  51.818  1.00  0.00    -0.116 P 
HETATM   23  H15 UNL     1      21.969   4.191  52.319  1.00  0.00     0.056 HD
HETATM   24  H16 UNL     1      23.868   4.971  51.214  1.00  0.00     0.056 HD
ENDBRANCH  21  22
ENDBRANCH  20  21
ENDBRANCH   8  20
TORSDOF 6
ENDMDL
MODEL 3
REMARK VINA RESULT:      -7.1      2.256      2.821
REMARK  6 active torsions:
REMARK  status: ('A' for Active; 'I' for Inactive)
REMARK    1  A    between atoms: C4_5  and  C5_6 
REMARK    2  A    between atoms: C5_6  and  O1_7 
REMARK    3  A    between atoms: O1_7  and  C6_8 
REMARK    4  A    between atoms: C11_15  and  O2_16 
REMARK    5  A    between atoms: O2_16  and  C12_17 
REMARK    6  A    between atoms: C12_17  and  P1_18 
ROOT
HETATM    1  C6  UNL     1      25.283   1.287  52.742  1.00  0.00     0.174 C 
HETATM    2  C7  UNL     1      25.972  -0.034  52.771  1.00  0.00     0.065 C 
HETATM    3  C8  UNL     1      26.326  -0.295  54.201  1.00  0.00    -0.005 C 
HETATM    4  C9  UNL     1      27.315   0.285  54.870  1.00  0.00     0.114 C 
HETATM    5  N1  UNL     1      28.275   1.260  54.469  1.00  0.00    -0.257 NA
HETATM    6  C10 UNL     1      28.331   2.125  53.511  1.00  0.00     0.204 C 
HETATM    7  N2  UNL     1      27.444   2.463  52.449  1.00  0.00    -0.356 N 
HETATM    8  C11 UNL     1      26.049   2.413  52.140  1.00  0.00     0.251 C 
HETATM    9  H11 UNL     1      27.980   2.881  51.631  1.00  0.00     0.163 HD
ENDROOT
BRANCH   1  10
HETATM   10  O1  UNL     1      24.111   1.099  51.975  1.00  0.00    -0.377 OA
BRANCH  10  11
HETATM   11  C5  UNL     1      23.033   1.661  52.640  1.00  0.00     0.207 C 
BRANCH  11  12
HETATM   12  C4  UNL     1      22.100   0.607  53.092  1.00  0.00    -0.033 A 
HETATM   13  C3  UNL     1      22.314  -0.379  54.022  1.00  0.00     0.012 A 
HETATM   14  C2  UNL     1      21.372  -1.303  54.360  1.00  0.00     0.044 A 
HETATM   15  C1  UNL     1      20.119  -1.264  53.743  1.00  0.00     0.138 A 
HETATM   16  F1  UNL     1      19.130  -2.149  54.025  1.00  0.00    -0.204 F 
HETATM   17  C14 UNL     1      19.844  -0.305  52.806  1.00  0.00     0.073 A 
HETATM   18  C13 UNL     1      20.843   0.613  52.501  1.00  0.00     0.036 A 
HETATM   19 CL1  UNL     1      18.279  -0.226  52.010  1.00  0.00    -0.081 Cl
ENDBRANCH  11  12
ENDBRANCH  10  11
ENDBRANCH   1  10
BRANCH   8  20
HETATM   20  O2  UNL     1      25.858   2.411  50.760  1.00  0.00    -0.360 OA
BRANCH  20  21
HETATM   21  C12 UNL     1      26.262   3.607  50.179  1.00  0.00     0.198 C 
BRANCH  21  22
HETATM   22  P1  UNL     1      24.807   4.770  50.179  1.00  0.00    -0.116 P 
HETATM   23  H15 UNL     1      25.200   6.100  49.750  1.00  0.00     0.056 HD
HETATM   24  H16 UNL     1      23.805   4.303  49.239  1.00  0.00     0.056 HD
ENDBRANCH  21  22
ENDBRANCH  20  21
ENDBRANCH   8  20
TORSDOF 6
ENDMDL
MODEL 4
REMARK VINA RESULT:      -6.7      4.556      6.754
REMARK  6 active torsions:
REMARK  status: ('A' for Active; 'I' for Inactive)
REMARK    1  A    between atoms: C4_5  and  C5_6 
REMARK    2  A    between atoms: C5_6  and  O1_7 
REMARK    3  A    between atoms: O1_7  and  C6_8 
REMARK    4  A    between atoms: C11_15  and  O2_16 
REMARK    5  A    between atoms: O2_16  and  C12_17 
REMARK    6  A    between atoms: C12_17  and  P1_18 
ROOT
HETATM    1  C6  UNL     1      23.127   1.714  51.698  1.00  0.00     0.174 C 
HETATM    2  C7  UNL     1      22.709   1.521  53.115  1.00  0.00     0.065 C 
HETATM    3  C8  UNL     1      21.322   0.960  53.074  1.00  0.00    -0.005 C 
HETATM    4  C9  UNL     1      20.220   1.645  52.797  1.00  0.00     0.114 C 
HETATM    5  N1  UNL     1      20.025   3.020  52.477  1.00  0.00    -0.257 NA
HETATM    6  C10 UNL     1      20.795   3.958  52.033  1.00  0.00     0.204 C 
HETATM    7  N2  UNL     1      22.174   4.001  51.678  1.00  0.00    -0.356 N 
HETATM    8  C11 UNL     1      23.208   3.123  51.225  1.00  0.00     0.251 C 
HETATM    9  H11 UNL     1      22.557   4.988  51.780  1.00  0.00     0.163 HD
ENDROOT
BRANCH   1  10
HETATM   10  O1  UNL     1      24.415   1.144  51.589  1.00  0.00    -0.377 OA
BRANCH  10  11
HETATM   11  C5  UNL     1      24.590   0.210  52.598  1.00  0.00     0.207 C 
BRANCH  11  12
HETATM   12  C4  UNL     1      26.030  -0.005  52.856  1.00  0.00    -0.033 A 
HETATM   13  C3  UNL     1      26.728  -1.186  52.857  1.00  0.00     0.012 A 
HETATM   14  C2  UNL     1      28.065  -1.262  53.111  1.00  0.00     0.044 A 
HETATM   15  C1  UNL     1      28.780  -0.094  53.385  1.00  0.00     0.138 A 
HETATM   16  F1  UNL     1      30.110  -0.088  53.649  1.00  0.00    -0.204 F 
HETATM   17  C14 UNL     1      28.139   1.116  53.400  1.00  0.00     0.073 A 
HETATM   18  C13 UNL     1      26.775   1.134  53.134  1.00  0.00     0.036 A 
HETATM   19 CL1  UNL     1      29.007   2.605  53.742  1.00  0.00    -0.081 Cl
ENDBRANCH  11  12
ENDBRANCH  10  11
ENDBRANCH   1  10
BRANCH   8  20
HETATM   20  O2  UNL     1      24.460   3.644  51.546  1.00  0.00    -0.360 OA
BRANCH  20  21
HETATM   21  C12 UNL     1      24.939   4.492  50.554  1.00  0.00     0.198 C 
BRANCH  21  22
HETATM   22  P1  UNL     1      26.388   3.659  49.732  1.00  0.00    -0.116 P 
HETATM   23  H15 UNL     1      27.259   3.036  50.713  1.00  0.00     0.056 HD
HETATM   24  H16 UNL     1      25.916   2.602  48.858  1.00  0.00     0.056 HD
ENDBRANCH  21  22
ENDBRANCH  20  21
ENDBRANCH   8  20
TORSDOF 6
ENDMDL
MODEL 5
REMARK VINA RESULT:      -6.7      3.379      4.593
REMARK  6 active torsions:
REMARK  status: ('A' for Active; 'I' for Inactive)
REMARK    1  A    between atoms: C4_5  and  C5_6 
REMARK    2  A    between atoms: C5_6  and  O1_7 
REMARK    3  A    between atoms: O1_7  and  C6_8 
REMARK    4  A    between atoms: C11_15  and  O2_16 
REMARK    5  A    between atoms: O2_16  and  C12_17 
REMARK    6  A    between atoms: C12_17  and  P1_18 
ROOT
HETATM    1  C6  UNL     1      24.884   0.405  53.558  1.00  0.00     0.174 C 
HETATM    2  C7  UNL     1      24.007  -0.554  52.829  1.00  0.00     0.065 C 
HETATM    3  C8  UNL     1      22.612  -0.298  53.307  1.00  0.00    -0.005 C 
HETATM    4  C9  UNL     1      22.117  -0.671  54.480  1.00  0.00     0.114 C 
HETATM    5  N1  UNL     1      22.710  -1.376  55.568  1.00  0.00    -0.257 NA
HETATM    6  C10 UNL     1      23.928  -1.594  55.941  1.00  0.00     0.204 C 
HETATM    7  N2  UNL     1      25.194  -1.213  55.409  1.00  0.00    -0.356 N 
HETATM    8  C11 UNL     1      25.768  -0.181  54.603  1.00  0.00     0.251 C 
HETATM    9  H11 UNL     1      25.946  -1.906  55.698  1.00  0.00     0.163 HD
ENDROOT
BRANCH   1  10
HETATM   10  O1  UNL     1      25.707   1.004  52.578  1.00  0.00    -0.377 OA
BRANCH  10  11
HETATM   11  C5  UNL     1      25.723   2.376  52.770  1.00  0.00     0.207 C 
BRANCH  11  12
HETATM   12  C4  UNL     1      24.536   2.998  52.145  1.00  0.00    -0.033 A 
HETATM   13  C3  UNL     1      23.655   3.894  52.694  1.00  0.00     0.012 A 
HETATM   14  C2  UNL     1      22.588   4.402  52.016  1.00  0.00     0.044 A 
HETATM   15  C1  UNL     1      22.362   4.008  50.696  1.00  0.00     0.138 A 
HETATM   16  F1  UNL     1      21.323   4.468  49.956  1.00  0.00    -0.204 F 
HETATM   17  C14 UNL     1      23.206   3.115  50.091  1.00  0.00     0.073 A 
HETATM   18  C13 UNL     1      24.278   2.629  50.831  1.00  0.00     0.036 A 
HETATM   19 CL1  UNL     1      22.952   2.596  48.432  1.00  0.00    -0.081 Cl
ENDBRANCH  11  12
ENDBRANCH  10  11
ENDBRANCH   1  10
BRANCH   8  20
HETATM   20  O2  UNL     1      26.946  -0.630  54.008  1.00  0.00    -0.360 OA
BRANCH  20  21
HETATM   21  C12 UNL     1      28.071  -0.050  54.582  1.00  0.00     0.198 C 
BRANCH  21  22
HETATM   22  P1  UNL     1      29.569  -0.655  53.655  1.00  0.00    -0.116 P 
HETATM   23  H15 UNL     1      29.195  -1.230  52.375  1.00  0.00     0.056 HD
HETATM   24  H16 UNL     1      30.454   0.460  53.372  1.00  0.00     0.056 HD
ENDBRANCH  21  22
ENDBRANCH  20  21
ENDBRANCH   8  20
TORSDOF 6
ENDMDL
MODEL 6
REMARK VINA RESULT:      -6.6      5.234      6.794
REMARK  6 active torsions:
REMARK  status: ('A' for Active; 'I' for Inactive)
REMARK    1  A    between atoms: C4_5  and  C5_6 
REMARK    2  A    between atoms: C5_6  and  O1_7 
REMARK    3  A    between atoms: O1_7  and  C6_8 
REMARK    4  A    between atoms: C11_15  and  O2_16 
REMARK    5  A    between atoms: O2_16  and  C12_17 
REMARK    6  A    between atoms: C12_17  and  P1_18 
ROOT
HETATM    1  C6  UNL     1      24.791   3.891  51.095  1.00  0.00     0.174 C 
HETATM    2  C7  UNL     1      24.983   3.276  49.752  1.00  0.00     0.065 C 
HETATM    3  C8  UNL     1      26.450   3.343  49.462  1.00  0.00    -0.005 C 
HETATM    4  C9  UNL     1      27.119   4.432  49.107  1.00  0.00     0.114 C 
HETATM    5  N1  UNL     1      26.686   5.775  48.905  1.00  0.00    -0.257 NA
HETATM    6  C10 UNL     1      25.656   6.456  49.289  1.00  0.00     0.204 C 
HETATM    7  N2  UNL     1      24.517   6.136  50.082  1.00  0.00    -0.356 N 
HETATM    8  C11 UNL     1      24.133   5.227  51.117  1.00  0.00     0.251 C 
HETATM    9  H11 UNL     1      23.697   6.764  49.831  1.00  0.00     0.163 HD
ENDROOT
BRANCH   1  10
HETATM   10  O1  UNL     1      23.978   2.993  51.823  1.00  0.00    -0.377 OA
BRANCH  10  11
HETATM   11  C5  UNL     1      24.545   2.766  53.066  1.00  0.00     0.207 C 
BRANCH  11  12
HETATM   12  C4  UNL     1      25.595   1.729  52.972  1.00  0.00    -0.033 A 
HETATM   13  C3  UNL     1      25.539   0.516  52.334  1.00  0.00     0.012 A 
HETATM   14  C2  UNL     1      26.578  -0.365  52.314  1.00  0.00     0.044 A 
HETATM   15  C1  UNL     1      27.769  -0.039  52.968  1.00  0.00     0.138 A 
HETATM   16  F1  UNL     1      28.846  -0.862  52.994  1.00  0.00    -0.204 F 
HETATM   17  C14 UNL     1      27.886   1.158  53.624  1.00  0.00     0.073 A 
HETATM   18  C13 UNL     1      26.794   2.018  53.611  1.00  0.00     0.036 A 
HETATM   19 CL1  UNL     1      29.369   1.601  54.457  1.00  0.00    -0.081 Cl
ENDBRANCH  11  12
ENDBRANCH  10  11
ENDBRANCH   1  10
BRANCH   8  20
HETATM   20  O2  UNL     1      22.750   5.056  51.123  1.00  0.00    -0.360 OA
BRANCH  20  21
HETATM   21  C12 UNL     1      22.144   5.690  50.045  1.00  0.00     0.198 C 
BRANCH  21  22
HETATM   22  P1  UNL     1      21.202   4.409  49.075  1.00  0.00    -0.116 P 
HETATM   23  H15 UNL     1      19.845   4.271  49.572  1.00  0.00     0.056 HD
HETATM   24  H16 UNL     1      21.102   4.820  47.687  1.00  0.00     0.056 HD
ENDBRANCH  21  22
ENDBRANCH  20  21
ENDBRANCH   8  20
TORSDOF 6
ENDMDL
MODEL 7
REMARK VINA RESULT:      -6.6      4.257      6.134
REMARK  6 active torsions:
REMARK  status: ('A' for Active; 'I' for Inactive)
REMARK    1  A    between atoms: C4_5  and  C5_6 
REMARK    2  A    between atoms: C5_6  and  O1_7 
REMARK    3  A    between atoms: O1_7  and  C6_8 
REMARK    4  A    between atoms: C11_15  and  O2_16 
REMARK    5  A    between atoms: O2_16  and  C12_17 
REMARK    6  A    between atoms: C12_17  and  P1_18 
ROOT
HETATM    1  C6  UNL     1      23.676   0.850  52.838  1.00  0.00     0.174 C 
HETATM    2  C7  UNL     1      22.630  -0.145  52.471  1.00  0.00     0.065 C 
HETATM    3  C8  UNL     1      21.530   0.007  53.474  1.00  0.00    -0.005 C 
HETATM    4  C9  UNL     1      21.563  -0.426  54.727  1.00  0.00     0.114 C 
HETATM    5  N1  UNL     1      22.574  -1.119  55.455  1.00  0.00    -0.257 NA
HETATM    6  C10 UNL     1      23.849  -1.265  55.304  1.00  0.00     0.204 C 
HETATM    7  N2  UNL     1      24.778  -0.790  54.334  1.00  0.00    -0.356 N 
HETATM    8  C11 UNL     1      24.931   0.297  53.418  1.00  0.00     0.251 C 
HETATM    9  H11 UNL     1      25.617  -1.439  54.267  1.00  0.00     0.163 HD
ENDROOT
BRANCH   1  10
HETATM   10  O1  UNL     1      24.009   1.526  51.643  1.00  0.00    -0.377 OA
BRANCH  10  11
HETATM   11  C5  UNL     1      24.074   2.888  51.890  1.00  0.00     0.207 C 
BRANCH  11  12
HETATM   12  C4  UNL     1      24.955   3.549  50.903  1.00  0.00    -0.033 A 
HETATM   13  C3  UNL     1      26.041   3.028  50.247  1.00  0.00     0.012 A 
HETATM   14  C2  UNL     1      26.783   3.738  49.351  1.00  0.00     0.044 A 
HETATM   15  C1  UNL     1      26.439   5.063  49.071  1.00  0.00     0.138 A 
HETATM   16  F1  UNL     1      27.128   5.834  48.194  1.00  0.00    -0.204 F 
HETATM   17  C14 UNL     1      25.365   5.641  49.696  1.00  0.00     0.073 A 
HETATM   18  C13 UNL     1      24.645   4.869  50.600  1.00  0.00     0.036 A 
HETATM   19 CL1  UNL     1      24.904   7.305  49.368  1.00  0.00    -0.081 Cl
ENDBRANCH  11  12
ENDBRANCH  10  11
ENDBRANCH   1  10
BRANCH   8  20
HETATM   20  O2  UNL     1      25.795  -0.059  52.384  1.00  0.00    -0.360 OA
BRANCH  20  21
HETATM   21  C12 UNL     1      27.115  -0.130  52.813  1.00  0.00     0.198 C 
BRANCH  21  22
HETATM   22  P1  UNL     1      27.647   1.578  53.331  1.00  0.00    -0.116 P 
HETATM   23  H15 UNL     1      26.506   2.468  53.446  1.00  0.00     0.056 HD
HETATM   24  H16 UNL     1      28.270   1.522  54.640  1.00  0.00     0.056 HD
ENDBRANCH  21  22
ENDBRANCH  20  21
ENDBRANCH   8  20
TORSDOF 6
ENDMDL
MODEL 8
REMARK VINA RESULT:      -6.5      4.948      7.207
REMARK  6 active torsions:
REMARK  status: ('A' for Active; 'I' for Inactive)
REMARK    1  A    between atoms: C4_5  and  C5_6 
REMARK    2  A    between atoms: C5_6  and  O1_7 
REMARK    3  A    between atoms: O1_7  and  C6_8 
REMARK    4  A    between atoms: C11_15  and  O2_16 
REMARK    5  A    between atoms: O2_16  and  C12_17 
REMARK    6  A    between atoms: C12_17  and  P1_18 
ROOT
HETATM    1  C6  UNL     1      25.305   3.234  50.744  1.00  0.00     0.174 C 
HETATM    2  C7  UNL     1      26.103   3.233  49.486  1.00  0.00     0.065 C 
HETATM    3  C8  UNL     1      26.656   4.615  49.335  1.00  0.00    -0.005 C 
HETATM    4  C9  UNL     1      25.970   5.683  48.950  1.00  0.00     0.114 C 
HETATM    5  N1  UNL     1      24.600   5.839  48.587  1.00  0.00    -0.257 NA
HETATM    6  C10 UNL     1      23.528   5.151  48.807  1.00  0.00     0.204 C 
HETATM    7  N2  UNL     1      23.274   3.939  49.511  1.00  0.00    -0.356 N 
HETATM    8  C11 UNL     1      23.826   3.168  50.582  1.00  0.00     0.251 C 
HETATM    9  H11 UNL     1      22.409   3.456  49.127  1.00  0.00     0.163 HD
ENDROOT
BRANCH   1  10
HETATM   10  O1  UNL     1      25.714   2.091  51.468  1.00  0.00    -0.377 OA
BRANCH  10  11
HETATM   11  C5  UNL     1      26.487   2.485  52.547  1.00  0.00     0.207 C 
BRANCH  11  12
HETATM   12  C4  UNL     1      27.448   1.420  52.908  1.00  0.00    -0.033 A 
HETATM   13  C3  UNL     1      28.685   1.548  53.487  1.00  0.00     0.012 A 
HETATM   14  C2  UNL     1      29.488   0.486  53.775  1.00  0.00     0.044 A 
HETATM   15  C1  UNL     1      29.050  -0.807  53.478  1.00  0.00     0.138 A 
HETATM   16  F1  UNL     1      29.791  -1.914  53.733  1.00  0.00    -0.204 F 
HETATM   17  C14 UNL     1      27.824  -1.001  52.898  1.00  0.00     0.073 A 
HETATM   18  C13 UNL     1      27.047   0.119  52.627  1.00  0.00     0.036 A 
HETATM   19 CL1  UNL     1      27.242  -2.613  52.510  1.00  0.00    -0.081 Cl
ENDBRANCH  11  12
ENDBRANCH  10  11
ENDBRANCH   1  10
BRANCH   8  20
HETATM   20  O2  UNL     1      23.436   1.835  50.469  1.00  0.00    -0.360 OA
BRANCH  20  21
HETATM   21  C12 UNL     1      22.106   1.714  50.084  1.00  0.00     0.198 C 
BRANCH  21  22
HETATM   22  P1  UNL     1      21.243   0.621  51.321  1.00  0.00    -0.116 P 
HETATM   23  H15 UNL     1      22.069  -0.518  51.677  1.00  0.00     0.056 HD
HETATM   24  H16 UNL     1      20.998   1.363  52.544  1.00  0.00     0.056 HD
ENDBRANCH  21  22
ENDBRANCH  20  21
ENDBRANCH   8  20
TORSDOF 6
ENDMDL
MODEL 9
REMARK VINA RESULT:      -6.5      4.550      6.261
REMARK  6 active torsions:
REMARK  status: ('A' for Active; 'I' for Inactive)
REMARK    1  A    between atoms: C4_5  and  C5_6 
REMARK    2  A    between atoms: C5_6  and  O1_7 
REMARK    3  A    between atoms: O1_7  and  C6_8 
REMARK    4  A    between atoms: C11_15  and  O2_16 
REMARK    5  A    between atoms: O2_16  and  C12_17 
REMARK    6  A    between atoms: C12_17  and  P1_18 
ROOT
HETATM    1  C6  UNL     1      26.581   1.478  52.339  1.00  0.00     0.174 C 
HETATM    2  C7  UNL     1      26.968   2.567  53.279  1.00  0.00     0.065 C 
HETATM    3  C8  UNL     1      28.449   2.459  53.465  1.00  0.00    -0.005 C 
HETATM    4  C9  UNL     1      29.071   1.545  54.199  1.00  0.00     0.114 C 
HETATM    5  N1  UNL     1      28.565   0.466  54.980  1.00  0.00    -0.257 NA
HETATM    6  C10 UNL     1      27.451  -0.190  54.993  1.00  0.00     0.204 C 
HETATM    7  N2  UNL     1      26.256  -0.099  54.223  1.00  0.00    -0.356 N 
HETATM    8  C11 UNL     1      25.827   0.338  52.931  1.00  0.00     0.251 C 
HETATM    9  H11 UNL     1      25.426  -0.469  54.774  1.00  0.00     0.163 HD
ENDROOT
BRANCH   1  10
HETATM   10  O1  UNL     1      25.759   2.080  51.360  1.00  0.00    -0.377 OA
BRANCH  10  11
HETATM   11  C5  UNL     1      26.507   2.319  50.218  1.00  0.00     0.207 C 
BRANCH  11  12
HETATM   12  C4  UNL     1      26.204   3.661  49.675  1.00  0.00    -0.033 A 
HETATM   13  C3  UNL     1      25.001   4.319  49.653  1.00  0.00     0.012 A 
HETATM   14  C2  UNL     1      24.841   5.564  49.121  1.00  0.00     0.044 A 
HETATM   15  C1  UNL     1      25.942   6.221  48.567  1.00  0.00     0.138 A 
HETATM   16  F1  UNL     1      25.863   7.459  48.019  1.00  0.00    -0.204 F 
HETATM   17  C14 UNL     1      27.170   5.615  48.558  1.00  0.00     0.073 A 
HETATM   18  C13 UNL     1      27.275   4.346  49.114  1.00  0.00     0.036 A 
HETATM   19 CL1  UNL     1      28.577   6.412  47.869  1.00  0.00    -0.081 Cl
ENDBRANCH  11  12
ENDBRANCH  10  11
ENDBRANCH   1  10
BRANCH   8  20
HETATM   20  O2  UNL     1      24.469   0.648  52.951  1.00  0.00    -0.360 OA
BRANCH  20  21
HETATM   21  C12 UNL     1      23.708  -0.388  53.479  1.00  0.00     0.198 C 
BRANCH  21  22
HETATM   22  P1  UNL     1      21.916   0.113  53.403  1.00  0.00    -0.116 P 
HETATM   23  H15 UNL     1      21.403   0.423  54.725  1.00  0.00     0.056 HD
HETATM   24  H16 UNL     1      21.777   1.317  52.605  1.00  0.00     0.056 HD
ENDBRANCH  21  22
ENDBRANCH  20  21
ENDBRANCH   8  20
TORSDOF 6
ENDMDL
