MODEL 1
REMARK VINA RESULT:      -8.6      0.000      0.000
REMARK  7 active torsions:
REMARK  status: ('A' for Active; 'I' for Inactive)
REMARK    1  A    between atoms: C2_2  and  C3_3 
REMARK    2  A    between atoms: C4_4  and  C5_5 
REMARK    3  A    between atoms: C5_5  and  N1_6 
REMARK    4  A    between atoms: N1_6  and  C6_7 
REMARK    5  A    between atoms: C10_13  and  O1_14 
REMARK    6  A    between atoms: C13_17  and  O2_18 
REMARK    7  A    between atoms: O2_18  and  C14_19 
REMARK       I    between atoms: N4_22  and  C17_23 
ROOT
HETATM    1  C6  UNL     1      23.321   3.815  51.677  1.00  0.00     0.140 A 
HETATM    2  N2  UNL     1      22.500   4.873  51.713  1.00  0.00    -0.224 NA
HETATM    3  C7  UNL     1      22.732   6.024  51.071  1.00  0.00     0.236 A 
HETATM    4  N3  UNL     1      23.859   6.128  50.345  1.00  0.00    -0.241 NA
HETATM    5  C8  UNL     1      24.725   5.093  50.272  1.00  0.00     0.077 A 
HETATM    6  C9  UNL     1      25.837   5.328  49.498  1.00  0.00     0.069 A 
HETATM    7  C10 UNL     1      26.753   4.299  49.393  1.00  0.00     0.073 A 
HETATM    8  C12 UNL     1      26.502   3.119  50.060  1.00  0.00     0.074 A 
HETATM    9  C13 UNL     1      25.397   2.858  50.841  1.00  0.00     0.088 A 
HETATM   10  C21 UNL     1      24.486   3.887  50.943  1.00  0.00     0.072 A 
ENDROOT
BRANCH   9  11
HETATM   11  O2  UNL     1      25.166   1.695  51.486  1.00  0.00    -0.345 OA
BRANCH  11  12
HETATM   12  C14 UNL     1      25.719   1.187  52.672  1.00  0.00     0.132 C 
HETATM   13  C15 UNL     1      25.329  -0.216  53.006  1.00  0.00     0.052 C 
HETATM   14  C16 UNL     1      26.410  -1.166  53.350  1.00  0.00     0.128 C 
HETATM   15  N4  UNL     1      27.712  -0.645  53.568  1.00  0.00    -0.352 N 
HETATM   16  C17 UNL     1      28.848  -1.490  53.431  1.00  0.00     0.215 C 
HETATM   17  C19 UNL     1      27.758   0.748  53.920  1.00  0.00     0.128 C 
HETATM   18  C18 UNL     1      30.216  -0.933  53.662  1.00  0.00     0.117 C 
HETATM   19  O3  UNL     1      28.504  -2.673  53.112  1.00  0.00    -0.274 OA
HETATM   20  C20 UNL     1      27.183   1.481  52.700  1.00  0.00     0.052 C 
ENDBRANCH  11  12
ENDBRANCH   9  11
BRANCH   7  21
HETATM   21  O1  UNL     1      27.884   4.498  48.623  1.00  0.00    -0.356 OA
HETATM   22  C11 UNL     1      28.307   5.795  48.269  1.00  0.00     0.210 C 
ENDBRANCH   7  21
BRANCH   1  23
HETATM   23  N1  UNL     1      22.970   2.639  52.402  1.00  0.00    -0.370 N 
HETATM   24  H10 UNL     1      23.340   2.031  53.128  1.00  0.00     0.161 HD
BRANCH  23  25
HETATM   25  C5  UNL     1      21.693   2.040  52.074  1.00  0.00     0.148 C 
BRANCH  25  26
HETATM   26  C4  UNL     1      21.084   1.201  53.100  1.00  0.00    -0.011 C 
HETATM   27  C3  UNL     1      21.709   0.102  53.557  1.00  0.00    -0.029 C 
BRANCH  27  28
HETATM   28  C2  UNL     1      21.413  -0.960  54.561  1.00  0.00     0.022 C 
HETATM   29  C1  UNL     1      22.685  -1.407  55.273  1.00  0.00     0.009 C 
ENDBRANCH  27  28
ENDBRANCH  25  26
ENDBRANCH  23  25
ENDBRANCH   1  23
TORSDOF 7
ENDMDL
MODEL 2
REMARK VINA RESULT:      -8.4      2.389      7.507
REMARK  7 active torsions:
REMARK  status: ('A' for Active; 'I' for Inactive)
REMARK    1  A    between atoms: C2_2  and  C3_3 
REMARK    2  A    between atoms: C4_4  and  C5_5 
REMARK    3  A    between atoms: C5_5  and  N1_6 
REMARK    4  A    between atoms: N1_6  and  C6_7 
REMARK    5  A    between atoms: C10_13  and  O1_14 
REMARK    6  A    between atoms: C13_17  and  O2_18 
REMARK    7  A    between atoms: O2_18  and  C14_19 
REMARK       I    between atoms: N4_22  and  C17_23 
ROOT
HETATM    1  C6  UNL     1      24.298   0.001  53.638  1.00  0.00     0.140 A 
HETATM    2  N2  UNL     1      24.792  -0.666  54.691  1.00  0.00    -0.224 NA
HETATM    3  C7  UNL     1      24.050  -1.401  55.527  1.00  0.00     0.236 A 
HETATM    4  N3  UNL     1      22.727  -1.478  55.299  1.00  0.00    -0.241 NA
HETATM    5  C8  UNL     1      22.173  -0.827  54.252  1.00  0.00     0.077 A 
HETATM    6  C9  UNL     1      20.812  -0.987  54.131  1.00  0.00     0.069 A 
HETATM    7  C10 UNL     1      20.200  -0.340  53.075  1.00  0.00     0.073 A 
HETATM    8  C12 UNL     1      20.976   0.415  52.221  1.00  0.00     0.074 A 
HETATM    9  C13 UNL     1      22.338   0.591  52.320  1.00  0.00     0.088 A 
HETATM   10  C21 UNL     1      22.946  -0.056  53.374  1.00  0.00     0.072 A 
ENDROOT
BRANCH   9  11
HETATM   11  O2  UNL     1      23.083   1.334  51.473  1.00  0.00    -0.345 OA
BRANCH  11  12
HETATM   12  C14 UNL     1      22.764   2.502  50.765  1.00  0.00     0.132 C 
HETATM   13  C15 UNL     1      22.412   3.683  51.610  1.00  0.00     0.052 C 
HETATM   14  C16 UNL     1      23.092   4.965  51.318  1.00  0.00     0.128 C 
HETATM   15  N4  UNL     1      23.853   5.059  50.124  1.00  0.00    -0.352 N 
HETATM   16  C17 UNL     1      24.880   6.036  50.011  1.00  0.00     0.215 C 
HETATM   17  C19 UNL     1      23.497   4.115  49.100  1.00  0.00     0.128 C 
HETATM   18  C18 UNL     1      25.678   6.128  48.749  1.00  0.00     0.117 C 
HETATM   19  O3  UNL     1      24.970   6.731  51.072  1.00  0.00    -0.274 OA
HETATM   20  C20 UNL     1      23.797   2.739  49.712  1.00  0.00     0.052 C 
ENDBRANCH  11  12
ENDBRANCH   9  11
BRANCH   7  21
HETATM   21  O1  UNL     1      18.832  -0.477  52.920  1.00  0.00    -0.356 OA
HETATM   22  C11 UNL     1      18.149  -1.600  53.431  1.00  0.00     0.210 C 
ENDBRANCH   7  21
BRANCH   1  23
HETATM   23  N1  UNL     1      25.185   0.753  52.815  1.00  0.00    -0.370 N 
HETATM   24  H10 UNL     1      25.545   0.767  51.864  1.00  0.00     0.161 HD
BRANCH  23  25
HETATM   25  C5  UNL     1      25.837   1.886  53.440  1.00  0.00     0.148 C 
BRANCH  25  26
HETATM   26  C4  UNL     1      27.295   1.872  53.456  1.00  0.00    -0.011 C 
HETATM   27  C3  UNL     1      27.974   0.730  53.660  1.00  0.00    -0.029 C 
BRANCH  27  28
HETATM   28  C2  UNL     1      29.410   0.338  53.741  1.00  0.00     0.022 C 
HETATM   29  C1  UNL     1      29.593  -1.136  53.393  1.00  0.00     0.009 C 
ENDBRANCH  27  28
ENDBRANCH  25  26
ENDBRANCH  23  25
ENDBRANCH   1  23
TORSDOF 7
ENDMDL
MODEL 3
REMARK VINA RESULT:      -8.2      2.449      6.943
REMARK  7 active torsions:
REMARK  status: ('A' for Active; 'I' for Inactive)
REMARK    1  A    between atoms: C2_2  and  C3_3 
REMARK    2  A    between atoms: C4_4  and  C5_5 
REMARK    3  A    between atoms: C5_5  and  N1_6 
REMARK    4  A    between atoms: N1_6  and  C6_7 
REMARK    5  A    between atoms: C10_13  and  O1_14 
REMARK    6  A    between atoms: C13_17  and  O2_18 
REMARK    7  A    between atoms: O2_18  and  C14_19 
REMARK       I    between atoms: N4_22  and  C17_23 
ROOT
HETATM    1  C6  UNL     1      21.701   0.239  53.064  1.00  0.00     0.140 A 
HETATM    2  N2  UNL     1      20.776  -0.569  53.600  1.00  0.00    -0.224 NA
HETATM    3  C7  UNL     1      21.038  -1.493  54.532  1.00  0.00     0.236 A 
HETATM    4  N3  UNL     1      22.307  -1.620  54.958  1.00  0.00    -0.241 NA
HETATM    5  C8  UNL     1      23.282  -0.832  54.454  1.00  0.00     0.077 A 
HETATM    6  C9  UNL     1      24.534  -1.063  54.973  1.00  0.00     0.069 A 
HETATM    7  C10 UNL     1      25.565  -0.282  54.488  1.00  0.00     0.073 A 
HETATM    8  C12 UNL     1      25.281   0.666  53.527  1.00  0.00     0.074 A 
HETATM    9  C13 UNL     1      24.038   0.917  52.991  1.00  0.00     0.088 A 
HETATM   10  C21 UNL     1      23.012   0.136  53.478  1.00  0.00     0.072 A 
ENDROOT
BRANCH   9  11
HETATM   11  O2  UNL     1      23.778   1.851  52.051  1.00  0.00    -0.345 OA
BRANCH  11  12
HETATM   12  C14 UNL     1      24.307   3.139  51.876  1.00  0.00     0.132 C 
HETATM   13  C15 UNL     1      25.085   3.343  50.618  1.00  0.00     0.052 C 
HETATM   14  C16 UNL     1      24.753   4.522  49.787  1.00  0.00     0.128 C 
HETATM   15  N4  UNL     1      23.889   5.504  50.338  1.00  0.00    -0.352 N 
HETATM   16  C17 UNL     1      23.167   6.378  49.480  1.00  0.00     0.215 C 
HETATM   17  C19 UNL     1      23.826   5.519  51.774  1.00  0.00     0.128 C 
HETATM   18  C18 UNL     1      22.260   7.410  50.069  1.00  0.00     0.117 C 
HETATM   19  O3  UNL     1      23.421   6.134  48.258  1.00  0.00    -0.274 OA
HETATM   20  C20 UNL     1      23.244   4.150  52.157  1.00  0.00     0.052 C 
ENDBRANCH  11  12
ENDBRANCH   9  11
BRANCH   7  21
HETATM   21  O1  UNL     1      26.839  -0.485  54.986  1.00  0.00    -0.356 OA
HETATM   22  C11 UNL     1      27.955   0.167  54.424  1.00  0.00     0.210 C 
ENDBRANCH   7  21
BRANCH   1  23
HETATM   23  N1  UNL     1      21.305   1.188  52.076  1.00  0.00    -0.370 N 
HETATM   24  H10 UNL     1      21.327   2.189  51.904  1.00  0.00     0.161 HD
BRANCH  23  25
HETATM   25  C5  UNL     1      20.653   0.654  50.898  1.00  0.00     0.148 C 
BRANCH  25  26
HETATM   26  C4  UNL     1      21.434   0.649  49.667  1.00  0.00    -0.011 C 
HETATM   27  C3  UNL     1      21.776   1.799  49.059  1.00  0.00    -0.029 C 
BRANCH  27  28
HETATM   28  C2  UNL     1      22.539   2.178  47.835  1.00  0.00     0.022 C 
HETATM   29  C1  UNL     1      21.814   3.272  47.058  1.00  0.00     0.009 C 
ENDBRANCH  27  28
ENDBRANCH  25  26
ENDBRANCH  23  25
ENDBRANCH   1  23
TORSDOF 7
ENDMDL
MODEL 4
REMARK VINA RESULT:      -8.2      1.905      5.560
REMARK  7 active torsions:
REMARK  status: ('A' for Active; 'I' for Inactive)
REMARK    1  A    between atoms: C2_2  and  C3_3 
REMARK    2  A    between atoms: C4_4  and  C5_5 
REMARK    3  A    between atoms: C5_5  and  N1_6 
REMARK    4  A    between atoms: N1_6  and  C6_7 
REMARK    5  A    between atoms: C10_13  and  O1_14 
REMARK    6  A    between atoms: C13_17  and  O2_18 
REMARK    7  A    between atoms: O2_18  and  C14_19 
REMARK       I    between atoms: N4_22  and  C17_23 
ROOT
HETATM    1  C6  UNL     1      24.507   4.999  50.635  1.00  0.00     0.140 A 
HETATM    2  N2  UNL     1      24.334   6.189  50.043  1.00  0.00    -0.224 NA
HETATM    3  C7  UNL     1      23.155   6.815  49.950  1.00  0.00     0.236 A 
HETATM    4  N3  UNL     1      22.077   6.215  50.483  1.00  0.00    -0.241 NA
HETATM    5  C8  UNL     1      22.191   5.015  51.093  1.00  0.00     0.077 A 
HETATM    6  C9  UNL     1      21.013   4.511  51.595  1.00  0.00     0.069 A 
HETATM    7  C10 UNL     1      21.080   3.284  52.227  1.00  0.00     0.073 A 
HETATM    8  C12 UNL     1      22.300   2.650  52.315  1.00  0.00     0.074 A 
HETATM    9  C13 UNL     1      23.492   3.132  51.822  1.00  0.00     0.088 A 
HETATM   10  C21 UNL     1      23.423   4.355  51.192  1.00  0.00     0.072 A 
ENDROOT
BRANCH   9  11
HETATM   11  O2  UNL     1      24.680   2.497  51.918  1.00  0.00    -0.345 OA
BRANCH  11  12
HETATM   12  C14 UNL     1      25.290   1.868  53.014  1.00  0.00     0.132 C 
HETATM   13  C15 UNL     1      24.800   0.490  53.313  1.00  0.00     0.052 C 
HETATM   14  C16 UNL     1      25.810  -0.575  53.497  1.00  0.00     0.128 C 
HETATM   15  N4  UNL     1      27.172  -0.191  53.609  1.00  0.00    -0.352 N 
HETATM   16  C17 UNL     1      28.201  -1.126  53.315  1.00  0.00     0.215 C 
HETATM   17  C19 UNL     1      27.387   1.168  54.027  1.00  0.00     0.128 C 
HETATM   18  C18 UNL     1      29.633  -0.713  53.435  1.00  0.00     0.117 C 
HETATM   19  O3  UNL     1      27.715  -2.251  52.971  1.00  0.00    -0.274 OA
HETATM   20  C20 UNL     1      26.772   2.024  52.910  1.00  0.00     0.052 C 
ENDBRANCH  11  12
ENDBRANCH   9  11
BRANCH   7  21
HETATM   21  O1  UNL     1      19.916   2.745  52.746  1.00  0.00    -0.356 OA
HETATM   22  C11 UNL     1      19.179   1.779  52.032  1.00  0.00     0.210 C 
ENDBRANCH   7  21
BRANCH   1  23
HETATM   23  N1  UNL     1      25.812   4.427  50.673  1.00  0.00    -0.370 N 
HETATM   24  H10 UNL     1      26.571   4.257  51.329  1.00  0.00     0.161 HD
BRANCH  23  25
HETATM   25  C5  UNL     1      26.313   3.882  49.427  1.00  0.00     0.148 C 
BRANCH  25  26
HETATM   26  C4  UNL     1      27.489   4.529  48.859  1.00  0.00    -0.011 C 
HETATM   27  C3  UNL     1      27.456   5.821  48.486  1.00  0.00    -0.029 C 
BRANCH  27  28
HETATM   28  C2  UNL     1      28.422   6.788  47.891  1.00  0.00     0.022 C 
HETATM   29  C1  UNL     1      27.691   7.901  47.147  1.00  0.00     0.009 C 
ENDBRANCH  27  28
ENDBRANCH  25  26
ENDBRANCH  23  25
ENDBRANCH   1  23
TORSDOF 7
ENDMDL
MODEL 5
REMARK VINA RESULT:      -8.1      2.395      7.818
REMARK  7 active torsions:
REMARK  status: ('A' for Active; 'I' for Inactive)
REMARK    1  A    between atoms: C2_2  and  C3_3 
REMARK    2  A    between atoms: C4_4  and  C5_5 
REMARK    3  A    between atoms: C5_5  and  N1_6 
REMARK    4  A    between atoms: N1_6  and  C6_7 
REMARK    5  A    between atoms: C10_13  and  O1_14 
REMARK    6  A    between atoms: C13_17  and  O2_18 
REMARK    7  A    between atoms: O2_18  and  C14_19 
REMARK       I    between atoms: N4_22  and  C17_23 
ROOT
HETATM    1  C6  UNL     1      26.358   1.577  53.129  1.00  0.00     0.140 A 
HETATM    2  N2  UNL     1      27.549   1.348  53.699  1.00  0.00    -0.224 NA
HETATM    3  C7  UNL     1      27.767   0.415  54.633  1.00  0.00     0.236 A 
HETATM    4  N3  UNL     1      26.727  -0.342  55.024  1.00  0.00    -0.241 NA
HETATM    5  C8  UNL     1      25.502  -0.158  54.485  1.00  0.00     0.077 A 
HETATM    6  C9  UNL     1      24.527  -0.996  54.972  1.00  0.00     0.069 A 
HETATM    7  C10 UNL     1      23.257  -0.845  54.450  1.00  0.00     0.073 A 
HETATM    8  C12 UNL     1      23.046   0.121  53.489  1.00  0.00     0.074 A 
HETATM    9  C13 UNL     1      24.004   0.972  52.985  1.00  0.00     0.088 A 
HETATM   10  C21 UNL     1      25.270   0.818  53.507  1.00  0.00     0.072 A 
ENDROOT
BRANCH   9  11
HETATM   11  O2  UNL     1      23.781   1.913  52.042  1.00  0.00    -0.345 OA
BRANCH  11  12
HETATM   12  C14 UNL     1      22.577   2.435  51.544  1.00  0.00     0.132 C 
HETATM   13  C15 UNL     1      22.076   3.658  52.240  1.00  0.00     0.052 C 
HETATM   14  C16 UNL     1      21.689   4.815  51.403  1.00  0.00     0.128 C 
HETATM   15  N4  UNL     1      21.593   4.622  50.000  1.00  0.00    -0.352 N 
HETATM   16  C17 UNL     1      21.697   5.734  49.120  1.00  0.00     0.215 C 
HETATM   17  C19 UNL     1      21.393   3.259  49.587  1.00  0.00     0.128 C 
HETATM   18  C18 UNL     1      21.595   5.521  47.644  1.00  0.00     0.117 C 
HETATM   19  O3  UNL     1      21.871   6.815  49.767  1.00  0.00    -0.274 OA
HETATM   20  C20 UNL     1      22.654   2.517  50.054  1.00  0.00     0.052 C 
ENDBRANCH  11  12
ENDBRANCH   9  11
BRANCH   7  21
HETATM   21  O1  UNL     1      22.249  -1.671  54.915  1.00  0.00    -0.356 OA
HETATM   22  C11 UNL     1      20.980  -1.690  54.301  1.00  0.00     0.210 C 
ENDBRANCH   7  21
BRANCH   1  23
HETATM   23  N1  UNL     1      26.245   2.600  52.143  1.00  0.00    -0.370 N 
HETATM   24  H10 UNL     1      25.913   3.556  52.046  1.00  0.00     0.161 HD
BRANCH  23  25
HETATM   25  C5  UNL     1      26.732   2.273  50.818  1.00  0.00     0.148 C 
BRANCH  25  26
HETATM   26  C4  UNL     1      26.316   3.156  49.735  1.00  0.00    -0.011 C 
HETATM   27  C3  UNL     1      25.931   4.421  49.983  1.00  0.00    -0.029 C 
BRANCH  27  28
HETATM   28  C2  UNL     1      25.459   5.575  49.166  1.00  0.00     0.022 C 
HETATM   29  C1  UNL     1      25.369   6.841  50.012  1.00  0.00     0.009 C 
ENDBRANCH  27  28
ENDBRANCH  25  26
ENDBRANCH  23  25
ENDBRANCH   1  23
TORSDOF 7
ENDMDL
MODEL 6
REMARK VINA RESULT:      -8.0      2.492      5.930
REMARK  7 active torsions:
REMARK  status: ('A' for Active; 'I' for Inactive)
REMARK    1  A    between atoms: C2_2  and  C3_3 
REMARK    2  A    between atoms: C4_4  and  C5_5 
REMARK    3  A    between atoms: C5_5  and  N1_6 
REMARK    4  A    between atoms: N1_6  and  C6_7 
REMARK    5  A    between atoms: C10_13  and  O1_14 
REMARK    6  A    between atoms: C13_17  and  O2_18 
REMARK    7  A    between atoms: O2_18  and  C14_19 
REMARK       I    between atoms: N4_22  and  C17_23 
ROOT
HETATM    1  C6  UNL     1      23.060   2.962  48.974  1.00  0.00     0.140 A 
HETATM    2  N2  UNL     1      22.622   3.616  47.889  1.00  0.00    -0.224 NA
HETATM    3  C7  UNL     1      21.365   3.555  47.433  1.00  0.00     0.236 A 
HETATM    4  N3  UNL     1      20.485   2.791  48.105  1.00  0.00    -0.241 NA
HETATM    5  C8  UNL     1      20.870   2.110  49.207  1.00  0.00     0.077 A 
HETATM    6  C9  UNL     1      19.875   1.367  49.799  1.00  0.00     0.069 A 
HETATM    7  C10 UNL     1      20.220   0.652  50.930  1.00  0.00     0.073 A 
HETATM    8  C12 UNL     1      21.519   0.723  51.387  1.00  0.00     0.074 A 
HETATM    9  C13 UNL     1      22.532   1.458  50.813  1.00  0.00     0.088 A 
HETATM   10  C21 UNL     1      22.184   2.170  49.686  1.00  0.00     0.072 A 
ENDROOT
BRANCH   9  11
HETATM   11  O2  UNL     1      23.799   1.517  51.276  1.00  0.00    -0.345 OA
BRANCH  11  12
HETATM   12  C14 UNL     1      24.300   1.378  52.580  1.00  0.00     0.132 C 
HETATM   13  C15 UNL     1      24.351  -0.022  53.098  1.00  0.00     0.052 C 
HETATM   14  C16 UNL     1      25.620  -0.485  53.702  1.00  0.00     0.128 C 
HETATM   15  N4  UNL     1      26.626   0.481  53.965  1.00  0.00    -0.352 N 
HETATM   16  C17 UNL     1      27.984   0.078  54.086  1.00  0.00     0.215 C 
HETATM   17  C19 UNL     1      26.152   1.832  54.088  1.00  0.00     0.128 C 
HETATM   18  C18 UNL     1      29.037   1.102  54.363  1.00  0.00     0.117 C 
HETATM   19  O3  UNL     1      28.105  -1.179  53.932  1.00  0.00    -0.274 OA
HETATM   20  C20 UNL     1      25.561   2.168  52.711  1.00  0.00     0.052 C 
ENDBRANCH  11  12
ENDBRANCH   9  11
BRANCH   7  21
HETATM   21  O1  UNL     1      19.246  -0.107  51.554  1.00  0.00    -0.356 OA
HETATM   22  C11 UNL     1      19.333  -0.419  52.926  1.00  0.00     0.210 C 
ENDBRANCH   7  21
BRANCH   1  23
HETATM   23  N1  UNL     1      24.423   3.103  49.365  1.00  0.00    -0.370 N 
HETATM   24  H10 UNL     1      25.230   2.530  49.601  1.00  0.00     0.161 HD
BRANCH  23  25
HETATM   25  C5  UNL     1      24.917   4.458  49.498  1.00  0.00     0.148 C 
BRANCH  25  26
HETATM   26  C4  UNL     1      26.285   4.699  49.053  1.00  0.00    -0.011 C 
HETATM   27  C3  UNL     1      26.682   5.926  48.673  1.00  0.00    -0.029 C 
BRANCH  27  28
HETATM   28  C2  UNL     1      27.950   6.535  48.177  1.00  0.00     0.022 C 
HETATM   29  C1  UNL     1      29.098   5.533  48.242  1.00  0.00     0.009 C 
ENDBRANCH  27  28
ENDBRANCH  25  26
ENDBRANCH  23  25
ENDBRANCH   1  23
TORSDOF 7
ENDMDL
MODEL 7
REMARK VINA RESULT:      -8.0      2.578      8.109
REMARK  7 active torsions:
REMARK  status: ('A' for Active; 'I' for Inactive)
REMARK    1  A    between atoms: C2_2  and  C3_3 
REMARK    2  A    between atoms: C4_4  and  C5_5 
REMARK    3  A    between atoms: C5_5  and  N1_6 
REMARK    4  A    between atoms: N1_6  and  C6_7 
REMARK    5  A    between atoms: C10_13  and  O1_14 
REMARK    6  A    between atoms: C13_17  and  O2_18 
REMARK    7  A    between atoms: O2_18  and  C14_19 
REMARK       I    between atoms: N4_22  and  C17_23 
ROOT
HETATM    1  C6  UNL     1      25.973   1.674  52.001  1.00  0.00     0.140 A 
HETATM    2  N2  UNL     1      26.994   0.806  52.039  1.00  0.00    -0.224 NA
HETATM    3  C7  UNL     1      26.905  -0.435  52.533  1.00  0.00     0.236 A 
HETATM    4  N3  UNL     1      25.719  -0.837  53.022  1.00  0.00    -0.241 NA
HETATM    5  C8  UNL     1      24.654  -0.006  53.010  1.00  0.00     0.077 A 
HETATM    6  C9  UNL     1      23.502  -0.539  53.539  1.00  0.00     0.069 A 
HETATM    7  C10 UNL     1      22.385   0.274  53.548  1.00  0.00     0.073 A 
HETATM    8  C12 UNL     1      22.491   1.550  53.037  1.00  0.00     0.074 A 
HETATM    9  C13 UNL     1      23.631   2.108  52.502  1.00  0.00     0.088 A 
HETATM   10  C21 UNL     1      24.743   1.293  52.494  1.00  0.00     0.072 A 
ENDROOT
BRANCH   9  11
HETATM   11  O2  UNL     1      23.716   3.360  52.004  1.00  0.00    -0.345 OA
BRANCH  11  12
HETATM   12  C14 UNL     1      22.958   3.998  51.011  1.00  0.00     0.132 C 
HETATM   13  C15 UNL     1      22.728   3.197  49.771  1.00  0.00     0.052 C 
HETATM   14  C16 UNL     1      21.341   3.094  49.266  1.00  0.00     0.128 C 
HETATM   15  N4  UNL     1      20.357   3.939  49.843  1.00  0.00    -0.352 N 
HETATM   16  C17 UNL     1      18.982   3.584  49.765  1.00  0.00     0.215 C 
HETATM   17  C19 UNL     1      20.869   5.122  50.479  1.00  0.00     0.128 C 
HETATM   18  C18 UNL     1      17.952   4.480  50.376  1.00  0.00     0.117 C 
HETATM   19  O3  UNL     1      18.826   2.485  49.145  1.00  0.00    -0.274 OA
HETATM   20  C20 UNL     1      21.741   4.603  51.631  1.00  0.00     0.052 C 
ENDBRANCH  11  12
ENDBRANCH   9  11
BRANCH   7  21
HETATM   21  O1  UNL     1      21.207  -0.228  54.072  1.00  0.00    -0.356 OA
HETATM   22  C11 UNL     1      21.066  -1.599  54.368  1.00  0.00     0.210 C 
ENDBRANCH   7  21
BRANCH   1  23
HETATM   23  N1  UNL     1      26.186   2.971  51.451  1.00  0.00    -0.370 N 
HETATM   24  H10 UNL     1      26.202   3.947  51.737  1.00  0.00     0.161 HD
BRANCH  23  25
HETATM   25  C5  UNL     1      26.481   3.027  50.033  1.00  0.00     0.148 C 
BRANCH  25  26
HETATM   26  C4  UNL     1      26.445   4.346  49.412  1.00  0.00    -0.011 C 
HETATM   27  C3  UNL     1      27.538   4.866  48.827  1.00  0.00    -0.029 C 
BRANCH  27  28
HETATM   28  C2  UNL     1      27.871   6.134  48.116  1.00  0.00     0.022 C 
HETATM   29  C1  UNL     1      29.374   6.247  47.878  1.00  0.00     0.009 C 
ENDBRANCH  27  28
ENDBRANCH  25  26
ENDBRANCH  23  25
ENDBRANCH   1  23
TORSDOF 7
ENDMDL
MODEL 8
REMARK VINA RESULT:      -7.9      2.208      6.155
REMARK  7 active torsions:
REMARK  status: ('A' for Active; 'I' for Inactive)
REMARK    1  A    between atoms: C2_2  and  C3_3 
REMARK    2  A    between atoms: C4_4  and  C5_5 
REMARK    3  A    between atoms: C5_5  and  N1_6 
REMARK    4  A    between atoms: N1_6  and  C6_7 
REMARK    5  A    between atoms: C10_13  and  O1_14 
REMARK    6  A    between atoms: C13_17  and  O2_18 
REMARK    7  A    between atoms: O2_18  and  C14_19 
REMARK       I    between atoms: N4_22  and  C17_23 
ROOT
HETATM    1  C6  UNL     1      23.345  -0.216  53.309  1.00  0.00     0.140 A 
HETATM    2  N2  UNL     1      23.230  -1.034  54.365  1.00  0.00    -0.224 NA
HETATM    3  C7  UNL     1      24.218  -1.282  55.232  1.00  0.00     0.236 A 
HETATM    4  N3  UNL     1      25.401  -0.674  55.035  1.00  0.00    -0.241 NA
HETATM    5  C8  UNL     1      25.576   0.162  53.988  1.00  0.00     0.077 A 
HETATM    6  C9  UNL     1      26.831   0.718  53.900  1.00  0.00     0.069 A 
HETATM    7  C10 UNL     1      27.058   1.580  52.845  1.00  0.00     0.073 A 
HETATM    8  C12 UNL     1      26.032   1.826  51.958  1.00  0.00     0.074 A 
HETATM    9  C13 UNL     1      24.768   1.283  52.023  1.00  0.00     0.088 A 
HETATM   10  C21 UNL     1      24.544   0.424  53.077  1.00  0.00     0.072 A 
ENDROOT
BRANCH   9  11
HETATM   11  O2  UNL     1      23.773   1.537  51.146  1.00  0.00    -0.345 OA
BRANCH  11  12
HETATM   12  C14 UNL     1      23.221   2.756  50.723  1.00  0.00     0.132 C 
HETATM   13  C15 UNL     1      23.165   3.825  51.764  1.00  0.00     0.052 C 
HETATM   14  C16 UNL     1      23.693   5.161  51.407  1.00  0.00     0.128 C 
HETATM   15  N4  UNL     1      24.003   5.413  50.045  1.00  0.00    -0.352 N 
HETATM   16  C17 UNL     1      24.921   6.444  49.704  1.00  0.00     0.215 C 
HETATM   17  C19 UNL     1      23.329   4.564  49.101  1.00  0.00     0.128 C 
HETATM   18  C18 UNL     1      25.242   6.703  48.267  1.00  0.00     0.117 C 
HETATM   19  O3  UNL     1      25.359   7.031  50.744  1.00  0.00    -0.274 OA
HETATM   20  C20 UNL     1      23.832   3.148  49.417  1.00  0.00     0.052 C 
ENDBRANCH  11  12
ENDBRANCH   9  11
BRANCH   7  21
HETATM   21  O1  UNL     1      28.308   2.159  52.723  1.00  0.00    -0.356 OA
HETATM   22  C11 UNL     1      29.116   2.396  53.853  1.00  0.00     0.210 C 
ENDBRANCH   7  21
BRANCH   1  23
HETATM   23  N1  UNL     1      22.223  -0.028  52.451  1.00  0.00    -0.370 N 
HETATM   24  H10 UNL     1      21.991  -0.014  51.461  1.00  0.00     0.161 HD
BRANCH  23  25
HETATM   25  C5  UNL     1      20.954   0.234  53.101  1.00  0.00     0.148 C 
BRANCH  25  26
HETATM   26  C4  UNL     1      20.477   1.611  53.065  1.00  0.00    -0.011 C 
HETATM   27  C3  UNL     1      19.873   2.107  51.971  1.00  0.00    -0.029 C 
BRANCH  27  28
HETATM   28  C2  UNL     1      19.274   3.415  51.578  1.00  0.00     0.022 C 
HETATM   29  C1  UNL     1      17.751   3.335  51.564  1.00  0.00     0.009 C 
ENDBRANCH  27  28
ENDBRANCH  25  26
ENDBRANCH  23  25
ENDBRANCH   1  23
TORSDOF 7
ENDMDL
MODEL 9
REMARK VINA RESULT:      -7.9      2.712      6.832
REMARK  7 active torsions:
REMARK  status: ('A' for Active; 'I' for Inactive)
REMARK    1  A    between atoms: C2_2  and  C3_3 
REMARK    2  A    between atoms: C4_4  and  C5_5 
REMARK    3  A    between atoms: C5_5  and  N1_6 
REMARK    4  A    between atoms: N1_6  and  C6_7 
REMARK    5  A    between atoms: C10_13  and  O1_14 
REMARK    6  A    between atoms: C13_17  and  O2_18 
REMARK    7  A    between atoms: O2_18  and  C14_19 
REMARK       I    between atoms: N4_22  and  C17_23 
ROOT
HETATM    1  C6  UNL     1      21.856  -0.123  52.929  1.00  0.00     0.140 A 
HETATM    2  N2  UNL     1      20.934  -0.851  53.575  1.00  0.00    -0.224 NA
HETATM    3  C7  UNL     1      21.190  -1.593  54.659  1.00  0.00     0.236 A 
HETATM    4  N3  UNL     1      22.448  -1.610  55.132  1.00  0.00    -0.241 NA
HETATM    5  C8  UNL     1      23.419  -0.895  54.523  1.00  0.00     0.077 A 
HETATM    6  C9  UNL     1      24.661  -0.999  55.105  1.00  0.00     0.069 A 
HETATM    7  C10 UNL     1      25.687  -0.286  54.517  1.00  0.00     0.073 A 
HETATM    8  C12 UNL     1      25.411   0.473  53.400  1.00  0.00     0.074 A 
HETATM    9  C13 UNL     1      24.178   0.595  52.798  1.00  0.00     0.088 A 
HETATM   10  C21 UNL     1      23.157  -0.118  53.387  1.00  0.00     0.072 A 
ENDROOT
BRANCH   9  11
HETATM   11  O2  UNL     1      23.925   1.345  51.704  1.00  0.00    -0.345 OA
BRANCH  11  12
HETATM   12  C14 UNL     1      24.302   2.661  51.395  1.00  0.00     0.132 C 
HETATM   13  C15 UNL     1      24.471   2.951  49.940  1.00  0.00     0.052 C 
HETATM   14  C16 UNL     1      23.792   4.147  49.393  1.00  0.00     0.128 C 
HETATM   15  N4  UNL     1      23.220   5.067  50.311  1.00  0.00    -0.352 N 
HETATM   16  C17 UNL     1      22.184   5.942  49.886  1.00  0.00     0.215 C 
HETATM   17  C19 UNL     1      23.769   5.020  51.639  1.00  0.00     0.128 C 
HETATM   18  C18 UNL     1      21.587   6.908  50.859  1.00  0.00     0.117 C 
HETATM   19  O3  UNL     1      21.903   5.760  48.659  1.00  0.00    -0.274 OA
HETATM   20  C20 UNL     1      23.434   3.612  52.153  1.00  0.00     0.052 C 
ENDBRANCH  11  12
ENDBRANCH   9  11
BRANCH   7  21
HETATM   21  O1  UNL     1      26.951  -0.366  55.075  1.00  0.00    -0.356 OA
HETATM   22  C11 UNL     1      28.029   0.374  54.547  1.00  0.00     0.210 C 
ENDBRANCH   7  21
BRANCH   1  23
HETATM   23  N1  UNL     1      21.468   0.629  51.783  1.00  0.00    -0.370 N 
HETATM   24  H10 UNL     1      21.792   0.841  50.843  1.00  0.00     0.161 HD
BRANCH  23  25
HETATM   25  C5  UNL     1      20.225   1.366  51.888  1.00  0.00     0.148 C 
BRANCH  25  26
HETATM   26  C4  UNL     1      19.110   0.880  51.084  1.00  0.00    -0.011 C 
HETATM   27  C3  UNL     1      18.133   0.136  51.633  1.00  0.00    -0.029 C 
BRANCH  27  28
HETATM   28  C2  UNL     1      16.882  -0.515  51.149  1.00  0.00     0.022 C 
HETATM   29  C1  UNL     1      16.722  -0.335  49.643  1.00  0.00     0.009 C 
ENDBRANCH  27  28
ENDBRANCH  25  26
ENDBRANCH  23  25
ENDBRANCH   1  23
TORSDOF 7
ENDMDL
