MODEL 1
REMARK VINA RESULT:      -8.5      0.000      0.000
REMARK  7 active torsions:
REMARK  status: ('A' for Active; 'I' for Inactive)
REMARK    1  A    between atoms: N1_2  and  C3_4 
REMARK    2  A    between atoms: C3_4  and  C4_5 
REMARK    3  A    between atoms: C5_6  and  C6_7 
REMARK       I    between atoms: C6_7  and  N2_9 
REMARK    4  A    between atoms: N2_9  and  C7_10 
REMARK    5  A    between atoms: C9_12  and  N3_13 
REMARK    6  A    between atoms: N3_13  and  C10_14 
REMARK    7  A    between atoms: C18_24  and  C19_25 
ROOT
HETATM    1  C7  UNL     1      25.206   4.296  50.653  1.00  0.00     0.044 C 
HETATM    2  C8  UNL     1      25.533   3.168  51.341  1.00  0.00     0.059 C 
HETATM    3  C9  UNL     1      24.754   2.271  52.260  1.00  0.00     0.153 C 
HETATM    4  C16 UNL     1      23.723   3.336  52.824  1.00  0.00     0.118 C 
HETATM    5  C17 UNL     1      23.235   3.689  51.412  1.00  0.00     0.023 C 
HETATM    6  C18 UNL     1      23.737   4.660  50.669  1.00  0.00    -0.003 C 
HETATM    7  N4  UNL     1      22.207   2.851  50.807  1.00  0.00    -0.354 N 
HETATM    8  C23 UNL     1      22.762   1.506  51.041  1.00  0.00     0.204 C 
HETATM    9  N5  UNL     1      23.900   1.320  51.645  1.00  0.00    -0.248 NA
HETATM   10  H26 UNL     1      21.450   3.397  50.388  1.00  0.00     0.166 HD
ENDROOT
BRANCH   1  11
HETATM   11  N2  UNL     1      26.057   5.192  49.958  1.00  0.00    -0.323 N 
HETATM   12  C6  UNL     1      27.104   4.775  49.094  1.00  0.00     0.245 C 
HETATM   13  O1  UNL     1      27.489   3.622  48.775  1.00  0.00    -0.268 OA
HETATM   14  H11 UNL     1      25.867   6.200  50.121  1.00  0.00     0.169 HD
BRANCH  12  15
HETATM   15  C5  UNL     1      27.878   5.829  48.455  1.00  0.00     0.072 C 
HETATM   16  C4  UNL     1      29.165   5.894  48.099  1.00  0.00     0.008 C 
BRANCH  16  17
HETATM   17  C3  UNL     1      30.060   6.878  47.457  1.00  0.00     0.299 C 
BRANCH  17  18
HETATM   18  N1  UNL     1      31.432   6.679  47.894  1.00  0.00     0.083 N 
HETATM   19  C1  UNL     1      31.504   7.201  49.245  1.00  0.00     0.309 C 
HETATM   20  C2  UNL     1      31.636   5.232  47.879  1.00  0.00     0.309 C 
ENDBRANCH  17  18
ENDBRANCH  16  17
ENDBRANCH  12  15
ENDBRANCH   1  11
BRANCH   6  21
HETATM   21  C19 UNL     1      22.969   5.730  50.087  1.00  0.00     0.049 C 
HETATM   22  C20 UNL     1      23.125   5.861  48.614  1.00  0.00     0.038 C 
HETATM   23  C21 UNL     1      23.730   7.182  48.378  1.00  0.00     0.168 C 
HETATM   24  O2  UNL     1      23.308   7.966  49.446  1.00  0.00    -0.390 OA
HETATM   25  C22 UNL     1      23.383   7.070  50.556  1.00  0.00     0.177 C 
ENDBRANCH   6  21
BRANCH   3  26
HETATM   26  N3  UNL     1      25.502   1.826  53.382  1.00  0.00    -0.358 N 
HETATM   27  H13 UNL     1      25.062   2.078  54.317  1.00  0.00     0.162 HD
BRANCH  26  28
HETATM   28  C10 UNL     1      26.702   1.122  53.419  1.00  0.00     0.032 A 
HETATM   29  C11 UNL     1      27.903   1.758  53.739  1.00  0.00     0.032 A 
HETATM   30  C12 UNL     1      29.115   1.109  53.782  1.00  0.00     0.046 A 
HETATM   31  C13 UNL     1      29.148  -0.238  53.497  1.00  0.00     0.138 A 
HETATM   32  F1  UNL     1      30.356  -0.839  53.551  1.00  0.00    -0.204 F 
HETATM   33  C14 UNL     1      28.010  -0.958  53.169  1.00  0.00     0.074 A 
HETATM   34 CL1  UNL     1      28.074  -2.660  52.811  1.00  0.00    -0.081 Cl
HETATM   35  C15 UNL     1      26.863  -0.209  53.156  1.00  0.00     0.056 A 
ENDBRANCH  26  28
ENDBRANCH   3  26
TORSDOF 7
ENDMDL
MODEL 2
REMARK VINA RESULT:      -8.3      1.465      1.887
REMARK  7 active torsions:
REMARK  status: ('A' for Active; 'I' for Inactive)
REMARK    1  A    between atoms: N1_2  and  C3_4 
REMARK    2  A    between atoms: C3_4  and  C4_5 
REMARK    3  A    between atoms: C5_6  and  C6_7 
REMARK       I    between atoms: C6_7  and  N2_9 
REMARK    4  A    between atoms: N2_9  and  C7_10 
REMARK    5  A    between atoms: C9_12  and  N3_13 
REMARK    6  A    between atoms: N3_13  and  C10_14 
REMARK    7  A    between atoms: C18_24  and  C19_25 
ROOT
HETATM    1  C7  UNL     1      24.882   4.654  50.591  1.00  0.00     0.044 C 
HETATM    2  C8  UNL     1      24.782   3.448  51.213  1.00  0.00     0.059 C 
HETATM    3  C9  UNL     1      23.750   2.853  52.128  1.00  0.00     0.153 C 
HETATM    4  C16 UNL     1      23.208   4.190  52.785  1.00  0.00     0.118 C 
HETATM    5  C17 UNL     1      22.848   4.781  51.414  1.00  0.00     0.023 C 
HETATM    6  C18 UNL     1      23.656   5.537  50.692  1.00  0.00    -0.003 C 
HETATM    7  N4  UNL     1      21.566   4.422  50.823  1.00  0.00    -0.354 N 
HETATM    8  C23 UNL     1      21.584   2.956  50.972  1.00  0.00     0.204 C 
HETATM    9  N5  UNL     1      22.586   2.325  51.513  1.00  0.00    -0.248 NA
HETATM   10  H26 UNL     1      21.057   5.233  50.463  1.00  0.00     0.166 HD
ENDROOT
BRANCH   1  11
HETATM   11  N2  UNL     1      25.987   5.208  49.896  1.00  0.00    -0.323 N 
HETATM   12  C6  UNL     1      26.964   4.431  49.221  1.00  0.00     0.245 C 
HETATM   13  O1  UNL     1      27.071   3.185  49.094  1.00  0.00    -0.268 OA
HETATM   14  H11 UNL     1      26.044   6.246  49.910  1.00  0.00     0.169 HD
BRANCH  12  15
HETATM   15  C5  UNL     1      28.030   5.163  48.553  1.00  0.00     0.072 C 
HETATM   16  C4  UNL     1      28.102   6.423  48.114  1.00  0.00     0.008 C 
BRANCH  16  17
HETATM   17  C3  UNL     1      29.099   7.275  47.435  1.00  0.00     0.299 C 
BRANCH  17  18
HETATM   18  N1  UNL     1      29.574   8.315  48.333  1.00  0.00     0.083 N 
HETATM   19  C1  UNL     1      30.812   7.820  48.904  1.00  0.00     0.309 C 
HETATM   20  C2  UNL     1      29.817   9.478  47.483  1.00  0.00     0.309 C 
ENDBRANCH  17  18
ENDBRANCH  16  17
ENDBRANCH  12  15
ENDBRANCH   1  11
BRANCH   6  21
HETATM   21  C19 UNL     1      23.329   6.848  50.193  1.00  0.00     0.049 C 
HETATM   22  C20 UNL     1      23.458   6.989  48.719  1.00  0.00     0.038 C 
HETATM   23  C21 UNL     1      24.510   7.994  48.491  1.00  0.00     0.168 C 
HETATM   24  O2  UNL     1      24.464   8.821  49.609  1.00  0.00    -0.390 OA
HETATM   25  C22 UNL     1      24.241   7.905  50.681  1.00  0.00     0.177 C 
ENDBRANCH   6  21
BRANCH   3  26
HETATM   26  N3  UNL     1      24.308   2.098  53.193  1.00  0.00    -0.358 N 
HETATM   27  H13 UNL     1      23.741   2.142  54.092  1.00  0.00     0.162 HD
BRANCH  26  28
HETATM   28  C10 UNL     1      25.467   1.328  53.216  1.00  0.00     0.032 A 
HETATM   29  C11 UNL     1      25.483   0.032  52.697  1.00  0.00     0.032 A 
HETATM   30  C12 UNL     1      26.601  -0.771  52.702  1.00  0.00     0.046 A 
HETATM   31  C13 UNL     1      27.763  -0.273  53.246  1.00  0.00     0.138 A 
HETATM   32  F1  UNL     1      28.838  -1.091  53.231  1.00  0.00    -0.204 F 
HETATM   33  C14 UNL     1      27.848   1.001  53.786  1.00  0.00     0.074 A 
HETATM   34 CL1  UNL     1      29.328   1.611  54.470  1.00  0.00    -0.081 Cl
HETATM   35  C15 UNL     1      26.675   1.708  53.727  1.00  0.00     0.056 A 
ENDBRANCH  26  28
ENDBRANCH   3  26
TORSDOF 7
ENDMDL
MODEL 3
REMARK VINA RESULT:      -8.2      1.913      2.414
REMARK  7 active torsions:
REMARK  status: ('A' for Active; 'I' for Inactive)
REMARK    1  A    between atoms: N1_2  and  C3_4 
REMARK    2  A    between atoms: C3_4  and  C4_5 
REMARK    3  A    between atoms: C5_6  and  C6_7 
REMARK       I    between atoms: C6_7  and  N2_9 
REMARK    4  A    between atoms: N2_9  and  C7_10 
REMARK    5  A    between atoms: C9_12  and  N3_13 
REMARK    6  A    between atoms: N3_13  and  C10_14 
REMARK    7  A    between atoms: C18_24  and  C19_25 
ROOT
HETATM    1  C7  UNL     1      24.123   3.135  50.458  1.00  0.00     0.044 C 
HETATM    2  C8  UNL     1      24.250   1.928  51.074  1.00  0.00     0.059 C 
HETATM    3  C9  UNL     1      23.410   1.205  52.087  1.00  0.00     0.153 C 
HETATM    4  C16 UNL     1      22.772   2.462  52.815  1.00  0.00     0.118 C 
HETATM    5  C17 UNL     1      22.192   2.996  51.497  1.00  0.00     0.023 C 
HETATM    6  C18 UNL     1      22.811   3.850  50.700  1.00  0.00    -0.003 C 
HETATM    7  N4  UNL     1      20.911   2.471  51.044  1.00  0.00    -0.354 N 
HETATM    8  C23 UNL     1      21.136   1.020  51.173  1.00  0.00     0.204 C 
HETATM    9  N5  UNL     1      22.265   0.528  51.596  1.00  0.00    -0.248 NA
HETATM   10  H26 UNL     1      20.264   3.207  50.751  1.00  0.00     0.166 HD
ENDROOT
BRANCH   1  11
HETATM   11  N2  UNL     1      25.065   3.827  49.654  1.00  0.00    -0.323 N 
HETATM   12  C6  UNL     1      26.469   3.752  49.845  1.00  0.00     0.245 C 
HETATM   13  O1  UNL     1      27.146   3.118  50.693  1.00  0.00    -0.268 OA
HETATM   14  H11 UNL     1      24.658   4.409  48.896  1.00  0.00     0.169 HD
BRANCH  12  15
HETATM   15  C5  UNL     1      27.293   4.523  48.925  1.00  0.00     0.072 C 
HETATM   16  C4  UNL     1      27.298   5.823  48.614  1.00  0.00     0.008 C 
BRANCH  16  17
HETATM   17  C3  UNL     1      28.062   6.717  47.720  1.00  0.00     0.299 C 
BRANCH  17  18
HETATM   18  N1  UNL     1      27.557   8.077  47.808  1.00  0.00     0.083 N 
HETATM   19  C1  UNL     1      26.351   8.113  47.005  1.00  0.00     0.309 C 
HETATM   20  C2  UNL     1      27.253   8.285  49.222  1.00  0.00     0.309 C 
ENDBRANCH  17  18
ENDBRANCH  16  17
ENDBRANCH  12  15
ENDBRANCH   1  11
BRANCH   6  21
HETATM   21  C19 UNL     1      22.263   5.105  50.255  1.00  0.00     0.049 C 
HETATM   22  C20 UNL     1      22.296   5.296  48.781  1.00  0.00     0.038 C 
HETATM   23  C21 UNL     1      23.169   6.455  48.534  1.00  0.00     0.168 C 
HETATM   24  O2  UNL     1      23.053   7.241  49.676  1.00  0.00    -0.390 OA
HETATM   25  C22 UNL     1      23.027   6.279  50.731  1.00  0.00     0.177 C 
ENDBRANCH   6  21
BRANCH   3  26
HETATM   26  N3  UNL     1      24.174   0.533  53.078  1.00  0.00    -0.358 N 
HETATM   27  H13 UNL     1      23.591   0.142  53.876  1.00  0.00     0.162 HD
BRANCH  26  28
HETATM   28  C10 UNL     1      25.549   0.323  53.139  1.00  0.00     0.032 A 
HETATM   29  C11 UNL     1      26.101  -0.930  52.864  1.00  0.00     0.032 A 
HETATM   30  C12 UNL     1      27.451  -1.189  52.918  1.00  0.00     0.046 A 
HETATM   31  C13 UNL     1      28.303  -0.163  53.260  1.00  0.00     0.138 A 
HETATM   32  F1  UNL     1      29.620  -0.457  53.301  1.00  0.00    -0.204 F 
HETATM   33  C14 UNL     1      27.851   1.115  53.551  1.00  0.00     0.074 A 
HETATM   34 CL1  UNL     1      28.946   2.398  53.982  1.00  0.00    -0.081 Cl
HETATM   35  C15 UNL     1      26.491   1.256  53.466  1.00  0.00     0.056 A 
ENDBRANCH  26  28
ENDBRANCH   3  26
TORSDOF 7
ENDMDL
MODEL 4
REMARK VINA RESULT:      -8.0      4.194      8.152
REMARK  7 active torsions:
REMARK  status: ('A' for Active; 'I' for Inactive)
REMARK    1  A    between atoms: N1_2  and  C3_4 
REMARK    2  A    between atoms: C3_4  and  C4_5 
REMARK    3  A    between atoms: C5_6  and  C6_7 
REMARK       I    between atoms: C6_7  and  N2_9 
REMARK    4  A    between atoms: N2_9  and  C7_10 
REMARK    5  A    between atoms: C9_12  and  N3_13 
REMARK    6  A    between atoms: N3_13  and  C10_14 
REMARK    7  A    between atoms: C18_24  and  C19_25 
ROOT
HETATM    1  C7  UNL     1      21.856   1.602  51.620  1.00  0.00     0.044 C 
HETATM    2  C8  UNL     1      23.189   1.698  51.881  1.00  0.00     0.059 C 
HETATM    3  C9  UNL     1      24.240   2.693  51.477  1.00  0.00     0.153 C 
HETATM    4  C16 UNL     1      23.614   3.160  50.097  1.00  0.00     0.118 C 
HETATM    5  C17 UNL     1      22.302   3.582  50.776  1.00  0.00     0.023 C 
HETATM    6  C18 UNL     1      21.248   2.796  50.916  1.00  0.00    -0.003 C 
HETATM    7  N4  UNL     1      22.232   4.905  51.382  1.00  0.00    -0.354 N 
HETATM    8  C23 UNL     1      23.470   4.917  52.182  1.00  0.00     0.204 C 
HETATM    9  N5  UNL     1      24.286   3.903  52.214  1.00  0.00    -0.248 NA
HETATM   10  H26 UNL     1      21.381   5.411  51.125  1.00  0.00     0.166 HD
ENDROOT
BRANCH   1  11
HETATM   11  N2  UNL     1      20.974   0.524  51.883  1.00  0.00    -0.323 N 
HETATM   12  C6  UNL     1      20.450   0.230  53.169  1.00  0.00     0.245 C 
HETATM   13  O1  UNL     1      20.632   0.799  54.275  1.00  0.00    -0.268 OA
HETATM   14  H11 UNL     1      20.724  -0.056  51.058  1.00  0.00     0.169 HD
BRANCH  12  15
HETATM   15  C5  UNL     1      19.551  -0.912  53.260  1.00  0.00     0.072 C 
HETATM   16  C4  UNL     1      18.237  -1.026  53.047  1.00  0.00     0.008 C 
BRANCH  16  17
HETATM   17  C3  UNL     1      17.223  -2.098  53.100  1.00  0.00     0.299 C 
BRANCH  17  18
HETATM   18  N1  UNL     1      15.958  -1.629  52.561  1.00  0.00     0.083 N 
HETATM   19  C1  UNL     1      16.273  -0.966  51.310  1.00  0.00     0.309 C 
HETATM   20  C2  UNL     1      15.165  -2.835  52.330  1.00  0.00     0.309 C 
ENDBRANCH  17  18
ENDBRANCH  16  17
ENDBRANCH  12  15
ENDBRANCH   1  11
BRANCH   6  21
HETATM   21  C19 UNL     1      19.918   3.116  50.467  1.00  0.00     0.049 C 
HETATM   22  C20 UNL     1      18.947   3.368  51.565  1.00  0.00     0.038 C 
HETATM   23  C21 UNL     1      17.917   2.323  51.452  1.00  0.00     0.168 C 
HETATM   24  O2  UNL     1      17.886   1.993  50.101  1.00  0.00    -0.390 OA
HETATM   25  C22 UNL     1      19.266   2.011  49.732  1.00  0.00     0.177 C 
ENDBRANCH   6  21
BRANCH   3  26
HETATM   26  N3  UNL     1      25.486   2.095  51.152  1.00  0.00    -0.358 N 
HETATM   27  H13 UNL     1      25.772   2.226  50.136  1.00  0.00     0.162 HD
BRANCH  26  28
HETATM   28  C10 UNL     1      26.361   1.379  51.966  1.00  0.00     0.032 A 
HETATM   29  C11 UNL     1      27.220   2.032  52.852  1.00  0.00     0.032 A 
HETATM   30  C12 UNL     1      28.105   1.370  53.671  1.00  0.00     0.046 A 
HETATM   31  C13 UNL     1      28.149  -0.004  53.616  1.00  0.00     0.138 A 
HETATM   32  F1  UNL     1      29.030  -0.616  54.436  1.00  0.00    -0.204 F 
HETATM   33  C14 UNL     1      27.336  -0.742  52.769  1.00  0.00     0.074 A 
HETATM   34 CL1  UNL     1      27.408  -2.481  52.714  1.00  0.00    -0.081 Cl
HETATM   35  C15 UNL     1      26.496   0.021  52.001  1.00  0.00     0.056 A 
ENDBRANCH  26  28
ENDBRANCH   3  26
TORSDOF 7
ENDMDL
MODEL 5
REMARK VINA RESULT:      -8.0      4.991      9.497
REMARK  7 active torsions:
REMARK  status: ('A' for Active; 'I' for Inactive)
REMARK    1  A    between atoms: N1_2  and  C3_4 
REMARK    2  A    between atoms: C3_4  and  C4_5 
REMARK    3  A    between atoms: C5_6  and  C6_7 
REMARK       I    between atoms: C6_7  and  N2_9 
REMARK    4  A    between atoms: N2_9  and  C7_10 
REMARK    5  A    between atoms: C9_12  and  N3_13 
REMARK    6  A    between atoms: N3_13  and  C10_14 
REMARK    7  A    between atoms: C18_24  and  C19_25 
ROOT
HETATM    1  C7  UNL     1      22.943   1.241  51.511  1.00  0.00     0.044 C 
HETATM    2  C8  UNL     1      23.650   2.331  51.107  1.00  0.00     0.059 C 
HETATM    3  C9  UNL     1      24.901   2.985  51.621  1.00  0.00     0.153 C 
HETATM    4  C16 UNL     1      24.779   2.575  53.148  1.00  0.00     0.118 C 
HETATM    5  C17 UNL     1      24.718   1.081  52.797  1.00  0.00     0.023 C 
HETATM    6  C18 UNL     1      23.599   0.408  52.591  1.00  0.00    -0.003 C 
HETATM    7  N4  UNL     1      25.972   0.368  52.592  1.00  0.00    -0.354 N 
HETATM    8  C23 UNL     1      26.669   1.278  51.665  1.00  0.00     0.204 C 
HETATM    9  N5  UNL     1      26.131   2.387  51.245  1.00  0.00    -0.248 NA
HETATM   10  H26 UNL     1      26.004  -0.524  53.091  1.00  0.00     0.166 HD
ENDROOT
BRANCH   1  11
HETATM   11  N2  UNL     1      21.663   0.804  51.085  1.00  0.00    -0.323 N 
HETATM   12  C6  UNL     1      20.453   1.466  51.418  1.00  0.00     0.245 C 
HETATM   13  O1  UNL     1      20.249   2.497  52.107  1.00  0.00    -0.268 OA
HETATM   14  H11 UNL     1      21.660  -0.054  50.499  1.00  0.00     0.169 HD
BRANCH  12  15
HETATM   15  C5  UNL     1      19.226   0.885  50.892  1.00  0.00     0.072 C 
HETATM   16  C4  UNL     1      18.277   0.142  51.468  1.00  0.00     0.008 C 
BRANCH  16  17
HETATM   17  C3  UNL     1      17.010  -0.499  51.061  1.00  0.00     0.299 C 
BRANCH  17  18
HETATM   18  N1  UNL     1      16.367  -1.127  52.203  1.00  0.00     0.083 N 
HETATM   19  C1  UNL     1      17.427  -1.435  53.144  1.00  0.00     0.309 C 
HETATM   20  C2  UNL     1      15.464  -0.113  52.744  1.00  0.00     0.309 C 
ENDBRANCH  17  18
ENDBRANCH  16  17
ENDBRANCH  12  15
ENDBRANCH   1  11
BRANCH   6  21
HETATM   21  C19 UNL     1      23.223  -0.795  53.288  1.00  0.00     0.049 C 
HETATM   22  C20 UNL     1      21.756  -0.975  53.446  1.00  0.00     0.038 C 
HETATM   23  C21 UNL     1      21.492  -0.957  54.894  1.00  0.00     0.168 C 
HETATM   24  O2  UNL     1      22.661  -1.435  55.478  1.00  0.00    -0.390 OA
HETATM   25  C22 UNL     1      23.687  -0.828  54.691  1.00  0.00     0.177 C 
ENDBRANCH   6  21
BRANCH   3  26
HETATM   26  N3  UNL     1      24.847   4.404  51.597  1.00  0.00    -0.358 N 
HETATM   27  H13 UNL     1      25.344   4.865  52.417  1.00  0.00     0.162 HD
BRANCH  26  28
HETATM   28  C10 UNL     1      24.247   5.248  50.667  1.00  0.00     0.032 A 
HETATM   29  C11 UNL     1      24.757   5.377  49.374  1.00  0.00     0.032 A 
HETATM   30  C12 UNL     1      24.205   6.202  48.422  1.00  0.00     0.046 A 
HETATM   31  C13 UNL     1      23.092   6.940  48.759  1.00  0.00     0.138 A 
HETATM   32  F1  UNL     1      22.580   7.736  47.797  1.00  0.00    -0.204 F 
HETATM   33  C14 UNL     1      22.512   6.881  50.017  1.00  0.00     0.074 A 
HETATM   34 CL1  UNL     1      21.105   7.822  50.422  1.00  0.00    -0.081 Cl
HETATM   35  C15 UNL     1      23.146   6.028  50.882  1.00  0.00     0.056 A 
ENDBRANCH  26  28
ENDBRANCH   3  26
TORSDOF 7
ENDMDL
MODEL 6
REMARK VINA RESULT:      -7.9      4.209      7.093
REMARK  7 active torsions:
REMARK  status: ('A' for Active; 'I' for Inactive)
REMARK    1  A    between atoms: N1_2  and  C3_4 
REMARK    2  A    between atoms: C3_4  and  C4_5 
REMARK    3  A    between atoms: C5_6  and  C6_7 
REMARK       I    between atoms: C6_7  and  N2_9 
REMARK    4  A    between atoms: N2_9  and  C7_10 
REMARK    5  A    between atoms: C9_12  and  N3_13 
REMARK    6  A    between atoms: N3_13  and  C10_14 
REMARK    7  A    between atoms: C18_24  and  C19_25 
ROOT
HETATM    1  C7  UNL     1      23.872   1.197  52.566  1.00  0.00     0.044 C 
HETATM    2  C8  UNL     1      22.525   1.381  52.518  1.00  0.00     0.059 C 
HETATM    3  C9  UNL     1      21.360   0.487  52.835  1.00  0.00     0.153 C 
HETATM    4  C16 UNL     1      22.033  -0.912  52.513  1.00  0.00     0.118 C 
HETATM    5  C17 UNL     1      23.168  -0.656  53.516  1.00  0.00     0.023 C 
HETATM    6  C18 UNL     1      24.325  -0.098  53.206  1.00  0.00    -0.003 C 
HETATM    7  N4  UNL     1      22.933  -0.968  54.919  1.00  0.00    -0.354 N 
HETATM    8  C23 UNL     1      21.636  -0.305  55.145  1.00  0.00     0.204 C 
HETATM    9  N5  UNL     1      21.018   0.350  54.205  1.00  0.00    -0.248 NA
HETATM   10  H26 UNL     1      23.700  -1.499  55.339  1.00  0.00     0.166 HD
ENDROOT
BRANCH   1  11
HETATM   11  N2  UNL     1      24.902   2.032  52.066  1.00  0.00    -0.323 N 
HETATM   12  C6  UNL     1      24.841   2.693  50.811  1.00  0.00     0.245 C 
HETATM   13  O1  UNL     1      23.945   2.691  49.930  1.00  0.00    -0.268 OA
HETATM   14  H11 UNL     1      25.729   2.137  52.686  1.00  0.00     0.169 HD
BRANCH  12  15
HETATM   15  C5  UNL     1      25.986   3.520  50.454  1.00  0.00     0.072 C 
HETATM   16  C4  UNL     1      26.339   4.097  49.302  1.00  0.00     0.008 C 
BRANCH  16  17
HETATM   17  C3  UNL     1      27.447   4.942  48.812  1.00  0.00     0.299 C 
BRANCH  17  18
HETATM   18  N1  UNL     1      27.113   6.350  48.954  1.00  0.00     0.083 N 
HETATM   19  C1  UNL     1      28.098   7.078  48.178  1.00  0.00     0.309 C 
HETATM   20  C2  UNL     1      25.779   6.491  48.374  1.00  0.00     0.309 C 
ENDBRANCH  17  18
ENDBRANCH  16  17
ENDBRANCH  12  15
ENDBRANCH   1  11
BRANCH   6  21
HETATM   21  C19 UNL     1      25.615  -0.683  53.466  1.00  0.00     0.049 C 
HETATM   22  C20 UNL     1      26.388  -0.002  54.538  1.00  0.00     0.038 C 
HETATM   23  C21 UNL     1      27.601   0.532  53.897  1.00  0.00     0.168 C 
HETATM   24  O2  UNL     1      27.849  -0.324  52.829  1.00  0.00    -0.390 OA
HETATM   25  C22 UNL     1      26.543  -0.591  52.317  1.00  0.00     0.177 C 
ENDBRANCH   6  21
BRANCH   3  26
HETATM   26  N3  UNL     1      20.283   0.617  51.918  1.00  0.00    -0.358 N 
HETATM   27  H13 UNL     1      19.456  -0.016  52.136  1.00  0.00     0.162 HD
BRANCH  26  28
HETATM   28  C10 UNL     1      20.169   1.442  50.802  1.00  0.00     0.032 A 
HETATM   29  C11 UNL     1      20.789   1.113  49.595  1.00  0.00     0.032 A 
HETATM   30  C12 UNL     1      20.712   1.897  48.468  1.00  0.00     0.046 A 
HETATM   31  C13 UNL     1      19.988   3.066  48.530  1.00  0.00     0.138 A 
HETATM   32  F1  UNL     1      19.936   3.807  47.402  1.00  0.00    -0.204 F 
HETATM   33  C14 UNL     1      19.336   3.479  49.682  1.00  0.00     0.074 A 
HETATM   34 CL1  UNL     1      18.425   4.961  49.739  1.00  0.00    -0.081 Cl
HETATM   35  C15 UNL     1      19.483   2.621  50.740  1.00  0.00     0.056 A 
ENDBRANCH  26  28
ENDBRANCH   3  26
TORSDOF 7
ENDMDL
MODEL 7
REMARK VINA RESULT:      -7.7      2.376      3.388
REMARK  7 active torsions:
REMARK  status: ('A' for Active; 'I' for Inactive)
REMARK    1  A    between atoms: N1_2  and  C3_4 
REMARK    2  A    between atoms: C3_4  and  C4_5 
REMARK    3  A    between atoms: C5_6  and  C6_7 
REMARK       I    between atoms: C6_7  and  N2_9 
REMARK    4  A    between atoms: N2_9  and  C7_10 
REMARK    5  A    between atoms: C9_12  and  N3_13 
REMARK    6  A    between atoms: N3_13  and  C10_14 
REMARK    7  A    between atoms: C18_24  and  C19_25 
ROOT
HETATM    1  C7  UNL     1      26.779   6.025  48.499  1.00  0.00     0.044 C 
HETATM    2  C8  UNL     1      26.754   4.835  49.159  1.00  0.00     0.059 C 
HETATM    3  C9  UNL     1      25.711   4.155  49.999  1.00  0.00     0.153 C 
HETATM    4  C16 UNL     1      24.964   5.441  50.549  1.00  0.00     0.118 C 
HETATM    5  C17 UNL     1      24.674   5.944  49.127  1.00  0.00     0.023 C 
HETATM    6  C18 UNL     1      25.459   6.765  48.451  1.00  0.00    -0.003 C 
HETATM    7  N4  UNL     1      23.501   5.425  48.437  1.00  0.00    -0.354 N 
HETATM    8  C23 UNL     1      23.667   3.975  48.647  1.00  0.00     0.204 C 
HETATM    9  N5  UNL     1      24.676   3.480  49.303  1.00  0.00    -0.248 NA
HETATM   10  H26 UNL     1      22.943   6.161  47.999  1.00  0.00     0.166 HD
ENDROOT
BRANCH   1  11
HETATM   11  N2  UNL     1      27.877   6.679  47.886  1.00  0.00    -0.323 N 
HETATM   12  C6  UNL     1      29.213   6.202  47.947  1.00  0.00     0.245 C 
HETATM   13  O1  UNL     1      29.692   5.185  48.508  1.00  0.00    -0.268 OA
HETATM   14  H11 UNL     1      27.644   7.553  47.375  1.00  0.00     0.169 HD
BRANCH  12  15
HETATM   15  C5  UNL     1      30.219   6.995  47.255  1.00  0.00     0.072 C 
HETATM   16  C4  UNL     1      31.489   7.280  47.559  1.00  0.00     0.008 C 
BRANCH  16  17
HETATM   17  C3  UNL     1      32.596   8.052  46.961  1.00  0.00     0.299 C 
BRANCH  17  18
HETATM   18  N1  UNL     1      33.855   7.343  47.121  1.00  0.00     0.083 N 
HETATM   19  C1  UNL     1      33.919   6.942  48.512  1.00  0.00     0.309 C 
HETATM   20  C2  UNL     1      33.757   6.179  46.243  1.00  0.00     0.309 C 
ENDBRANCH  17  18
ENDBRANCH  16  17
ENDBRANCH  12  15
ENDBRANCH   1  11
BRANCH   6  21
HETATM   21  C19 UNL     1      25.039   8.014  47.871  1.00  0.00     0.049 C 
HETATM   22  C20 UNL     1      25.269   8.115  46.405  1.00  0.00     0.038 C 
HETATM   23  C21 UNL     1      26.225   9.217  46.213  1.00  0.00     0.168 C 
HETATM   24  O2  UNL     1      26.005  10.075  47.285  1.00  0.00    -0.390 OA
HETATM   25  C22 UNL     1      25.794   9.180  48.378  1.00  0.00     0.177 C 
ENDBRANCH   6  21
BRANCH   3  26
HETATM   26  N3  UNL     1      26.245   3.501  51.141  1.00  0.00    -0.358 N 
HETATM   27  H13 UNL     1      27.123   3.961  51.526  1.00  0.00     0.162 HD
BRANCH  26  28
HETATM   28  C10 UNL     1      25.782   2.369  51.807  1.00  0.00     0.032 A 
HETATM   29  C11 UNL     1      24.597   2.399  52.544  1.00  0.00     0.032 A 
HETATM   30  C12 UNL     1      24.102   1.310  53.224  1.00  0.00     0.046 A 
HETATM   31  C13 UNL     1      24.810   0.130  53.176  1.00  0.00     0.138 A 
HETATM   32  F1  UNL     1      24.290  -0.915  53.855  1.00  0.00    -0.204 F 
HETATM   33  C14 UNL     1      25.996   0.000  52.471  1.00  0.00     0.074 A 
HETATM   34 CL1  UNL     1      26.875  -1.501  52.424  1.00  0.00    -0.081 Cl
HETATM   35  C15 UNL     1      26.392   1.147  51.835  1.00  0.00     0.056 A 
ENDBRANCH  26  28
ENDBRANCH   3  26
TORSDOF 7
ENDMDL
MODEL 8
REMARK VINA RESULT:      -7.6      2.297      3.132
REMARK  7 active torsions:
REMARK  status: ('A' for Active; 'I' for Inactive)
REMARK    1  A    between atoms: N1_2  and  C3_4 
REMARK    2  A    between atoms: C3_4  and  C4_5 
REMARK    3  A    between atoms: C5_6  and  C6_7 
REMARK       I    between atoms: C6_7  and  N2_9 
REMARK    4  A    between atoms: N2_9  and  C7_10 
REMARK    5  A    between atoms: C9_12  and  N3_13 
REMARK    6  A    between atoms: N3_13  and  C10_14 
REMARK    7  A    between atoms: C18_24  and  C19_25 
ROOT
HETATM    1  C7  UNL     1      26.086   5.873  49.265  1.00  0.00     0.044 C 
HETATM    2  C8  UNL     1      25.938   4.724  49.979  1.00  0.00     0.059 C 
HETATM    3  C9  UNL     1      24.741   4.037  50.572  1.00  0.00     0.153 C 
HETATM    4  C16 UNL     1      23.828   5.309  50.820  1.00  0.00     0.118 C 
HETATM    5  C17 UNL     1      23.895   5.711  49.340  1.00  0.00     0.023 C 
HETATM    6  C18 UNL     1      24.795   6.534  48.830  1.00  0.00    -0.003 C 
HETATM    7  N4  UNL     1      22.961   5.087  48.412  1.00  0.00    -0.354 N 
HETATM    8  C23 UNL     1      23.124   3.664  48.759  1.00  0.00     0.204 C 
HETATM    9  N5  UNL     1      23.948   3.265  49.685  1.00  0.00    -0.248 NA
HETATM   10  H26 UNL     1      22.507   5.765  47.795  1.00  0.00     0.166 HD
ENDROOT
BRANCH   1  11
HETATM   11  N2  UNL     1      27.278   6.551  48.908  1.00  0.00    -0.323 N 
HETATM   12  C6  UNL     1      28.447   5.896  48.438  1.00  0.00     0.245 C 
HETATM   13  O1  UNL     1      28.679   4.675  48.248  1.00  0.00    -0.268 OA
HETATM   14  H11 UNL     1      27.250   7.584  49.012  1.00  0.00     0.169 HD
BRANCH  12  15
HETATM   15  C5  UNL     1      29.582   6.746  48.109  1.00  0.00     0.072 C 
HETATM   16  C4  UNL     1      29.672   8.062  47.893  1.00  0.00     0.008 C 
BRANCH  16  17
HETATM   17  C3  UNL     1      30.736   9.032  47.560  1.00  0.00     0.299 C 
BRANCH  17  18
HETATM   18  N1  UNL     1      30.205  10.385  47.551  1.00  0.00     0.083 N 
HETATM   19  C1  UNL     1      29.266  10.443  46.449  1.00  0.00     0.309 C 
HETATM   20  C2  UNL     1      29.520  10.540  48.833  1.00  0.00     0.309 C 
ENDBRANCH  17  18
ENDBRANCH  16  17
ENDBRANCH  12  15
ENDBRANCH   1  11
BRANCH   6  21
HETATM   21  C19 UNL     1      24.490   7.722  48.075  1.00  0.00     0.049 C 
HETATM   22  C20 UNL     1      23.445   8.583  48.689  1.00  0.00     0.038 C 
HETATM   23  C21 UNL     1      22.319   8.605  47.741  1.00  0.00     0.168 C 
HETATM   24  O2  UNL     1      22.899   8.416  46.490  1.00  0.00    -0.390 OA
HETATM   25  C22 UNL     1      23.907   7.437  46.746  1.00  0.00     0.177 C 
ENDBRANCH   6  21
BRANCH   3  26
HETATM   26  N3  UNL     1      24.987   3.482  51.856  1.00  0.00    -0.358 N 
HETATM   27  H13 UNL     1      24.954   4.195  52.644  1.00  0.00     0.162 HD
BRANCH  26  28
HETATM   28  C10 UNL     1      25.257   2.163  52.210  1.00  0.00     0.032 A 
HETATM   29  C11 UNL     1      26.431   1.530  51.795  1.00  0.00     0.032 A 
HETATM   30  C12 UNL     1      26.741   0.228  52.113  1.00  0.00     0.046 A 
HETATM   31  C13 UNL     1      25.850  -0.490  52.879  1.00  0.00     0.138 A 
HETATM   32  F1  UNL     1      26.191  -1.764  53.170  1.00  0.00    -0.204 F 
HETATM   33  C14 UNL     1      24.659   0.050  53.338  1.00  0.00     0.074 A 
HETATM   34 CL1  UNL     1      23.546  -0.876  54.305  1.00  0.00    -0.081 Cl
HETATM   35  C15 UNL     1      24.456   1.351  52.961  1.00  0.00     0.056 A 
ENDBRANCH  26  28
ENDBRANCH   3  26
TORSDOF 7
ENDMDL
MODEL 9
REMARK VINA RESULT:      -7.6      3.644      4.248
REMARK  7 active torsions:
REMARK  status: ('A' for Active; 'I' for Inactive)
REMARK    1  A    between atoms: N1_2  and  C3_4 
REMARK    2  A    between atoms: C3_4  and  C4_5 
REMARK    3  A    between atoms: C5_6  and  C6_7 
REMARK       I    between atoms: C6_7  and  N2_9 
REMARK    4  A    between atoms: N2_9  and  C7_10 
REMARK    5  A    between atoms: C9_12  and  N3_13 
REMARK    6  A    between atoms: N3_13  and  C10_14 
REMARK    7  A    between atoms: C18_24  and  C19_25 
ROOT
HETATM    1  C7  UNL     1      24.091   4.592  49.525  1.00  0.00     0.044 C 
HETATM    2  C8  UNL     1      23.523   3.355  49.500  1.00  0.00     0.059 C 
HETATM    3  C9  UNL     1      22.393   2.734  50.271  1.00  0.00     0.153 C 
HETATM    4  C16 UNL     1      22.517   3.580  51.607  1.00  0.00     0.118 C 
HETATM    5  C17 UNL     1      22.361   4.904  50.845  1.00  0.00     0.023 C 
HETATM    6  C18 UNL     1      23.369   5.617  50.373  1.00  0.00    -0.003 C 
HETATM    7  N4  UNL     1      21.015   5.373  50.543  1.00  0.00    -0.354 N 
HETATM    8  C23 UNL     1      20.413   4.157  49.966  1.00  0.00     0.204 C 
HETATM    9  N5  UNL     1      21.080   3.047  49.837  1.00  0.00    -0.248 NA
HETATM   10  H26 UNL     1      20.882   6.361  50.771  1.00  0.00     0.166 HD
ENDROOT
BRANCH   1  11
HETATM   11  N2  UNL     1      25.281   5.036  48.897  1.00  0.00    -0.323 N 
HETATM   12  C6  UNL     1      26.574   4.546  49.221  1.00  0.00     0.245 C 
HETATM   13  O1  UNL     1      26.933   3.685  50.064  1.00  0.00    -0.268 OA
HETATM   14  H11 UNL     1      25.153   5.763  48.166  1.00  0.00     0.169 HD
BRANCH  12  15
HETATM   15  C5  UNL     1      27.689   5.108  48.473  1.00  0.00     0.072 C 
HETATM   16  C4  UNL     1      28.143   6.360  48.364  1.00  0.00     0.008 C 
BRANCH  16  17
HETATM   17  C3  UNL     1      29.239   7.054  47.657  1.00  0.00     0.299 C 
BRANCH  17  18
HETATM   18  N1  UNL     1      28.742   8.249  46.997  1.00  0.00     0.083 N 
HETATM   19  C1  UNL     1      28.037   9.007  48.011  1.00  0.00     0.309 C 
HETATM   20  C2  UNL     1      29.934   8.963  46.542  1.00  0.00     0.309 C 
ENDBRANCH  17  18
ENDBRANCH  16  17
ENDBRANCH  12  15
ENDBRANCH   1  11
BRANCH   6  21
HETATM   21  C19 UNL     1      23.605   7.006  50.672  1.00  0.00     0.049 C 
HETATM   22  C20 UNL     1      23.196   7.940  49.589  1.00  0.00     0.038 C 
HETATM   23  C21 UNL     1      24.425   8.611  49.137  1.00  0.00     0.168 C 
HETATM   24  O2  UNL     1      25.260   8.621  50.250  1.00  0.00    -0.390 OA
HETATM   25  C22 UNL     1      25.037   7.336  50.833  1.00  0.00     0.177 C 
ENDBRANCH   6  21
BRANCH   3  26
HETATM   26  N3  UNL     1      22.638   1.386  50.645  1.00  0.00    -0.358 N 
HETATM   27  H13 UNL     1      23.248   0.855  49.954  1.00  0.00     0.162 HD
BRANCH  26  28
HETATM   28  C10 UNL     1      22.199   0.687  51.765  1.00  0.00     0.032 A 
HETATM   29  C11 UNL     1      23.082   0.332  52.787  1.00  0.00     0.032 A 
HETATM   30  C12 UNL     1      22.698  -0.364  53.910  1.00  0.00     0.046 A 
HETATM   31  C13 UNL     1      21.377  -0.730  54.035  1.00  0.00     0.138 A 
HETATM   32  F1  UNL     1      21.040  -1.411  55.151  1.00  0.00    -0.204 F 
HETATM   33  C14 UNL     1      20.425  -0.425  53.075  1.00  0.00     0.074 A 
HETATM   34 CL1  UNL     1      18.759  -0.898  53.252  1.00  0.00    -0.081 Cl
HETATM   35  C15 UNL     1      20.920   0.269  52.002  1.00  0.00     0.056 A 
ENDBRANCH  26  28
ENDBRANCH   3  26
TORSDOF 7
ENDMDL
