MODEL 1
REMARK VINA RESULT:      -6.8      0.000      0.000
REMARK  6 active torsions:
REMARK  status: ('A' for Active; 'I' for Inactive)
REMARK    1  A    between atoms: C2_2  and  C3_3 
REMARK    2  A    between atoms: C3_3  and  C4_4 
REMARK    3  A    between atoms: C4_4  and  N1_5 
REMARK    4  A    between atoms: N1_5  and  C5_6 
REMARK    5  A    between atoms: C5_6  and  C6_7 
REMARK    6  A    between atoms: C7_8  and  C8_9 
REMARK       I    between atoms: C8_9  and  N2_11 
ROOT
HETATM    1  C8  UNL     1      27.344   1.825  52.122  1.00  0.00     0.245 C 
HETATM    2  O1  UNL     1      28.156   2.739  52.292  1.00  0.00    -0.268 OA
HETATM    3  N2  UNL     1      27.666   0.824  53.079  1.00  0.00    -0.310 N 
HETATM    4  C9  UNL     1      28.788   1.036  53.989  1.00  0.00     0.134 C 
HETATM    5  C10 UNL     1      28.483   0.210  55.219  1.00  0.00     0.059 C 
HETATM    6  C11 UNL     1      27.030   0.002  55.068  1.00  0.00    -0.015 C 
HETATM    7  C12 UNL     1      25.706  -0.130  55.234  1.00  0.00     0.059 C 
HETATM    8  S1  UNL     1      25.114  -0.485  53.528  1.00  0.00    -0.081 SA
HETATM    9  C13 UNL     1      26.577  -1.417  53.145  1.00  0.00     0.132 A 
HETATM   10  N3  UNL     1      27.216  -2.431  52.607  1.00  0.00    -0.234 NA
HETATM   11  C14 UNL     1      28.607  -2.224  52.925  1.00  0.00     0.231 A 
HETATM   12  N4  UNL     1      28.740  -1.164  53.580  1.00  0.00    -0.239 NA
HETATM   13  C15 UNL     1      27.495  -0.493  53.781  1.00  0.00     0.208 A 
ENDROOT
BRANCH   1  14
HETATM   14  C7  UNL     1      26.291   1.828  51.125  1.00  0.00     0.072 C 
HETATM   15  C6  UNL     1      25.338   2.726  51.285  1.00  0.00     0.008 C 
BRANCH  15  16
HETATM   16  C5  UNL     1      24.204   2.805  50.302  1.00  0.00     0.297 C 
BRANCH  16  17
HETATM   17  N1  UNL     1      24.496   3.797  49.315  1.00  0.00     0.086 N 
HETATM   18  H10 UNL     1      25.201   3.404  48.652  1.00  0.00     0.316 HD
BRANCH  17  19
HETATM   19  C4  UNL     1      24.957   5.011  49.920  1.00  0.00     0.270 C 
BRANCH  19  20
HETATM   20  C3  UNL     1      26.063   5.633  49.116  1.00  0.00     0.029 C 
BRANCH  20  21
HETATM   21  C2  UNL     1      27.206   4.633  48.916  1.00  0.00    -0.003 C 
HETATM   22  C1  UNL     1      28.374   5.406  48.356  1.00  0.00     0.005 C 
ENDBRANCH  20  21
ENDBRANCH  19  20
ENDBRANCH  17  19
ENDBRANCH  16  17
ENDBRANCH  15  16
ENDBRANCH   1  14
TORSDOF 6
ENDMDL
MODEL 2
REMARK VINA RESULT:      -6.8      1.975      6.570
REMARK  6 active torsions:
REMARK  status: ('A' for Active; 'I' for Inactive)
REMARK    1  A    between atoms: C2_2  and  C3_3 
REMARK    2  A    between atoms: C3_3  and  C4_4 
REMARK    3  A    between atoms: C4_4  and  N1_5 
REMARK    4  A    between atoms: N1_5  and  C5_6 
REMARK    5  A    between atoms: C5_6  and  C6_7 
REMARK    6  A    between atoms: C7_8  and  C8_9 
REMARK       I    between atoms: C8_9  and  N2_11 
ROOT
HETATM    1  C8  UNL     1      25.944   2.404  51.376  1.00  0.00     0.245 C 
HETATM    2  O1  UNL     1      27.057   2.805  51.023  1.00  0.00    -0.268 OA
HETATM    3  N2  UNL     1      25.001   3.316  50.826  1.00  0.00    -0.310 N 
HETATM    4  C9  UNL     1      25.474   4.446  50.032  1.00  0.00     0.134 C 
HETATM    5  C10 UNL     1      24.338   4.799  49.098  1.00  0.00     0.059 C 
HETATM    6  C11 UNL     1      23.544   3.556  49.136  1.00  0.00    -0.015 C 
HETATM    7  C12 UNL     1      22.799   2.474  48.867  1.00  0.00     0.059 C 
HETATM    8  S1  UNL     1      22.624   1.678  50.516  1.00  0.00    -0.081 SA
HETATM    9  C13 UNL     1      22.563   3.250  51.341  1.00  0.00     0.132 A 
HETATM   10  N3  UNL     1      22.099   4.087  52.241  1.00  0.00    -0.234 NA
HETATM   11  C14 UNL     1      22.826   5.316  52.038  1.00  0.00     0.231 A 
HETATM   12  N4  UNL     1      23.648   5.173  51.104  1.00  0.00    -0.239 NA
HETATM   13  C15 UNL     1      23.624   3.853  50.558  1.00  0.00     0.208 A 
ENDROOT
BRANCH   1  14
HETATM   14  C7  UNL     1      25.707   1.229  52.191  1.00  0.00     0.072 C 
HETATM   15  C6  UNL     1      26.474   0.185  51.946  1.00  0.00     0.008 C 
BRANCH  15  16
HETATM   16  C5  UNL     1      26.302  -1.080  52.741  1.00  0.00     0.297 C 
BRANCH  16  17
HETATM   17  N1  UNL     1      27.315  -1.153  53.747  1.00  0.00     0.086 N 
HETATM   18  H10 UNL     1      27.207  -0.331  54.382  1.00  0.00     0.316 HD
BRANCH  17  19
HETATM   19  C4  UNL     1      28.623  -1.202  53.164  1.00  0.00     0.270 C 
BRANCH  19  20
HETATM   20  C3  UNL     1      29.588  -0.333  53.918  1.00  0.00     0.029 C 
BRANCH  20  21
HETATM   21  C2  UNL     1      28.835   0.748  54.699  1.00  0.00    -0.003 C 
HETATM   22  C1  UNL     1      28.998   2.038  53.934  1.00  0.00     0.005 C 
ENDBRANCH  20  21
ENDBRANCH  19  20
ENDBRANCH  17  19
ENDBRANCH  16  17
ENDBRANCH  15  16
ENDBRANCH   1  14
TORSDOF 6
ENDMDL
MODEL 3
REMARK VINA RESULT:      -6.6      2.019      3.781
REMARK  6 active torsions:
REMARK  status: ('A' for Active; 'I' for Inactive)
REMARK    1  A    between atoms: C2_2  and  C3_3 
REMARK    2  A    between atoms: C3_3  and  C4_4 
REMARK    3  A    between atoms: C4_4  and  N1_5 
REMARK    4  A    between atoms: N1_5  and  C5_6 
REMARK    5  A    between atoms: C5_6  and  C6_7 
REMARK    6  A    between atoms: C7_8  and  C8_9 
REMARK       I    between atoms: C8_9  and  N2_11 
ROOT
HETATM    1  C8  UNL     1      27.004   1.773  51.926  1.00  0.00     0.245 C 
HETATM    2  O1  UNL     1      27.775   2.738  51.909  1.00  0.00    -0.268 OA
HETATM    3  N2  UNL     1      27.532   0.860  52.880  1.00  0.00    -0.310 N 
HETATM    4  C9  UNL     1      28.766   1.193  53.586  1.00  0.00     0.134 C 
HETATM    5  C10 UNL     1      28.707   0.441  54.897  1.00  0.00     0.059 C 
HETATM    6  C11 UNL     1      27.264   0.148  54.991  1.00  0.00    -0.015 C 
HETATM    7  C12 UNL     1      25.992  -0.040  55.372  1.00  0.00     0.059 C 
HETATM    8  S1  UNL     1      25.167  -0.544  53.807  1.00  0.00    -0.081 SA
HETATM    9  C13 UNL     1      26.608  -1.425  53.255  1.00  0.00     0.132 A 
HETATM   10  N3  UNL     1      27.218  -2.439  52.686  1.00  0.00    -0.234 NA
HETATM   11  C14 UNL     1      28.626  -2.139  52.767  1.00  0.00     0.231 A 
HETATM   12  N4  UNL     1      28.792  -1.030  53.326  1.00  0.00    -0.239 NA
HETATM   13  C15 UNL     1      27.554  -0.412  53.680  1.00  0.00     0.208 A 
ENDROOT
BRANCH   1  14
HETATM   14  C7  UNL     1      25.812   1.651  51.110  1.00  0.00     0.072 C 
HETATM   15  C6  UNL     1      24.788   2.405  51.458  1.00  0.00     0.008 C 
BRANCH  15  16
HETATM   16  C5  UNL     1      23.508   2.347  50.671  1.00  0.00     0.297 C 
BRANCH  16  17
HETATM   17  N1  UNL     1      22.435   1.960  51.533  1.00  0.00     0.086 N 
HETATM   18  H10 UNL     1      22.806   1.890  52.507  1.00  0.00     0.316 HD
BRANCH  17  19
HETATM   19  C4  UNL     1      21.841   0.730  51.103  1.00  0.00     0.270 C 
BRANCH  19  20
HETATM   20  C3  UNL     1      21.296  -0.047  52.267  1.00  0.00     0.029 C 
BRANCH  20  21
HETATM   21  C2  UNL     1      21.603   0.675  53.582  1.00  0.00    -0.003 C 
HETATM   22  C1  UNL     1      21.402  -0.327  54.692  1.00  0.00     0.005 C 
ENDBRANCH  20  21
ENDBRANCH  19  20
ENDBRANCH  17  19
ENDBRANCH  16  17
ENDBRANCH  15  16
ENDBRANCH   1  14
TORSDOF 6
ENDMDL
MODEL 4
REMARK VINA RESULT:      -6.2      2.250      7.179
REMARK  6 active torsions:
REMARK  status: ('A' for Active; 'I' for Inactive)
REMARK    1  A    between atoms: C2_2  and  C3_3 
REMARK    2  A    between atoms: C3_3  and  C4_4 
REMARK    3  A    between atoms: C4_4  and  N1_5 
REMARK    4  A    between atoms: N1_5  and  C5_6 
REMARK    5  A    between atoms: C5_6  and  C6_7 
REMARK    6  A    between atoms: C7_8  and  C8_9 
REMARK       I    between atoms: C8_9  and  N2_11 
ROOT
HETATM    1  C8  UNL     1      26.563   3.765  49.584  1.00  0.00     0.245 C 
HETATM    2  O1  UNL     1      27.557   4.188  48.987  1.00  0.00    -0.268 OA
HETATM    3  N2  UNL     1      25.586   4.796  49.509  1.00  0.00    -0.310 N 
HETATM    4  C9  UNL     1      25.909   6.041  48.817  1.00  0.00     0.134 C 
HETATM    5  C10 UNL     1      24.588   6.604  48.342  1.00  0.00     0.059 C 
HETATM    6  C11 UNL     1      23.731   5.404  48.402  1.00  0.00    -0.015 C 
HETATM    7  C12 UNL     1      22.846   4.420  48.187  1.00  0.00     0.059 C 
HETATM    8  S1  UNL     1      23.085   3.330  49.650  1.00  0.00    -0.081 SA
HETATM    9  C13 UNL     1      23.406   4.716  50.713  1.00  0.00     0.132 A 
HETATM   10  N3  UNL     1      23.297   5.381  51.841  1.00  0.00    -0.234 NA
HETATM   11  C14 UNL     1      24.042   6.600  51.644  1.00  0.00     0.231 A 
HETATM   12  N4  UNL     1      24.543   6.611  50.496  1.00  0.00    -0.239 NA
HETATM   13  C15 UNL     1      24.244   5.421  49.764  1.00  0.00     0.208 A 
ENDROOT
BRANCH   1  14
HETATM   14  C7  UNL     1      26.467   2.464  50.217  1.00  0.00     0.072 C 
HETATM   15  C6  UNL     1      26.644   2.437  51.523  1.00  0.00     0.008 C 
BRANCH  15  16
HETATM   16  C5  UNL     1      26.564   1.134  52.268  1.00  0.00     0.297 C 
BRANCH  16  17
HETATM   17  N1  UNL     1      26.835   1.359  53.654  1.00  0.00     0.086 N 
HETATM   18  H10 UNL     1      27.444   2.203  53.737  1.00  0.00     0.316 HD
BRANCH  17  19
HETATM   19  C4  UNL     1      27.437   0.209  54.259  1.00  0.00     0.270 C 
BRANCH  19  20
HETATM   20  C3  UNL     1      28.866   0.478  54.637  1.00  0.00     0.029 C 
BRANCH  20  21
HETATM   21  C2  UNL     1      29.816  -0.148  53.613  1.00  0.00    -0.003 C 
HETATM   22  C1  UNL     1      29.338  -1.560  53.375  1.00  0.00     0.005 C 
ENDBRANCH  20  21
ENDBRANCH  19  20
ENDBRANCH  17  19
ENDBRANCH  16  17
ENDBRANCH  15  16
ENDBRANCH   1  14
TORSDOF 6
ENDMDL
MODEL 5
REMARK VINA RESULT:      -6.1      2.415      6.945
REMARK  6 active torsions:
REMARK  status: ('A' for Active; 'I' for Inactive)
REMARK    1  A    between atoms: C2_2  and  C3_3 
REMARK    2  A    between atoms: C3_3  and  C4_4 
REMARK    3  A    between atoms: C4_4  and  N1_5 
REMARK    4  A    between atoms: N1_5  and  C5_6 
REMARK    5  A    between atoms: C5_6  and  C6_7 
REMARK    6  A    between atoms: C7_8  and  C8_9 
REMARK       I    between atoms: C8_9  and  N2_11 
ROOT
HETATM    1  C8  UNL     1      26.071   2.544  51.332  1.00  0.00     0.245 C 
HETATM    2  O1  UNL     1      27.153   2.947  50.896  1.00  0.00    -0.268 OA
HETATM    3  N2  UNL     1      25.078   3.405  50.788  1.00  0.00    -0.310 N 
HETATM    4  C9  UNL     1      25.481   4.500  49.909  1.00  0.00     0.134 C 
HETATM    5  C10 UNL     1      24.287   4.777  49.022  1.00  0.00     0.059 C 
HETATM    6  C11 UNL     1      23.525   3.523  49.172  1.00  0.00    -0.015 C 
HETATM    7  C12 UNL     1      22.791   2.413  49.003  1.00  0.00     0.059 C 
HETATM    8  S1  UNL     1      22.726   1.705  50.700  1.00  0.00    -0.081 SA
HETATM    9  C13 UNL     1      22.674   3.319  51.442  1.00  0.00     0.132 A 
HETATM   10  N3  UNL     1      22.241   4.194  52.320  1.00  0.00    -0.234 NA
HETATM   11  C14 UNL     1      22.927   5.424  52.011  1.00  0.00     0.231 A 
HETATM   12  N4  UNL     1      23.700   5.247  51.041  1.00  0.00    -0.239 NA
HETATM   13  C15 UNL     1      23.676   3.899  50.569  1.00  0.00     0.208 A 
ENDROOT
BRANCH   1  14
HETATM   14  C7  UNL     1      25.906   1.410  52.221  1.00  0.00     0.072 C 
HETATM   15  C6  UNL     1      26.768   1.319  53.214  1.00  0.00     0.008 C 
BRANCH  15  16
HETATM   16  C5  UNL     1      26.677   0.177  54.189  1.00  0.00     0.297 C 
BRANCH  16  17
HETATM   17  N1  UNL     1      25.718  -0.774  53.721  1.00  0.00     0.086 N 
HETATM   18  H10 UNL     1      25.393  -0.474  52.774  1.00  0.00     0.316 HD
BRANCH  17  19
HETATM   19  C4  UNL     1      24.626  -0.904  54.638  1.00  0.00     0.270 C 
BRANCH  19  20
HETATM   20  C3  UNL     1      23.312  -0.623  53.965  1.00  0.00     0.029 C 
BRANCH  20  21
HETATM   21  C2  UNL     1      22.149  -1.016  54.880  1.00  0.00    -0.003 C 
HETATM   22  C1  UNL     1      21.053  -0.004  54.657  1.00  0.00     0.005 C 
ENDBRANCH  20  21
ENDBRANCH  19  20
ENDBRANCH  17  19
ENDBRANCH  16  17
ENDBRANCH  15  16
ENDBRANCH   1  14
TORSDOF 6
ENDMDL
MODEL 6
REMARK VINA RESULT:      -6.1      3.574      7.123
REMARK  6 active torsions:
REMARK  status: ('A' for Active; 'I' for Inactive)
REMARK    1  A    between atoms: C2_2  and  C3_3 
REMARK    2  A    between atoms: C3_3  and  C4_4 
REMARK    3  A    between atoms: C4_4  and  N1_5 
REMARK    4  A    between atoms: N1_5  and  C5_6 
REMARK    5  A    between atoms: C5_6  and  C6_7 
REMARK    6  A    between atoms: C7_8  and  C8_9 
REMARK       I    between atoms: C8_9  and  N2_11 
ROOT
HETATM    1  C8  UNL     1      22.006   0.404  53.318  1.00  0.00     0.245 C 
HETATM    2  O1  UNL     1      21.255   0.366  54.298  1.00  0.00    -0.268 OA
HETATM    3  N2  UNL     1      21.462   1.380  52.439  1.00  0.00    -0.310 N 
HETATM    4  C9  UNL     1      20.237   2.082  52.814  1.00  0.00     0.134 C 
HETATM    5  C10 UNL     1      20.284   3.410  52.091  1.00  0.00     0.059 C 
HETATM    6  C11 UNL     1      21.722   3.507  51.771  1.00  0.00    -0.015 C 
HETATM    7  C12 UNL     1      22.990   3.890  51.566  1.00  0.00     0.059 C 
HETATM    8  S1  UNL     1      23.800   2.335  51.008  1.00  0.00    -0.081 SA
HETATM    9  C13 UNL     1      22.339   1.807  50.145  1.00  0.00     0.132 A 
HETATM   10  N3  UNL     1      21.707   1.264  49.130  1.00  0.00    -0.234 NA
HETATM   11  C14 UNL     1      20.306   1.340  49.461  1.00  0.00     0.231 A 
HETATM   12  N4  UNL     1      20.164   1.874  50.586  1.00  0.00    -0.239 NA
HETATM   13  C15 UNL     1      21.416   2.210  51.187  1.00  0.00     0.208 A 
ENDROOT
BRANCH   1  14
HETATM   14  C7  UNL     1      23.193  -0.411  53.153  1.00  0.00     0.072 C 
HETATM   15  C6  UNL     1      24.205  -0.136  53.951  1.00  0.00     0.008 C 
BRANCH  15  16
HETATM   16  C5  UNL     1      25.479  -0.929  53.853  1.00  0.00     0.297 C 
BRANCH  16  17
HETATM   17  N1  UNL     1      26.433  -0.417  54.787  1.00  0.00     0.086 N 
HETATM   18  H10 UNL     1      25.942  -0.231  55.690  1.00  0.00     0.316 HD
BRANCH  17  19
HETATM   19  C4  UNL     1      27.074   0.760  54.282  1.00  0.00     0.270 C 
BRANCH  19  20
HETATM   20  C3  UNL     1      28.220   0.409  53.376  1.00  0.00     0.029 C 
BRANCH  20  21
HETATM   21  C2  UNL     1      29.265  -0.415  54.132  1.00  0.00    -0.003 C 
HETATM   22  C1  UNL     1      29.469  -1.690  53.351  1.00  0.00     0.005 C 
ENDBRANCH  20  21
ENDBRANCH  19  20
ENDBRANCH  17  19
ENDBRANCH  16  17
ENDBRANCH  15  16
ENDBRANCH   1  14
TORSDOF 6
ENDMDL
MODEL 7
REMARK VINA RESULT:      -6.1      4.237      5.925
REMARK  6 active torsions:
REMARK  status: ('A' for Active; 'I' for Inactive)
REMARK    1  A    between atoms: C2_2  and  C3_3 
REMARK    2  A    between atoms: C3_3  and  C4_4 
REMARK    3  A    between atoms: C4_4  and  N1_5 
REMARK    4  A    between atoms: N1_5  and  C5_6 
REMARK    5  A    between atoms: C5_6  and  C6_7 
REMARK    6  A    between atoms: C7_8  and  C8_9 
REMARK       I    between atoms: C8_9  and  N2_11 
ROOT
HETATM    1  C8  UNL     1      20.644   3.848  51.655  1.00  0.00     0.245 C 
HETATM    2  O1  UNL     1      19.601   3.770  52.311  1.00  0.00    -0.268 OA
HETATM    3  N2  UNL     1      21.150   2.523  51.555  1.00  0.00    -0.310 N 
HETATM    4  C9  UNL     1      20.421   1.427  52.187  1.00  0.00     0.134 C 
HETATM    5  C10 UNL     1      20.781   0.185  51.402  1.00  0.00     0.059 C 
HETATM    6  C11 UNL     1      21.288   0.778  50.150  1.00  0.00    -0.015 C 
HETATM    7  C12 UNL     1      21.586   1.091  48.880  1.00  0.00     0.059 C 
HETATM    8  S1  UNL     1      22.641   2.587  49.065  1.00  0.00    -0.081 SA
HETATM    9  C13 UNL     1      23.369   1.969  50.563  1.00  0.00     0.132 A 
HETATM   10  N3  UNL     1      24.376   1.759  51.380  1.00  0.00    -0.234 NA
HETATM   11  C14 UNL     1      23.820   1.050  52.506  1.00  0.00     0.231 A 
HETATM   12  N4  UNL     1      22.589   0.888  52.339  1.00  0.00    -0.239 NA
HETATM   13  C15 UNL     1      22.127   1.468  51.118  1.00  0.00     0.208 A 
ENDROOT
BRANCH   1  14
HETATM   14  C7  UNL     1      21.196   5.077  51.119  1.00  0.00     0.072 C 
HETATM   15  C6  UNL     1      22.378   5.435  51.580  1.00  0.00     0.008 C 
BRANCH  15  16
HETATM   16  C5  UNL     1      23.031   6.695  51.083  1.00  0.00     0.297 C 
BRANCH  16  17
HETATM   17  N1  UNL     1      24.376   6.757  51.563  1.00  0.00     0.086 N 
HETATM   18  H10 UNL     1      24.411   7.439  52.354  1.00  0.00     0.316 HD
BRANCH  17  19
HETATM   19  C4  UNL     1      25.285   7.114  50.516  1.00  0.00     0.270 C 
BRANCH  19  20
HETATM   20  C3  UNL     1      25.158   6.182  49.344  1.00  0.00     0.029 C 
BRANCH  20  21
HETATM   21  C2  UNL     1      25.879   4.862  49.632  1.00  0.00    -0.003 C 
HETATM   22  C1  UNL     1      27.145   4.864  48.811  1.00  0.00     0.005 C 
ENDBRANCH  20  21
ENDBRANCH  19  20
ENDBRANCH  17  19
ENDBRANCH  16  17
ENDBRANCH  15  16
ENDBRANCH   1  14
TORSDOF 6
ENDMDL
MODEL 8
REMARK VINA RESULT:      -6.1      7.320      9.359
REMARK  6 active torsions:
REMARK  status: ('A' for Active; 'I' for Inactive)
REMARK    1  A    between atoms: C2_2  and  C3_3 
REMARK    2  A    between atoms: C3_3  and  C4_4 
REMARK    3  A    between atoms: C4_4  and  N1_5 
REMARK    4  A    between atoms: N1_5  and  C5_6 
REMARK    5  A    between atoms: C5_6  and  C6_7 
REMARK    6  A    between atoms: C7_8  and  C8_9 
REMARK       I    between atoms: C8_9  and  N2_11 
ROOT
HETATM    1  C8  UNL     1      31.156   5.433  47.588  1.00  0.00     0.245 C 
HETATM    2  O1  UNL     1      30.528   4.379  47.728  1.00  0.00    -0.268 OA
HETATM    3  N2  UNL     1      32.514   5.062  47.388  1.00  0.00    -0.310 N 
HETATM    4  C9  UNL     1      32.880   3.648  47.391  1.00  0.00     0.134 C 
HETATM    5  C10 UNL     1      34.131   3.544  46.546  1.00  0.00     0.059 C 
HETATM    6  C11 UNL     1      34.065   4.807  45.785  1.00  0.00    -0.015 C 
HETATM    7  C12 UNL     1      34.093   5.776  44.858  1.00  0.00     0.059 C 
HETATM    8  S1  UNL     1      33.557   7.260  45.804  1.00  0.00    -0.081 SA
HETATM    9  C13 UNL     1      34.386   6.704  47.274  1.00  0.00     0.132 A 
HETATM   10  N3  UNL     1      35.115   6.886  48.351  1.00  0.00    -0.234 NA
HETATM   11  C14 UNL     1      35.249   5.583  48.952  1.00  0.00     0.231 A 
HETATM   12  N4  UNL     1      34.629   4.734  48.270  1.00  0.00    -0.239 NA
HETATM   13  C15 UNL     1      33.974   5.320  47.144  1.00  0.00     0.208 A 
ENDROOT
BRANCH   1  14
HETATM   14  C7  UNL     1      30.570   6.758  47.630  1.00  0.00     0.072 C 
HETATM   15  C6  UNL     1      30.809   7.467  48.716  1.00  0.00     0.008 C 
BRANCH  15  16
HETATM   16  C5  UNL     1      30.242   8.853  48.851  1.00  0.00     0.297 C 
BRANCH  16  17
HETATM   17  N1  UNL     1      29.106   8.822  49.717  1.00  0.00     0.086 N 
HETATM   18  H10 UNL     1      29.127   7.927  50.255  1.00  0.00     0.316 HD
BRANCH  17  19
HETATM   19  C4  UNL     1      27.887   8.968  48.980  1.00  0.00     0.270 C 
BRANCH  19  20
HETATM   20  C3  UNL     1      26.928   7.854  49.288  1.00  0.00     0.029 C 
BRANCH  20  21
HETATM   21  C2  UNL     1      26.853   6.875  48.113  1.00  0.00    -0.003 C 
HETATM   22  C1  UNL     1      27.275   5.525  48.638  1.00  0.00     0.005 C 
ENDBRANCH  20  21
ENDBRANCH  19  20
ENDBRANCH  17  19
ENDBRANCH  16  17
ENDBRANCH  15  16
ENDBRANCH   1  14
TORSDOF 6
ENDMDL
MODEL 9
REMARK VINA RESULT:      -5.9      3.949      8.494
REMARK  6 active torsions:
REMARK  status: ('A' for Active; 'I' for Inactive)
REMARK    1  A    between atoms: C2_2  and  C3_3 
REMARK    2  A    between atoms: C3_3  and  C4_4 
REMARK    3  A    between atoms: C4_4  and  N1_5 
REMARK    4  A    between atoms: N1_5  and  C5_6 
REMARK    5  A    between atoms: C5_6  and  C6_7 
REMARK    6  A    between atoms: C7_8  and  C8_9 
REMARK       I    between atoms: C8_9  and  N2_11 
ROOT
HETATM    1  C8  UNL     1      27.398   5.366  48.726  1.00  0.00     0.245 C 
HETATM    2  O1  UNL     1      28.402   4.732  48.387  1.00  0.00    -0.268 OA
HETATM    3  N2  UNL     1      27.658   6.726  48.398  1.00  0.00    -0.310 N 
HETATM    4  C9  UNL     1      28.936   7.085  47.789  1.00  0.00     0.134 C 
HETATM    5  C10 UNL     1      28.675   8.346  46.995  1.00  0.00     0.059 C 
HETATM    6  C11 UNL     1      27.207   8.296  46.859  1.00  0.00    -0.015 C 
HETATM    7  C12 UNL     1      25.931   8.340  46.446  1.00  0.00     0.059 C 
HETATM    8  S1  UNL     1      25.001   7.799  47.937  1.00  0.00    -0.081 SA
HETATM    9  C13 UNL     1      26.148   8.606  49.027  1.00  0.00     0.132 A 
HETATM   10  N3  UNL     1      26.459   9.321  50.084  1.00  0.00    -0.234 NA
HETATM   11  C14 UNL     1      27.896   9.442  50.060  1.00  0.00     0.231 A 
HETATM   12  N4  UNL     1      28.357   8.827  49.071  1.00  0.00    -0.239 NA
HETATM   13  C15 UNL     1      27.334   8.190  48.305  1.00  0.00     0.208 A 
ENDROOT
BRANCH   1  14
HETATM   14  C7  UNL     1      26.218   4.786  49.334  1.00  0.00     0.072 C 
HETATM   15  C6  UNL     1      26.385   3.628  49.942  1.00  0.00     0.008 C 
BRANCH  15  16
HETATM   16  C5  UNL     1      25.218   2.948  50.603  1.00  0.00     0.297 C 
BRANCH  16  17
HETATM   17  N1  UNL     1      24.918   3.606  51.837  1.00  0.00     0.086 N 
HETATM   18  H10 UNL     1      25.804   4.007  52.218  1.00  0.00     0.316 HD
BRANCH  17  19
HETATM   19  C4  UNL     1      24.298   2.710  52.766  1.00  0.00     0.270 C 
BRANCH  19  20
HETATM   20  C3  UNL     1      25.217   1.576  53.124  1.00  0.00     0.029 C 
BRANCH  20  21
HETATM   21  C2  UNL     1      24.415   0.290  53.345  1.00  0.00    -0.003 C 
HETATM   22  C1  UNL     1      23.061   0.501  52.713  1.00  0.00     0.005 C 
ENDBRANCH  20  21
ENDBRANCH  19  20
ENDBRANCH  17  19
ENDBRANCH  16  17
ENDBRANCH  15  16
ENDBRANCH   1  14
TORSDOF 6
ENDMDL
