MODEL 1
REMARK VINA RESULT:      -9.4      0.000      0.000
REMARK  2 active torsions:
REMARK  status: ('A' for Active; 'I' for Inactive)
REMARK    1  A    between atoms: N1_1  and  C1_2 
REMARK    2  A    between atoms: C5_8  and  C6_9 
ROOT
HETATM    1  C1  UNL     1      21.633   5.503  50.741  1.00  0.00     0.135 C 
HETATM    2  N2  UNL     1      22.492   4.837  51.583  1.00  0.00    -0.227 NA
HETATM    3  C2  UNL     1      21.740   3.658  52.121  1.00  0.00     0.235 C 
HETATM    4  N3  UNL     1      22.343   2.561  52.340  1.00  0.00    -0.242 NA
HETATM    5  C3  UNL     1      23.757   2.461  52.053  1.00  0.00     0.057 C 
HETATM    6  C4  UNL     1      24.800   2.320  52.894  1.00  0.00     0.020 C 
HETATM    7  C5  UNL     1      25.715   1.527  51.978  1.00  0.00     0.093 C 
HETATM    8  C12 UNL     1      25.725   2.433  50.851  1.00  0.00     0.026 C 
HETATM    9  C13 UNL     1      24.407   2.527  50.711  1.00  0.00     0.057 C 
HETATM   10  N4  UNL     1      26.429   3.230  49.887  1.00  0.00    -0.336 N 
HETATM   11  C14 UNL     1      26.096   4.560  49.933  1.00  0.00     0.172 C 
HETATM   12  S1  UNL     1      26.880   5.393  48.765  1.00  0.00    -0.041 SA
HETATM   13  N5  UNL     1      25.529   5.757  50.287  1.00  0.00    -0.365 N 
HETATM   14  C15 UNL     1      24.957   6.980  50.641  1.00  0.00     0.152 C 
HETATM   15  C16 UNL     1      24.017   7.587  49.671  1.00  0.00     0.293 C 
HETATM   16  N6  UNL     1      22.928   6.880  49.164  1.00  0.00     0.106 NA
HETATM   17  C17 UNL     1      22.500   7.627  47.942  1.00  0.00     0.299 C 
HETATM   18  C18 UNL     1      21.416   8.597  48.339  1.00  0.00     0.198 C 
HETATM   19  O1  UNL     1      21.461   9.000  49.659  1.00  0.00    -0.387 OA
HETATM   20  C19 UNL     1      21.217   7.952  50.551  1.00  0.00     0.211 C 
HETATM   21  C20 UNL     1      21.741   6.692  49.901  1.00  0.00     0.315 C 
HETATM   22  H11 UNL     1      27.035   2.618  49.415  1.00  0.00     0.168 HD
HETATM   23  H12 UNL     1      25.132   5.072  50.967  1.00  0.00     0.161 HD
ENDROOT
BRANCH   7  24
HETATM   24  C6  UNL     1      26.974   1.208  52.624  1.00  0.00    -0.043 A 
HETATM   25  C7  UNL     1      27.562   2.300  53.236  1.00  0.00     0.008 A 
HETATM   26  C8  UNL     1      28.760   2.075  53.916  1.00  0.00     0.002 A 
HETATM   27  C9  UNL     1      29.381   0.815  54.004  1.00  0.00     0.019 A 
HETATM   28  C10 UNL     1      28.750  -0.266  53.371  1.00  0.00     0.011 A 
HETATM   29 BR1  UNL     1      29.629  -1.935  53.516  1.00  0.00    -0.051 Br
HETATM   30  C11 UNL     1      27.572  -0.002  52.715  1.00  0.00     0.027 A 
ENDBRANCH   7  24
BRANCH   1  31
HETATM   31  N1  UNL     1      20.567   4.604  50.965  1.00  0.00    -0.386 N 
HETATM   32  H1  UNL     1      20.794   3.584  50.721  1.00  0.00     0.157 HD
HETATM   33  H2  UNL     1      19.729   5.194  51.319  1.00  0.00     0.157 HD
ENDBRANCH   1  31
TORSDOF 2
ENDMDL
MODEL 2
REMARK VINA RESULT:      -9.0      5.276      8.582
REMARK  2 active torsions:
REMARK  status: ('A' for Active; 'I' for Inactive)
REMARK    1  A    between atoms: N1_1  and  C1_2 
REMARK    2  A    between atoms: C5_8  and  C6_9 
ROOT
HETATM    1  C1  UNL     1      25.599  -0.450  54.865  1.00  0.00     0.135 C 
HETATM    2  N2  UNL     1      24.425  -0.908  54.314  1.00  0.00    -0.227 NA
HETATM    3  C2  UNL     1      23.726  -1.693  55.382  1.00  0.00     0.235 C 
HETATM    4  N3  UNL     1      22.458  -1.671  55.464  1.00  0.00    -0.242 NA
HETATM    5  C3  UNL     1      21.701  -0.874  54.524  1.00  0.00     0.057 C 
HETATM    6  C4  UNL     1      20.868  -1.260  53.538  1.00  0.00     0.020 C 
HETATM    7  C5  UNL     1      19.927  -0.069  53.567  1.00  0.00     0.093 C 
HETATM    8  C12 UNL     1      20.908   0.980  53.405  1.00  0.00     0.026 C 
HETATM    9  C13 UNL     1      21.699   0.615  54.408  1.00  0.00     0.057 C 
HETATM   10  N4  UNL     1      21.404   2.140  52.722  1.00  0.00    -0.336 N 
HETATM   11  C14 UNL     1      22.670   1.976  52.220  1.00  0.00     0.172 C 
HETATM   12  S1  UNL     1      23.197   3.355  51.517  1.00  0.00    -0.041 SA
HETATM   13  N5  UNL     1      23.883   1.438  51.874  1.00  0.00    -0.365 N 
HETATM   14  C15 UNL     1      25.119   0.897  51.519  1.00  0.00     0.152 C 
HETATM   15  C16 UNL     1      26.313   1.444  52.204  1.00  0.00     0.293 C 
HETATM   16  N6  UNL     1      26.397   1.501  53.595  1.00  0.00     0.106 NA
HETATM   17  C17 UNL     1      27.493   2.475  53.889  1.00  0.00     0.299 C 
HETATM   18  C18 UNL     1      28.777   1.700  54.054  1.00  0.00     0.198 C 
HETATM   19  O1  UNL     1      28.813   0.496  53.380  1.00  0.00    -0.387 OA
HETATM   20  C19 UNL     1      27.885  -0.425  53.874  1.00  0.00     0.211 C 
HETATM   21  C20 UNL     1      26.703   0.372  54.380  1.00  0.00     0.315 C 
HETATM   22  H11 UNL     1      20.681   2.804  52.747  1.00  0.00     0.168 HD
HETATM   23  H12 UNL     1      23.379   0.656  52.349  1.00  0.00     0.161 HD
ENDROOT
BRANCH   7  24
HETATM   24  C6  UNL     1      18.874  -0.195  52.577  1.00  0.00    -0.043 A 
HETATM   25  C7  UNL     1      19.197   0.386  51.365  1.00  0.00     0.008 A 
HETATM   26  C8  UNL     1      18.256   0.278  50.340  1.00  0.00     0.002 A 
HETATM   27  C9  UNL     1      17.020  -0.380  50.484  1.00  0.00     0.019 A 
HETATM   28  C10 UNL     1      16.732  -0.957  51.729  1.00  0.00     0.011 A 
HETATM   29 BR1  UNL     1      15.057  -1.824  51.871  1.00  0.00    -0.051 Br
HETATM   30  C11 UNL     1      17.687  -0.831  52.710  1.00  0.00     0.027 A 
ENDBRANCH   7  24
BRANCH   1  31
HETATM   31  N1  UNL     1      25.359  -1.061  56.115  1.00  0.00    -0.386 N 
HETATM   32  H1  UNL     1      25.511  -0.415  56.957  1.00  0.00     0.157 HD
HETATM   33  H2  UNL     1      25.095  -2.094  55.913  1.00  0.00     0.157 HD
ENDBRANCH   1  31
TORSDOF 2
ENDMDL
MODEL 3
REMARK VINA RESULT:      -8.6      4.511      6.888
REMARK  2 active torsions:
REMARK  status: ('A' for Active; 'I' for Inactive)
REMARK    1  A    between atoms: N1_1  and  C1_2 
REMARK    2  A    between atoms: C5_8  and  C6_9 
ROOT
HETATM    1  C1  UNL     1      25.507   2.964  51.269  1.00  0.00     0.135 C 
HETATM    2  N2  UNL     1      24.572   1.956  51.305  1.00  0.00    -0.227 NA
HETATM    3  C2  UNL     1      24.979   1.031  52.412  1.00  0.00     0.235 C 
HETATM    4  N3  UNL     1      24.096   0.454  53.119  1.00  0.00    -0.242 NA
HETATM    5  C3  UNL     1      22.697   0.707  52.851  1.00  0.00     0.057 C 
HETATM    6  C4  UNL     1      21.749  -0.115  52.363  1.00  0.00     0.020 C 
HETATM    7  C5  UNL     1      20.551   0.481  53.079  1.00  0.00     0.093 C 
HETATM    8  C12 UNL     1      20.706   1.853  52.648  1.00  0.00     0.026 C 
HETATM    9  C13 UNL     1      21.969   1.998  53.033  1.00  0.00     0.057 C 
HETATM   10  N4  UNL     1      20.187   3.043  52.038  1.00  0.00    -0.336 N 
HETATM   11  C14 UNL     1      20.911   3.458  50.950  1.00  0.00     0.172 C 
HETATM   12  S1  UNL     1      20.307   4.853  50.349  1.00  0.00    -0.041 SA
HETATM   13  N5  UNL     1      21.847   3.533  49.951  1.00  0.00    -0.365 N 
HETATM   14  C15 UNL     1      22.796   3.618  48.931  1.00  0.00     0.152 C 
HETATM   15  C16 UNL     1      23.776   4.725  49.015  1.00  0.00     0.293 C 
HETATM   16  N6  UNL     1      24.543   4.939  50.160  1.00  0.00     0.106 NA
HETATM   17  C17 UNL     1      25.056   6.338  50.041  1.00  0.00     0.299 C 
HETATM   18  C18 UNL     1      26.418   6.287  49.395  1.00  0.00     0.198 C 
HETATM   19  O1  UNL     1      26.627   5.191  48.582  1.00  0.00    -0.387 OA
HETATM   20  C19 UNL     1      26.627   3.987  49.293  1.00  0.00     0.211 C 
HETATM   21  C20 UNL     1      25.683   4.166  50.460  1.00  0.00     0.315 C 
HETATM   22  H11 UNL     1      19.380   3.282  52.545  1.00  0.00     0.168 HD
HETATM   23  H12 UNL     1      22.082   2.652  50.458  1.00  0.00     0.161 HD
ENDROOT
BRANCH   7  24
HETATM   24  C6  UNL     1      19.324  -0.218  52.745  1.00  0.00    -0.043 A 
HETATM   25  C7  UNL     1      18.982  -1.184  53.672  1.00  0.00     0.008 A 
HETATM   26  C8  UNL     1      17.793  -1.881  53.450  1.00  0.00     0.002 A 
HETATM   27  C9  UNL     1      16.949  -1.649  52.348  1.00  0.00     0.019 A 
HETATM   28  C10 UNL     1      17.333  -0.659  51.432  1.00  0.00     0.011 A 
HETATM   29 BR1  UNL     1      16.167  -0.391  49.967  1.00  0.00    -0.051 Br
HETATM   30  C11 UNL     1      18.508   0.006  51.690  1.00  0.00     0.027 A 
ENDBRANCH   7  24
BRANCH   1  31
HETATM   31  N1  UNL     1      26.265   2.426  52.332  1.00  0.00    -0.386 N 
HETATM   32  H1  UNL     1      26.486   3.127  53.114  1.00  0.00     0.157 HD
HETATM   33  H2  UNL     1      26.475   1.394  52.076  1.00  0.00     0.157 HD
ENDBRANCH   1  31
TORSDOF 2
ENDMDL
MODEL 4
REMARK VINA RESULT:      -8.3      3.112      4.694
REMARK  2 active torsions:
REMARK  status: ('A' for Active; 'I' for Inactive)
REMARK    1  A    between atoms: N1_1  and  C1_2 
REMARK    2  A    between atoms: C5_8  and  C6_9 
ROOT
HETATM    1  C1  UNL     1      20.918   4.383  50.332  1.00  0.00     0.135 C 
HETATM    2  N2  UNL     1      22.112   3.701  50.314  1.00  0.00    -0.227 NA
HETATM    3  C2  UNL     1      23.198   4.733  50.354  1.00  0.00     0.235 C 
HETATM    4  N3  UNL     1      24.276   4.503  50.986  1.00  0.00    -0.242 NA
HETATM    5  C3  UNL     1      24.437   3.241  51.675  1.00  0.00     0.057 C 
HETATM    6  C4  UNL     1      25.269   2.215  51.413  1.00  0.00     0.020 C 
HETATM    7  C5  UNL     1      25.462   1.719  52.834  1.00  0.00     0.093 C 
HETATM    8  C12 UNL     1      24.072   1.538  53.186  1.00  0.00     0.026 C 
HETATM    9  C13 UNL     1      23.664   2.759  52.858  1.00  0.00     0.057 C 
HETATM   10  N4  UNL     1      22.997   0.724  53.678  1.00  0.00    -0.336 N 
HETATM   11  C14 UNL     1      21.961   0.596  52.788  1.00  0.00     0.172 C 
HETATM   12  S1  UNL     1      20.745  -0.283  53.438  1.00  0.00    -0.041 SA
HETATM   13  N5  UNL     1      21.175   0.695  51.669  1.00  0.00    -0.365 N 
HETATM   14  C15 UNL     1      20.369   0.791  50.534  1.00  0.00     0.152 C 
HETATM   15  C16 UNL     1      19.123   1.582  50.659  1.00  0.00     0.293 C 
HETATM   16  N6  UNL     1      19.132   2.892  51.135  1.00  0.00     0.106 NA
HETATM   17  C17 UNL     1      17.718   3.185  51.524  1.00  0.00     0.299 C 
HETATM   18  C18 UNL     1      17.034   3.840  50.351  1.00  0.00     0.198 C 
HETATM   19  O1  UNL     1      17.569   3.518  49.120  1.00  0.00    -0.387 OA
HETATM   20  C19 UNL     1      18.875   3.991  48.961  1.00  0.00     0.211 C 
HETATM   21  C20 UNL     1      19.514   3.985  50.331  1.00  0.00     0.315 C 
HETATM   22  H11 UNL     1      23.274   0.410  54.566  1.00  0.00     0.168 HD
HETATM   23  H12 UNL     1      22.045   1.216  51.421  1.00  0.00     0.161 HD
ENDROOT
BRANCH   7  24
HETATM   24  C6  UNL     1      26.347   0.571  52.885  1.00  0.00    -0.043 A 
HETATM   25  C7  UNL     1      25.757  -0.589  52.420  1.00  0.00     0.008 A 
HETATM   26  C8  UNL     1      26.550  -1.738  52.398  1.00  0.00     0.002 A 
HETATM   27  C9  UNL     1      27.893  -1.765  52.819  1.00  0.00     0.019 A 
HETATM   28  C10 UNL     1      28.453  -0.566  53.282  1.00  0.00     0.011 A 
HETATM   29 BR1  UNL     1      30.258  -0.658  53.841  1.00  0.00    -0.051 Br
HETATM   30  C11 UNL     1      27.639   0.542  53.285  1.00  0.00     0.027 A 
ENDBRANCH   7  24
BRANCH   1  31
HETATM   31  N1  UNL     1      21.536   5.652  50.362  1.00  0.00    -0.386 N 
HETATM   32  H1  UNL     1      21.940   5.922  51.318  1.00  0.00     0.157 HD
HETATM   33  H2  UNL     1      21.422   6.080  49.372  1.00  0.00     0.157 HD
ENDBRANCH   1  31
TORSDOF 2
ENDMDL
MODEL 5
REMARK VINA RESULT:      -8.2      2.880      4.129
REMARK  2 active torsions:
REMARK  status: ('A' for Active; 'I' for Inactive)
REMARK    1  A    between atoms: N1_1  and  C1_2 
REMARK    2  A    between atoms: C5_8  and  C6_9 
ROOT
HETATM    1  C1  UNL     1      22.429   5.106  48.402  1.00  0.00     0.135 C 
HETATM    2  N2  UNL     1      23.516   4.342  48.759  1.00  0.00    -0.227 NA
HETATM    3  C2  UNL     1      24.611   5.297  49.126  1.00  0.00     0.235 C 
HETATM    4  N3  UNL     1      25.421   5.011  50.062  1.00  0.00    -0.242 NA
HETATM    5  C3  UNL     1      25.268   3.760  50.773  1.00  0.00     0.057 C 
HETATM    6  C4  UNL     1      26.061   2.672  50.787  1.00  0.00     0.020 C 
HETATM    7  C5  UNL     1      25.769   2.204  52.201  1.00  0.00     0.093 C 
HETATM    8  C12 UNL     1      24.328   2.131  52.108  1.00  0.00     0.026 C 
HETATM    9  C13 UNL     1      24.134   3.368  51.662  1.00  0.00     0.057 C 
HETATM   10  N4  UNL     1      23.096   1.408  52.247  1.00  0.00    -0.336 N 
HETATM   11  C14 UNL     1      22.378   1.327  51.082  1.00  0.00     0.172 C 
HETATM   12  S1  UNL     1      20.959   0.553  51.330  1.00  0.00    -0.041 SA
HETATM   13  N5  UNL     1      21.985   1.449  49.774  1.00  0.00    -0.365 N 
HETATM   14  C15 UNL     1      21.577   1.568  48.445  1.00  0.00     0.152 C 
HETATM   15  C16 UNL     1      20.416   2.447  48.175  1.00  0.00     0.293 C 
HETATM   16  N6  UNL     1      20.376   3.767  48.623  1.00  0.00     0.106 NA
HETATM   17  C17 UNL     1      18.937   4.168  48.554  1.00  0.00     0.299 C 
HETATM   18  C18 UNL     1      18.698   4.835  47.223  1.00  0.00     0.198 C 
HETATM   19  O1  UNL     1      19.561   4.442  46.220  1.00  0.00    -0.387 OA
HETATM   20  C19 UNL     1      20.884   4.818  46.469  1.00  0.00     0.211 C 
HETATM   21  C20 UNL     1      21.067   4.807  47.970  1.00  0.00     0.315 C 
HETATM   22  H11 UNL     1      23.063   1.100  53.179  1.00  0.00     0.168 HD
HETATM   23  H12 UNL     1      22.925   1.901  49.804  1.00  0.00     0.161 HD
ENDROOT
BRANCH   7  24
HETATM   24  C6  UNL     1      26.506   0.999  52.530  1.00  0.00    -0.043 A 
HETATM   25  C7  UNL     1      25.770  -0.155  52.342  1.00  0.00     0.008 A 
HETATM   26  C8  UNL     1      26.415  -1.366  52.597  1.00  0.00     0.002 A 
HETATM   27  C9  UNL     1      27.751  -1.461  53.030  1.00  0.00     0.019 A 
HETATM   28  C10 UNL     1      28.463  -0.265  53.207  1.00  0.00     0.011 A 
HETATM   29 BR1  UNL     1      30.252  -0.447  53.794  1.00  0.00    -0.051 Br
HETATM   30  C11 UNL     1      27.792   0.904  52.941  1.00  0.00     0.027 A 
ENDBRANCH   7  24
BRANCH   1  31
HETATM   31  N1  UNL     1      23.101   6.329  48.615  1.00  0.00    -0.386 N 
HETATM   32  H1  UNL     1      24.048   6.231  49.111  1.00  0.00     0.157 HD
HETATM   33  H2  UNL     1      22.454   7.112  48.235  1.00  0.00     0.157 HD
ENDBRANCH   1  31
TORSDOF 2
ENDMDL
MODEL 6
REMARK VINA RESULT:      -8.2      2.106      2.913
REMARK  2 active torsions:
REMARK  status: ('A' for Active; 'I' for Inactive)
REMARK    1  A    between atoms: N1_1  and  C1_2 
REMARK    2  A    between atoms: C5_8  and  C6_9 
ROOT
HETATM    1  C1  UNL     1      23.139   7.369  48.320  1.00  0.00     0.135 C 
HETATM    2  N2  UNL     1      23.309   6.577  49.432  1.00  0.00    -0.227 NA
HETATM    3  C2  UNL     1      22.021   5.838  49.634  1.00  0.00     0.235 C 
HETATM    4  N3  UNL     1      22.032   4.645  50.072  1.00  0.00    -0.242 NA
HETATM    5  C3  UNL     1      23.298   4.008  50.362  1.00  0.00     0.057 C 
HETATM    6  C4  UNL     1      23.827   3.636  51.544  1.00  0.00     0.020 C 
HETATM    7  C5  UNL     1      24.628   2.441  51.060  1.00  0.00     0.093 C 
HETATM    8  C12 UNL     1      25.392   3.103  50.026  1.00  0.00     0.026 C 
HETATM    9  C13 UNL     1      24.359   3.635  49.381  1.00  0.00     0.057 C 
HETATM   10  N4  UNL     1      26.644   3.442  49.413  1.00  0.00    -0.336 N 
HETATM   11  C14 UNL     1      26.858   4.794  49.323  1.00  0.00     0.172 C 
HETATM   12  S1  UNL     1      28.266   5.107  48.555  1.00  0.00    -0.041 SA
HETATM   13  N5  UNL     1      26.710   6.153  49.426  1.00  0.00    -0.365 N 
HETATM   14  C15 UNL     1      26.568   7.538  49.527  1.00  0.00     0.152 C 
HETATM   15  C16 UNL     1      26.354   8.284  48.266  1.00  0.00     0.293 C 
HETATM   16  N6  UNL     1      25.339   7.941  47.374  1.00  0.00     0.106 NA
HETATM   17  C17 UNL     1      25.704   8.596  46.081  1.00  0.00     0.299 C 
HETATM   18  C18 UNL     1      25.014   9.936  46.022  1.00  0.00     0.198 C 
HETATM   19  O1  UNL     1      24.732  10.493  47.253  1.00  0.00    -0.387 OA
HETATM   20  C19 UNL     1      23.799   9.747  47.980  1.00  0.00     0.211 C 
HETATM   21  C20 UNL     1      23.993   8.300  47.588  1.00  0.00     0.315 C 
HETATM   22  H11 UNL     1      27.093   2.591  49.216  1.00  0.00     0.168 HD
HETATM   23  H12 UNL     1      25.864   5.765  49.898  1.00  0.00     0.161 HD
ENDROOT
BRANCH   7  24
HETATM   24  C6  UNL     1      25.341   1.798  52.147  1.00  0.00    -0.043 A 
HETATM   25  C7  UNL     1      24.588   0.835  52.794  1.00  0.00     0.008 A 
HETATM   26  C8  UNL     1      25.210   0.138  53.831  1.00  0.00     0.002 A 
HETATM   27  C9  UNL     1      26.538   0.367  54.238  1.00  0.00     0.019 A 
HETATM   28  C10 UNL     1      27.266   1.352  53.554  1.00  0.00     0.011 A 
HETATM   29 BR1  UNL     1      29.042   1.624  54.143  1.00  0.00    -0.051 Br
HETATM   30  C11 UNL     1      26.618   2.013  52.538  1.00  0.00     0.027 A 
ENDBRANCH   7  24
BRANCH   1  31
HETATM   31  N1  UNL     1      21.807   6.951  48.111  1.00  0.00    -0.386 N 
HETATM   32  H1  UNL     1      21.385   6.400  48.929  1.00  0.00     0.157 HD
HETATM   33  H2  UNL     1      21.529   7.277  47.115  1.00  0.00     0.157 HD
ENDBRANCH   1  31
TORSDOF 2
ENDMDL
MODEL 7
REMARK VINA RESULT:      -8.1      4.260      6.617
REMARK  2 active torsions:
REMARK  status: ('A' for Active; 'I' for Inactive)
REMARK    1  A    between atoms: N1_1  and  C1_2 
REMARK    2  A    between atoms: C5_8  and  C6_9 
ROOT
HETATM    1  C1  UNL     1      19.208   3.057  51.023  1.00  0.00     0.135 C 
HETATM    2  N2  UNL     1      20.173   3.746  50.326  1.00  0.00    -0.227 NA
HETATM    3  C2  UNL     1      19.674   5.151  50.174  1.00  0.00     0.235 C 
HETATM    4  N3  UNL     1      20.489   6.125  50.208  1.00  0.00    -0.242 NA
HETATM    5  C3  UNL     1      21.898   5.864  50.405  1.00  0.00     0.057 C 
HETATM    6  C4  UNL     1      22.933   6.021  49.558  1.00  0.00     0.020 C 
HETATM    7  C5  UNL     1      24.009   6.338  50.580  1.00  0.00     0.093 C 
HETATM    8  C12 UNL     1      23.849   5.176  51.424  1.00  0.00     0.026 C 
HETATM    9  C13 UNL     1      22.543   5.308  51.632  1.00  0.00     0.057 C 
HETATM   10  N4  UNL     1      24.388   4.025  52.090  1.00  0.00    -0.336 N 
HETATM   11  C14 UNL     1      23.783   2.850  51.722  1.00  0.00     0.172 C 
HETATM   12  S1  UNL     1      24.397   1.593  52.568  1.00  0.00    -0.041 SA
HETATM   13  N5  UNL     1      22.973   1.930  51.107  1.00  0.00    -0.365 N 
HETATM   14  C15 UNL     1      22.152   0.987  50.487  1.00  0.00     0.152 C 
HETATM   15  C16 UNL     1      21.123   0.335  51.329  1.00  0.00     0.293 C 
HETATM   16  N6  UNL     1      20.215   1.077  52.083  1.00  0.00     0.106 NA
HETATM   17  C17 UNL     1      19.662   0.124  53.093  1.00  0.00     0.299 C 
HETATM   18  C18 UNL     1      18.392  -0.469  52.535  1.00  0.00     0.198 C 
HETATM   19  O1  UNL     1      18.329  -0.498  51.157  1.00  0.00    -0.387 OA
HETATM   20  C19 UNL     1      18.294   0.781  50.592  1.00  0.00     0.211 C 
HETATM   21  C20 UNL     1      19.081   1.688  51.511  1.00  0.00     0.315 C 
HETATM   22  H11 UNL     1      25.116   4.354  52.661  1.00  0.00     0.168 HD
HETATM   23  H12 UNL     1      22.716   2.838  50.662  1.00  0.00     0.161 HD
ENDROOT
BRANCH   7  24
HETATM   24  C6  UNL     1      25.295   6.569  49.950  1.00  0.00    -0.043 A 
HETATM   25  C7  UNL     1      25.750   5.478  49.233  1.00  0.00     0.008 A 
HETATM   26  C8  UNL     1      26.965   5.624  48.561  1.00  0.00     0.002 A 
HETATM   27  C9  UNL     1      27.728   6.806  48.581  1.00  0.00     0.019 A 
HETATM   28  C10 UNL     1      27.229   7.889  49.319  1.00  0.00     0.011 A 
HETATM   29 BR1  UNL     1      28.296   9.452  49.318  1.00  0.00    -0.051 Br
HETATM   30  C11 UNL     1      26.029   7.705  49.963  1.00  0.00     0.027 A 
ENDBRANCH   7  24
BRANCH   1  31
HETATM   31  N1  UNL     1      18.350   4.175  51.122  1.00  0.00    -0.386 N 
HETATM   32  H1  UNL     1      17.666   4.279  50.303  1.00  0.00     0.157 HD
HETATM   33  H2  UNL     1      18.624   4.699  52.032  1.00  0.00     0.157 HD
ENDBRANCH   1  31
TORSDOF 2
ENDMDL
MODEL 8
REMARK VINA RESULT:      -8.1      3.375      5.286
REMARK  2 active torsions:
REMARK  status: ('A' for Active; 'I' for Inactive)
REMARK    1  A    between atoms: N1_1  and  C1_2 
REMARK    2  A    between atoms: C5_8  and  C6_9 
ROOT
HETATM    1  C1  UNL     1      26.700   6.670  48.528  1.00  0.00     0.135 C 
HETATM    2  N2  UNL     1      26.099   5.447  48.711  1.00  0.00    -0.227 NA
HETATM    3  C2  UNL     1      27.167   4.509  49.185  1.00  0.00     0.235 C 
HETATM    4  N3  UNL     1      26.891   3.600  50.029  1.00  0.00    -0.242 NA
HETATM    5  C3  UNL     1      25.539   3.488  50.533  1.00  0.00     0.057 C 
HETATM    6  C4  UNL     1      24.621   2.522  50.337  1.00  0.00     0.020 C 
HETATM    7  C5  UNL     1      23.898   2.633  51.667  1.00  0.00     0.093 C 
HETATM    8  C12 UNL     1      23.583   4.043  51.620  1.00  0.00     0.026 C 
HETATM    9  C13 UNL     1      24.818   4.475  51.391  1.00  0.00     0.057 C 
HETATM   10  N4  UNL     1      22.638   5.121  51.690  1.00  0.00    -0.336 N 
HETATM   11  C14 UNL     1      22.609   5.893  50.557  1.00  0.00     0.172 C 
HETATM   12  S1  UNL     1      21.564   7.139  50.731  1.00  0.00    -0.041 SA
HETATM   13  N5  UNL     1      22.857   6.389  49.302  1.00  0.00    -0.365 N 
HETATM   14  C15 UNL     1      23.104   6.901  48.028  1.00  0.00     0.152 C 
HETATM   15  C16 UNL     1      23.790   8.211  47.951  1.00  0.00     0.293 C 
HETATM   16  N6  UNL     1      24.997   8.445  48.609  1.00  0.00     0.106 NA
HETATM   17  C17 UNL     1      25.140   9.932  48.665  1.00  0.00     0.299 C 
HETATM   18  C18 UNL     1      25.949  10.371  47.470  1.00  0.00     0.198 C 
HETATM   19  O1  UNL     1      25.875   9.525  46.383  1.00  0.00    -0.387 OA
HETATM   20  C19 UNL     1      26.440   8.272  46.637  1.00  0.00     0.211 C 
HETATM   21  C20 UNL     1      26.232   7.987  48.108  1.00  0.00     0.315 C 
HETATM   22  H11 UNL     1      22.190   5.038  52.560  1.00  0.00     0.168 HD
HETATM   23  H12 UNL     1      23.460   5.540  49.368  1.00  0.00     0.161 HD
ENDROOT
BRANCH   7  24
HETATM   24  C6  UNL     1      22.809   1.680  51.766  1.00  0.00    -0.043 A 
HETATM   25  C7  UNL     1      22.002   1.661  50.643  1.00  0.00     0.008 A 
HETATM   26  C8  UNL     1      20.950   0.744  50.636  1.00  0.00     0.002 A 
HETATM   27  C9  UNL     1      20.680  -0.140  51.697  1.00  0.00     0.019 A 
HETATM   28  C10 UNL     1      21.524  -0.090  52.815  1.00  0.00     0.011 A 
HETATM   29 BR1  UNL     1      21.116  -1.295  54.215  1.00  0.00    -0.051 Br
HETATM   30  C11 UNL     1      22.550   0.825  52.781  1.00  0.00     0.027 A 
ENDBRANCH   7  24
BRANCH   1  31
HETATM   31  N1  UNL     1      27.977   6.204  48.910  1.00  0.00    -0.386 N 
HETATM   32  H1  UNL     1      28.447   6.786  49.679  1.00  0.00     0.157 HD
HETATM   33  H2  UNL     1      28.198   5.346  48.283  1.00  0.00     0.157 HD
ENDBRANCH   1  31
TORSDOF 2
ENDMDL
MODEL 9
REMARK VINA RESULT:      -8.0      1.865      2.517
REMARK  2 active torsions:
REMARK  status: ('A' for Active; 'I' for Inactive)
REMARK    1  A    between atoms: N1_1  and  C1_2 
REMARK    2  A    between atoms: C5_8  and  C6_9 
ROOT
HETATM    1  C1  UNL     1      20.113   6.061  49.856  1.00  0.00     0.135 C 
HETATM    2  N2  UNL     1      20.556   5.159  50.796  1.00  0.00    -0.227 NA
HETATM    3  C2  UNL     1      19.511   4.089  50.891  1.00  0.00     0.235 C 
HETATM    4  N3  UNL     1      19.850   2.882  51.099  1.00  0.00    -0.242 NA
HETATM    5  C3  UNL     1      21.253   2.553  51.231  1.00  0.00     0.057 C 
HETATM    6  C4  UNL     1      21.944   2.132  52.308  1.00  0.00     0.020 C 
HETATM    7  C5  UNL     1      22.979   1.287  51.588  1.00  0.00     0.093 C 
HETATM    8  C12 UNL     1      23.476   2.292  50.675  1.00  0.00     0.026 C 
HETATM    9  C13 UNL     1      22.299   2.643  50.169  1.00  0.00     0.057 C 
HETATM   10  N4  UNL     1      24.556   3.044  50.103  1.00  0.00    -0.336 N 
HETATM   11  C14 UNL     1      24.419   4.399  50.261  1.00  0.00     0.172 C 
HETATM   12  S1  UNL     1      25.644   5.195  49.527  1.00  0.00    -0.041 SA
HETATM   13  N5  UNL     1      23.946   5.636  50.620  1.00  0.00    -0.365 N 
HETATM   14  C15 UNL     1      23.471   6.897  50.980  1.00  0.00     0.152 C 
HETATM   15  C16 UNL     1      22.985   7.770  49.887  1.00  0.00     0.293 C 
HETATM   16  N6  UNL     1      22.025   7.336  48.975  1.00  0.00     0.106 NA
HETATM   17  C17 UNL     1      22.119   8.277  47.817  1.00  0.00     0.299 C 
HETATM   18  C18 UNL     1      21.114   9.383  48.027  1.00  0.00     0.198 C 
HETATM   19  O1  UNL     1      20.795   9.625  49.348  1.00  0.00    -0.387 OA
HETATM   20  C19 UNL     1      20.133   8.550  49.948  1.00  0.00     0.211 C 
HETATM   21  C20 UNL     1      20.651   7.292  49.288  1.00  0.00     0.315 C 
HETATM   22  H11 UNL     1      25.187   2.385  49.739  1.00  0.00     0.168 HD
HETATM   23  H12 UNL     1      23.259   4.967  51.033  1.00  0.00     0.161 HD
ENDROOT
BRANCH   7  24
HETATM   24  C6  UNL     1      23.908   0.671  52.517  1.00  0.00    -0.043 A 
HETATM   25  C7  UNL     1      23.280  -0.080  53.492  1.00  0.00     0.008 A 
HETATM   26  C8  UNL     1      24.101  -0.741  54.408  1.00  0.00     0.002 A 
HETATM   27  C9  UNL     1      25.507  -0.676  54.382  1.00  0.00     0.019 A 
HETATM   28  C10 UNL     1      26.103   0.097  53.375  1.00  0.00     0.011 A 
HETATM   29 BR1  UNL     1      27.993   0.155  53.388  1.00  0.00    -0.051 Br
HETATM   30  C11 UNL     1      25.259   0.728  52.493  1.00  0.00     0.027 A 
ENDBRANCH   7  24
BRANCH   1  31
HETATM   31  N1  UNL     1      18.915   5.355  49.609  1.00  0.00    -0.386 N 
HETATM   32  H1  UNL     1      18.492   5.532  48.639  1.00  0.00     0.157 HD
HETATM   33  H2  UNL     1      18.685   4.802  50.513  1.00  0.00     0.157 HD
ENDBRANCH   1  31
TORSDOF 2
ENDMDL
