MODEL 1
REMARK VINA RESULT:      -9.1      0.000      0.000
REMARK  7 active torsions:
REMARK  status: ('A' for Active; 'I' for Inactive)
REMARK    1  A    between atoms: N1_7  and  C6_8 
REMARK    2  A    between atoms: C6_8  and  C7_9 
REMARK    3  A    between atoms: C7_9  and  C8_10 
REMARK    4  A    between atoms: C8_10  and  O2_11 
REMARK    5  A    between atoms: O2_11  and  C9_12 
REMARK    6  A    between atoms: C16_21  and  N4_22 
REMARK    7  A    between atoms: N4_22  and  C17_23 
ROOT
HETATM    1  C9  UNL     1      24.811   3.244  50.334  1.00  0.00     0.181 A 
HETATM    2  C10 UNL     1      24.735   2.544  51.455  1.00  0.00     0.079 A 
HETATM    3  C11 UNL     1      23.601   1.641  51.602  1.00  0.00     0.024 A 
HETATM    4  C12 UNL     1      22.713   1.590  50.574  1.00  0.00     0.071 A 
HETATM    5  N2  UNL     1      21.647   0.764  50.682  1.00  0.00    -0.261 NA
HETATM    6  C13 UNL     1      21.473   0.009  51.785  1.00  0.00     0.142 A 
HETATM    7  C14 UNL     1      22.345   0.016  52.867  1.00  0.00     0.089 A 
HETATM    8  C15 UNL     1      22.144  -0.791  54.032  1.00  0.00     0.103 C 
HETATM    9  N3  UNL     1      21.962  -1.458  54.984  1.00  0.00    -0.191 NA
HETATM   10  C16 UNL     1      23.420   0.866  52.729  1.00  0.00     0.067 A 
HETATM   11  C23 UNL     1      22.771   2.356  49.302  1.00  0.00     0.238 A 
HETATM   12  O3  UNL     1      23.908   3.199  49.281  1.00  0.00    -0.324 OA
ENDROOT
BRANCH  10  13
HETATM   13  N4  UNL     1      24.357   0.919  53.805  1.00  0.00    -0.354 N 
HETATM   14  H19 UNL     1      24.183   1.354  54.737  1.00  0.00     0.166 HD
BRANCH  13  15
HETATM   15  C17 UNL     1      25.643   0.328  53.589  1.00  0.00     0.034 A 
HETATM   16  C18 UNL     1      25.779  -0.909  52.958  1.00  0.00     0.032 A 
HETATM   17  C19 UNL     1      27.060  -1.420  52.781  1.00  0.00     0.046 A 
HETATM   18  C20 UNL     1      28.183  -0.743  53.206  1.00  0.00     0.138 A 
HETATM   19  F1  UNL     1      29.447  -1.249  53.031  1.00  0.00    -0.204 F 
HETATM   20  C21 UNL     1      28.089   0.481  53.833  1.00  0.00     0.074 A 
HETATM   21 CL1  UNL     1      29.436   1.422  54.410  1.00  0.00    -0.081 Cl
HETATM   22  C22 UNL     1      26.804   0.953  53.991  1.00  0.00     0.056 A 
ENDBRANCH  13  15
ENDBRANCH  10  13
BRANCH   1  23
HETATM   23  O2  UNL     1      25.886   4.098  50.199  1.00  0.00    -0.331 OA
BRANCH  23  24
HETATM   24  C8  UNL     1      26.030   5.122  49.265  1.00  0.00     0.179 C 
BRANCH  24  25
HETATM   25  C7  UNL     1      27.398   5.159  48.627  1.00  0.00     0.057 C 
BRANCH  25  26
HETATM   26  C6  UNL     1      27.733   6.589  48.248  1.00  0.00     0.275 C 
BRANCH  26  27
HETATM   27  N1  UNL     1      29.067   6.618  47.648  1.00  0.00     0.097 N 
HETATM   28  C2  UNL     1      29.747   7.833  47.978  1.00  0.00     0.242 C 
HETATM   29  C1  UNL     1      30.244   8.559  46.727  1.00  0.00     0.045 C 
HETATM   30  C3  UNL     1      30.916   7.617  48.903  1.00  0.00     0.203 C 
HETATM   31  O1  UNL     1      31.835   6.709  48.380  1.00  0.00    -0.387 OA
HETATM   32  C4  UNL     1      31.246   5.640  47.735  1.00  0.00     0.198 C 
HETATM   33  C5  UNL     1      29.791   5.444  48.067  1.00  0.00     0.299 C 
ENDBRANCH  26  27
ENDBRANCH  25  26
ENDBRANCH  24  25
ENDBRANCH  23  24
ENDBRANCH   1  23
TORSDOF 7
ENDMDL
MODEL 2
REMARK VINA RESULT:      -9.0      1.360      1.723
REMARK  7 active torsions:
REMARK  status: ('A' for Active; 'I' for Inactive)
REMARK    1  A    between atoms: N1_7  and  C6_8 
REMARK    2  A    between atoms: C6_8  and  C7_9 
REMARK    3  A    between atoms: C7_9  and  C8_10 
REMARK    4  A    between atoms: C8_10  and  O2_11 
REMARK    5  A    between atoms: O2_11  and  C9_12 
REMARK    6  A    between atoms: C16_21  and  N4_22 
REMARK    7  A    between atoms: N4_22  and  C17_23 
ROOT
HETATM    1  C9  UNL     1      24.517   3.291  50.196  1.00  0.00     0.181 A 
HETATM    2  C10 UNL     1      24.521   2.622  51.338  1.00  0.00     0.079 A 
HETATM    3  C11 UNL     1      23.447   1.661  51.552  1.00  0.00     0.024 A 
HETATM    4  C12 UNL     1      22.528   1.529  50.559  1.00  0.00     0.071 A 
HETATM    5  N2  UNL     1      21.516   0.647  50.730  1.00  0.00    -0.261 NA
HETATM    6  C13 UNL     1      21.425  -0.082  51.859  1.00  0.00     0.142 A 
HETATM    7  C14 UNL     1      22.332   0.006  52.908  1.00  0.00     0.089 A 
HETATM    8  C15 UNL     1      22.218  -0.775  54.102  1.00  0.00     0.103 C 
HETATM    9  N3  UNL     1      22.109  -1.422  55.078  1.00  0.00    -0.191 NA
HETATM   10  C16 UNL     1      23.350   0.912  52.706  1.00  0.00     0.067 A 
HETATM   11  C23 UNL     1      22.498   2.258  49.265  1.00  0.00     0.238 A 
HETATM   12  O3  UNL     1      23.583   3.163  49.178  1.00  0.00    -0.324 OA
ENDROOT
BRANCH  10  13
HETATM   13  N4  UNL     1      24.320   1.050  53.746  1.00  0.00    -0.354 N 
HETATM   14  H19 UNL     1      24.180   1.575  54.636  1.00  0.00     0.166 HD
BRANCH  13  15
HETATM   15  C17 UNL     1      25.590   0.421  53.550  1.00  0.00     0.034 A 
HETATM   16  C18 UNL     1      25.698  -0.822  52.922  1.00  0.00     0.032 A 
HETATM   17  C19 UNL     1      26.966  -1.371  52.766  1.00  0.00     0.046 A 
HETATM   18  C20 UNL     1      28.102  -0.729  53.208  1.00  0.00     0.138 A 
HETATM   19  F1  UNL     1      29.352  -1.274  53.053  1.00  0.00    -0.204 F 
HETATM   20  C21 UNL     1      28.036   0.498  53.832  1.00  0.00     0.074 A 
HETATM   21 CL1  UNL     1      29.402   1.398  54.430  1.00  0.00    -0.081 Cl
HETATM   22  C22 UNL     1      26.763   1.010  53.970  1.00  0.00     0.056 A 
ENDBRANCH  13  15
ENDBRANCH  10  13
BRANCH   1  23
HETATM   23  O2  UNL     1      25.536   4.200  49.997  1.00  0.00    -0.331 OA
BRANCH  23  24
HETATM   24  C8  UNL     1      26.798   3.941  49.466  1.00  0.00     0.179 C 
BRANCH  24  25
HETATM   25  C7  UNL     1      27.340   5.079  48.635  1.00  0.00     0.057 C 
BRANCH  25  26
HETATM   26  C6  UNL     1      26.378   6.249  48.704  1.00  0.00     0.275 C 
BRANCH  26  27
HETATM   27  N1  UNL     1      27.095   7.472  48.344  1.00  0.00     0.097 N 
HETATM   28  C2  UNL     1      26.559   8.601  49.041  1.00  0.00     0.242 C 
HETATM   29  C1  UNL     1      26.164   9.723  48.080  1.00  0.00     0.045 C 
HETATM   30  C3  UNL     1      27.511   9.162  50.066  1.00  0.00     0.203 C 
HETATM   31  O1  UNL     1      28.736   9.514  49.504  1.00  0.00    -0.387 OA
HETATM   32  C4  UNL     1      29.181   8.620  48.550  1.00  0.00     0.198 C 
HETATM   33  C5  UNL     1      28.501   7.278  48.596  1.00  0.00     0.299 C 
ENDBRANCH  26  27
ENDBRANCH  25  26
ENDBRANCH  24  25
ENDBRANCH  23  24
ENDBRANCH   1  23
TORSDOF 7
ENDMDL
MODEL 3
REMARK VINA RESULT:      -8.9      5.127      8.336
REMARK  7 active torsions:
REMARK  status: ('A' for Active; 'I' for Inactive)
REMARK    1  A    between atoms: N1_7  and  C6_8 
REMARK    2  A    between atoms: C6_8  and  C7_9 
REMARK    3  A    between atoms: C7_9  and  C8_10 
REMARK    4  A    between atoms: C8_10  and  O2_11 
REMARK    5  A    between atoms: O2_11  and  C9_12 
REMARK    6  A    between atoms: C16_21  and  N4_22 
REMARK    7  A    between atoms: N4_22  and  C17_23 
ROOT
HETATM    1  C9  UNL     1      21.995  -1.007  53.752  1.00  0.00     0.181 A 
HETATM    2  C10 UNL     1      22.912  -0.314  53.096  1.00  0.00     0.079 A 
HETATM    3  C11 UNL     1      24.213  -0.158  53.734  1.00  0.00     0.024 A 
HETATM    4  C12 UNL     1      24.378  -0.738  54.953  1.00  0.00     0.071 A 
HETATM    5  N2  UNL     1      25.574  -0.607  55.572  1.00  0.00    -0.261 NA
HETATM    6  C13 UNL     1      26.575   0.082  54.992  1.00  0.00     0.142 A 
HETATM    7  C14 UNL     1      26.469   0.696  53.750  1.00  0.00     0.089 A 
HETATM    8  C15 UNL     1      27.543   1.428  53.150  1.00  0.00     0.103 C 
HETATM    9  N3  UNL     1      28.435   2.028  52.672  1.00  0.00    -0.191 NA
HETATM   10  C16 UNL     1      25.242   0.547  53.144  1.00  0.00     0.067 A 
HETATM   11  C23 UNL     1      23.374  -1.526  55.712  1.00  0.00     0.238 A 
HETATM   12  O3  UNL     1      22.155  -1.601  54.996  1.00  0.00    -0.324 OA
ENDROOT
BRANCH  10  13
HETATM   13  N4  UNL     1      25.065   1.152  51.862  1.00  0.00    -0.354 N 
HETATM   14  H19 UNL     1      25.322   0.718  50.949  1.00  0.00     0.166 HD
BRANCH  13  15
HETATM   15  C17 UNL     1      24.492   2.462  51.825  1.00  0.00     0.034 A 
HETATM   16  C18 UNL     1      24.238   3.180  52.995  1.00  0.00     0.032 A 
HETATM   17  C19 UNL     1      23.681   4.448  52.881  1.00  0.00     0.046 A 
HETATM   18  C20 UNL     1      23.378   5.007  51.658  1.00  0.00     0.138 A 
HETATM   19  F1  UNL     1      22.827   6.260  51.548  1.00  0.00    -0.204 F 
HETATM   20  C21 UNL     1      23.613   4.330  50.481  1.00  0.00     0.074 A 
HETATM   21 CL1  UNL     1      23.270   4.937  48.885  1.00  0.00    -0.081 Cl
HETATM   22  C22 UNL     1      24.165   3.077  50.635  1.00  0.00     0.056 A 
ENDBRANCH  13  15
ENDBRANCH  10  13
BRANCH   1  23
HETATM   23  O2  UNL     1      20.764  -1.153  53.145  1.00  0.00    -0.331 OA
BRANCH  23  24
HETATM   24  C8  UNL     1      19.625  -0.381  53.365  1.00  0.00     0.179 C 
BRANCH  24  25
HETATM   25  C7  UNL     1      18.543  -0.609  52.336  1.00  0.00     0.057 C 
BRANCH  25  26
HETATM   26  C6  UNL     1      18.082   0.730  51.793  1.00  0.00     0.275 C 
BRANCH  26  27
HETATM   27  N1  UNL     1      19.257   1.534  51.457  1.00  0.00     0.097 N 
HETATM   28  C2  UNL     1      19.693   1.267  50.121  1.00  0.00     0.242 C 
HETATM   29  C1  UNL     1      21.170   0.873  50.077  1.00  0.00     0.045 C 
HETATM   30  C3  UNL     1      19.479   2.432  49.191  1.00  0.00     0.203 C 
HETATM   31  O1  UNL     1      20.106   3.589  49.651  1.00  0.00    -0.387 OA
HETATM   32  C4  UNL     1      20.013   3.758  51.018  1.00  0.00     0.198 C 
HETATM   33  C5  UNL     1      18.945   2.925  51.673  1.00  0.00     0.299 C 
ENDBRANCH  26  27
ENDBRANCH  25  26
ENDBRANCH  24  25
ENDBRANCH  23  24
ENDBRANCH   1  23
TORSDOF 7
ENDMDL
MODEL 4
REMARK VINA RESULT:      -8.7      2.792      4.496
REMARK  7 active torsions:
REMARK  status: ('A' for Active; 'I' for Inactive)
REMARK    1  A    between atoms: N1_7  and  C6_8 
REMARK    2  A    between atoms: C6_8  and  C7_9 
REMARK    3  A    between atoms: C7_9  and  C8_10 
REMARK    4  A    between atoms: C8_10  and  O2_11 
REMARK    5  A    between atoms: O2_11  and  C9_12 
REMARK    6  A    between atoms: C16_21  and  N4_22 
REMARK    7  A    between atoms: N4_22  and  C17_23 
ROOT
HETATM    1  C9  UNL     1      24.561   3.225  49.839  1.00  0.00     0.181 A 
HETATM    2  C10 UNL     1      24.546   2.654  51.034  1.00  0.00     0.079 A 
HETATM    3  C11 UNL     1      23.440   1.752  51.327  1.00  0.00     0.024 A 
HETATM    4  C12 UNL     1      22.514   1.569  50.350  1.00  0.00     0.071 A 
HETATM    5  N2  UNL     1      21.473   0.740  50.594  1.00  0.00    -0.261 NA
HETATM    6  C13 UNL     1      21.360   0.111  51.780  1.00  0.00     0.142 A 
HETATM    7  C14 UNL     1      22.273   0.256  52.818  1.00  0.00     0.089 A 
HETATM    8  C15 UNL     1      22.136  -0.418  54.073  1.00  0.00     0.103 C 
HETATM    9  N3  UNL     1      22.007  -0.976  55.101  1.00  0.00    -0.191 NA
HETATM   10  C16 UNL     1      23.321   1.106  52.541  1.00  0.00     0.067 A 
HETATM   11  C23 UNL     1      22.505   2.187  48.999  1.00  0.00     0.238 A 
HETATM   12  O3  UNL     1      23.620   3.044  48.836  1.00  0.00    -0.324 OA
ENDROOT
BRANCH  10  13
HETATM   13  N4  UNL     1      24.298   1.297  53.565  1.00  0.00    -0.354 N 
HETATM   14  H19 UNL     1      24.177   1.893  54.412  1.00  0.00     0.166 HD
BRANCH  13  15
HETATM   15  C17 UNL     1      25.550   0.620  53.416  1.00  0.00     0.034 A 
HETATM   16  C18 UNL     1      25.630  -0.640  52.819  1.00  0.00     0.032 A 
HETATM   17  C19 UNL     1      26.881  -1.237  52.708  1.00  0.00     0.046 A 
HETATM   18  C20 UNL     1      28.027  -0.624  53.165  1.00  0.00     0.138 A 
HETATM   19  F1  UNL     1      29.261  -1.216  53.055  1.00  0.00    -0.204 F 
HETATM   20  C21 UNL     1      27.989   0.618  53.760  1.00  0.00     0.074 A 
HETATM   21 CL1  UNL     1      29.370   1.484  54.373  1.00  0.00    -0.081 Cl
HETATM   22  C22 UNL     1      26.732   1.177  53.853  1.00  0.00     0.056 A 
ENDBRANCH  13  15
ENDBRANCH  10  13
BRANCH   1  23
HETATM   23  O2  UNL     1      25.610   4.078  49.565  1.00  0.00    -0.331 OA
BRANCH  23  24
HETATM   24  C8  UNL     1      25.665   5.446  49.823  1.00  0.00     0.179 C 
BRANCH  24  25
HETATM   25  C7  UNL     1      25.209   6.291  48.657  1.00  0.00     0.057 C 
BRANCH  25  26
HETATM   26  C6  UNL     1      24.052   7.167  49.098  1.00  0.00     0.275 C 
BRANCH  26  27
HETATM   27  N1  UNL     1      22.879   6.321  49.322  1.00  0.00     0.097 N 
HETATM   28  C2  UNL     1      22.177   6.726  50.501  1.00  0.00     0.242 C 
HETATM   29  C1  UNL     1      21.980   5.560  51.470  1.00  0.00     0.045 C 
HETATM   30  C3  UNL     1      20.831   7.333  50.202  1.00  0.00     0.203 C 
HETATM   31  O1  UNL     1      20.021   6.471  49.464  1.00  0.00    -0.387 OA
HETATM   32  C4  UNL     1      20.707   5.772  48.490  1.00  0.00     0.198 C 
HETATM   33  C5  UNL     1      22.051   6.354  48.142  1.00  0.00     0.299 C 
ENDBRANCH  26  27
ENDBRANCH  25  26
ENDBRANCH  24  25
ENDBRANCH  23  24
ENDBRANCH   1  23
TORSDOF 7
ENDMDL
MODEL 5
REMARK VINA RESULT:      -8.7      5.435      8.668
REMARK  7 active torsions:
REMARK  status: ('A' for Active; 'I' for Inactive)
REMARK    1  A    between atoms: N1_7  and  C6_8 
REMARK    2  A    between atoms: C6_8  and  C7_9 
REMARK    3  A    between atoms: C7_9  and  C8_10 
REMARK    4  A    between atoms: C8_10  and  O2_11 
REMARK    5  A    between atoms: O2_11  and  C9_12 
REMARK    6  A    between atoms: C16_21  and  N4_22 
REMARK    7  A    between atoms: N4_22  and  C17_23 
ROOT
HETATM    1  C9  UNL     1      21.908  -1.027  53.834  1.00  0.00     0.181 A 
HETATM    2  C10 UNL     1      22.797  -0.330  53.144  1.00  0.00     0.079 A 
HETATM    3  C11 UNL     1      24.121  -0.172  53.729  1.00  0.00     0.024 A 
HETATM    4  C12 UNL     1      24.337  -0.753  54.939  1.00  0.00     0.071 A 
HETATM    5  N2  UNL     1      25.556  -0.621  55.511  1.00  0.00    -0.261 NA
HETATM    6  C13 UNL     1      26.531   0.073  54.893  1.00  0.00     0.142 A 
HETATM    7  C14 UNL     1      26.373   0.690  53.657  1.00  0.00     0.089 A 
HETATM    8  C15 UNL     1      27.421   1.426  53.016  1.00  0.00     0.103 C 
HETATM    9  N3  UNL     1      28.291   2.030  52.504  1.00  0.00    -0.191 NA
HETATM   10  C16 UNL     1      25.123   0.538  53.100  1.00  0.00     0.067 A 
HETATM   11  C23 UNL     1      23.366  -1.547  55.736  1.00  0.00     0.238 A 
HETATM   12  O3  UNL     1      22.120  -1.624  55.069  1.00  0.00    -0.324 OA
ENDROOT
BRANCH  10  13
HETATM   13  N4  UNL     1      24.894   1.145  51.827  1.00  0.00    -0.354 N 
HETATM   14  H19 UNL     1      25.047   0.687  50.903  1.00  0.00     0.166 HD
BRANCH  13  15
HETATM   15  C17 UNL     1      24.417   2.494  51.817  1.00  0.00     0.034 A 
HETATM   16  C18 UNL     1      24.147   3.180  53.003  1.00  0.00     0.032 A 
HETATM   17  C19 UNL     1      23.688   4.489  52.914  1.00  0.00     0.046 A 
HETATM   18  C20 UNL     1      23.497   5.118  51.703  1.00  0.00     0.138 A 
HETATM   19  F1  UNL     1      23.043   6.411  51.619  1.00  0.00    -0.204 F 
HETATM   20  C21 UNL     1      23.753   4.474  50.512  1.00  0.00     0.074 A 
HETATM   21 CL1  UNL     1      23.548   5.169  48.928  1.00  0.00    -0.081 Cl
HETATM   22  C22 UNL     1      24.205   3.179  50.640  1.00  0.00     0.056 A 
ENDBRANCH  13  15
ENDBRANCH  10  13
BRANCH   1  23
HETATM   23  O2  UNL     1      20.655  -1.175  53.276  1.00  0.00    -0.331 OA
BRANCH  23  24
HETATM   24  C8  UNL     1      19.657  -0.207  53.190  1.00  0.00     0.179 C 
BRANCH  24  25
HETATM   25  C7  UNL     1      18.565  -0.562  52.209  1.00  0.00     0.057 C 
BRANCH  25  26
HETATM   26  C6  UNL     1      18.598   0.417  51.051  1.00  0.00     0.275 C 
BRANCH  26  27
HETATM   27  N1  UNL     1      18.465   1.776  51.577  1.00  0.00     0.097 N 
HETATM   28  C2  UNL     1      19.427   2.650  50.980  1.00  0.00     0.242 C 
HETATM   29  C1  UNL     1      20.260   3.379  52.035  1.00  0.00     0.045 C 
HETATM   30  C3  UNL     1      18.800   3.676  50.071  1.00  0.00     0.203 C 
HETATM   31  O1  UNL     1      17.839   4.440  50.730  1.00  0.00    -0.387 OA
HETATM   32  C4  UNL     1      17.058   3.708  51.602  1.00  0.00     0.198 C 
HETATM   33  C5  UNL     1      17.108   2.220  51.377  1.00  0.00     0.299 C 
ENDBRANCH  26  27
ENDBRANCH  25  26
ENDBRANCH  24  25
ENDBRANCH  23  24
ENDBRANCH   1  23
TORSDOF 7
ENDMDL
MODEL 6
REMARK VINA RESULT:      -8.6      2.345      3.345
REMARK  7 active torsions:
REMARK  status: ('A' for Active; 'I' for Inactive)
REMARK    1  A    between atoms: N1_7  and  C6_8 
REMARK    2  A    between atoms: C6_8  and  C7_9 
REMARK    3  A    between atoms: C7_9  and  C8_10 
REMARK    4  A    between atoms: C8_10  and  O2_11 
REMARK    5  A    between atoms: O2_11  and  C9_12 
REMARK    6  A    between atoms: C16_21  and  N4_22 
REMARK    7  A    between atoms: N4_22  and  C17_23 
ROOT
HETATM    1  C9  UNL     1      26.636   5.106  49.202  1.00  0.00     0.181 A 
HETATM    2  C10 UNL     1      26.290   3.947  49.741  1.00  0.00     0.079 A 
HETATM    3  C11 UNL     1      25.175   3.955  50.679  1.00  0.00     0.024 A 
HETATM    4  C12 UNL     1      24.580   5.153  50.924  1.00  0.00     0.071 A 
HETATM    5  N2  UNL     1      23.544   5.193  51.793  1.00  0.00    -0.261 NA
HETATM    6  C13 UNL     1      23.114   4.070  52.401  1.00  0.00     0.142 A 
HETATM    7  C14 UNL     1      23.680   2.817  52.192  1.00  0.00     0.089 A 
HETATM    8  C15 UNL     1      23.212   1.634  52.849  1.00  0.00     0.103 C 
HETATM    9  N3  UNL     1      22.817   0.672  53.399  1.00  0.00    -0.191 NA
HETATM   10  C16 UNL     1      24.731   2.807  51.303  1.00  0.00     0.067 A 
HETATM   11  C23 UNL     1      24.938   6.467  50.332  1.00  0.00     0.238 A 
HETATM   12  O3  UNL     1      26.034   6.332  49.447  1.00  0.00    -0.324 OA
ENDROOT
BRANCH  10  13
HETATM   13  N4  UNL     1      25.356   1.550  51.041  1.00  0.00    -0.354 N 
HETATM   14  H19 UNL     1      25.133   0.920  50.240  1.00  0.00     0.166 HD
BRANCH  13  15
HETATM   15  C17 UNL     1      26.371   1.116  51.952  1.00  0.00     0.034 A 
HETATM   16  C18 UNL     1      27.065   2.022  52.755  1.00  0.00     0.032 A 
HETATM   17  C19 UNL     1      28.037   1.526  53.617  1.00  0.00     0.046 A 
HETATM   18  C20 UNL     1      28.327   0.182  53.698  1.00  0.00     0.138 A 
HETATM   19  F1  UNL     1      29.287  -0.305  54.550  1.00  0.00    -0.204 F 
HETATM   20  C21 UNL     1      27.663  -0.743  52.921  1.00  0.00     0.074 A 
HETATM   21 CL1  UNL     1      27.947  -2.462  52.940  1.00  0.00    -0.081 Cl
HETATM   22  C22 UNL     1      26.709  -0.215  52.079  1.00  0.00     0.056 A 
ENDBRANCH  13  15
ENDBRANCH  10  13
BRANCH   1  23
HETATM   23  O2  UNL     1      27.692   5.094  48.314  1.00  0.00    -0.331 OA
BRANCH  23  24
HETATM   24  C8  UNL     1      28.786   5.957  48.304  1.00  0.00     0.179 C 
BRANCH  24  25
HETATM   25  C7  UNL     1      30.069   5.288  47.872  1.00  0.00     0.057 C 
BRANCH  25  26
HETATM   26  C6  UNL     1      31.244   6.005  48.508  1.00  0.00     0.275 C 
BRANCH  26  27
HETATM   27  N1  UNL     1      32.461   5.665  47.770  1.00  0.00     0.097 N 
HETATM   28  C2  UNL     1      33.564   6.463  48.211  1.00  0.00     0.242 C 
HETATM   29  C1  UNL     1      34.238   7.187  47.045  1.00  0.00     0.045 C 
HETATM   30  C3  UNL     1      34.607   5.663  48.946  1.00  0.00     0.203 C 
HETATM   31  O1  UNL     1      35.090   4.603  48.181  1.00  0.00    -0.387 OA
HETATM   32  C4  UNL     1      34.110   3.967  47.444  1.00  0.00     0.198 C 
HETATM   33  C5  UNL     1      32.706   4.251  47.906  1.00  0.00     0.299 C 
ENDBRANCH  26  27
ENDBRANCH  25  26
ENDBRANCH  24  25
ENDBRANCH  23  24
ENDBRANCH   1  23
TORSDOF 7
ENDMDL
MODEL 7
REMARK VINA RESULT:      -8.3      4.604      7.445
REMARK  7 active torsions:
REMARK  status: ('A' for Active; 'I' for Inactive)
REMARK    1  A    between atoms: N1_7  and  C6_8 
REMARK    2  A    between atoms: C6_8  and  C7_9 
REMARK    3  A    between atoms: C7_9  and  C8_10 
REMARK    4  A    between atoms: C8_10  and  O2_11 
REMARK    5  A    between atoms: O2_11  and  C9_12 
REMARK    6  A    between atoms: C16_21  and  N4_22 
REMARK    7  A    between atoms: N4_22  and  C17_23 
ROOT
HETATM    1  C9  UNL     1      20.615  -0.127  52.395  1.00  0.00     0.181 A 
HETATM    2  C10 UNL     1      21.678   0.485  51.899  1.00  0.00     0.079 A 
HETATM    3  C11 UNL     1      22.934   0.332  52.621  1.00  0.00     0.024 A 
HETATM    4  C12 UNL     1      22.911  -0.429  53.748  1.00  0.00     0.071 A 
HETATM    5  N2  UNL     1      24.061  -0.587  54.443  1.00  0.00    -0.261 NA
HETATM    6  C13 UNL     1      25.201  -0.002  54.025  1.00  0.00     0.142 A 
HETATM    7  C14 UNL     1      25.288   0.786  52.884  1.00  0.00     0.089 A 
HETATM    8  C15 UNL     1      26.508   1.402  52.457  1.00  0.00     0.103 C 
HETATM    9  N3  UNL     1      27.517   1.904  52.121  1.00  0.00    -0.191 NA
HETATM   10  C16 UNL     1      24.103   0.929  52.198  1.00  0.00     0.067 A 
HETATM   11  C23 UNL     1      21.739  -1.135  54.327  1.00  0.00     0.238 A 
HETATM   12  O3  UNL     1      20.583  -0.905  53.544  1.00  0.00    -0.324 OA
ENDROOT
BRANCH  10  13
HETATM   13  N4  UNL     1      24.124   1.725  51.012  1.00  0.00    -0.354 N 
HETATM   14  H19 UNL     1      24.190   1.357  50.038  1.00  0.00     0.166 HD
BRANCH  13  15
HETATM   15  C17 UNL     1      24.051   3.145  51.170  1.00  0.00     0.034 A 
HETATM   16  C18 UNL     1      23.295   3.726  52.191  1.00  0.00     0.032 A 
HETATM   17  C19 UNL     1      23.273   5.113  52.283  1.00  0.00     0.046 A 
HETATM   18  C20 UNL     1      23.968   5.917  51.407  1.00  0.00     0.138 A 
HETATM   19  F1  UNL     1      23.943   7.287  51.500  1.00  0.00    -0.204 F 
HETATM   20  C21 UNL     1      24.724   5.381  50.387  1.00  0.00     0.074 A 
HETATM   21 CL1  UNL     1      25.640   6.298  49.224  1.00  0.00    -0.081 Cl
HETATM   22  C22 UNL     1      24.722   4.004  50.327  1.00  0.00     0.056 A 
ENDBRANCH  13  15
ENDBRANCH  10  13
BRANCH   1  23
HETATM   23  O2  UNL     1      19.427   0.020  51.708  1.00  0.00    -0.331 OA
BRANCH  23  24
HETATM   24  C8  UNL     1      18.602   1.143  51.694  1.00  0.00     0.179 C 
BRANCH  24  25
HETATM   25  C7  UNL     1      18.711   1.947  50.421  1.00  0.00     0.057 C 
BRANCH  25  26
HETATM   26  C6  UNL     1      19.532   3.194  50.689  1.00  0.00     0.275 C 
BRANCH  26  27
HETATM   27  N1  UNL     1      20.654   3.232  49.751  1.00  0.00     0.097 N 
HETATM   28  C2  UNL     1      20.422   2.355  48.644  1.00  0.00     0.242 C 
HETATM   29  C1  UNL     1      21.575   1.368  48.454  1.00  0.00     0.045 C 
HETATM   30  C3  UNL     1      20.204   3.093  47.348  1.00  0.00     0.203 C 
HETATM   31  O1  UNL     1      21.269   3.938  47.043  1.00  0.00    -0.387 OA
HETATM   32  C4  UNL     1      21.783   4.594  48.144  1.00  0.00     0.198 C 
HETATM   33  C5  UNL     1      20.873   4.597  49.343  1.00  0.00     0.299 C 
ENDBRANCH  26  27
ENDBRANCH  25  26
ENDBRANCH  24  25
ENDBRANCH  23  24
ENDBRANCH   1  23
TORSDOF 7
ENDMDL
MODEL 8
REMARK VINA RESULT:      -8.3      2.478      3.470
REMARK  7 active torsions:
REMARK  status: ('A' for Active; 'I' for Inactive)
REMARK    1  A    between atoms: N1_7  and  C6_8 
REMARK    2  A    between atoms: C6_8  and  C7_9 
REMARK    3  A    between atoms: C7_9  and  C8_10 
REMARK    4  A    between atoms: C8_10  and  O2_11 
REMARK    5  A    between atoms: O2_11  and  C9_12 
REMARK    6  A    between atoms: C16_21  and  N4_22 
REMARK    7  A    between atoms: N4_22  and  C17_23 
ROOT
HETATM    1  C9  UNL     1      26.681   4.857  49.238  1.00  0.00     0.181 A 
HETATM    2  C10 UNL     1      26.321   3.717  49.806  1.00  0.00     0.079 A 
HETATM    3  C11 UNL     1      25.178   3.754  50.708  1.00  0.00     0.024 A 
HETATM    4  C12 UNL     1      24.573   4.958  50.893  1.00  0.00     0.071 A 
HETATM    5  N2  UNL     1      23.510   5.024  51.728  1.00  0.00    -0.261 NA
HETATM    6  C13 UNL     1      23.065   3.922  52.361  1.00  0.00     0.142 A 
HETATM    7  C14 UNL     1      23.639   2.665  52.213  1.00  0.00     0.089 A 
HETATM    8  C15 UNL     1      23.153   1.504  52.896  1.00  0.00     0.103 C 
HETATM    9  N3  UNL     1      22.744   0.560  53.467  1.00  0.00    -0.191 NA
HETATM   10  C16 UNL     1      24.717   2.627  51.358  1.00  0.00     0.067 A 
HETATM   11  C23 UNL     1      24.946   6.252  50.266  1.00  0.00     0.238 A 
HETATM   12  O3  UNL     1      26.070   6.089  49.421  1.00  0.00    -0.324 OA
ENDROOT
BRANCH  10  13
HETATM   13  N4  UNL     1      25.353   1.364  51.159  1.00  0.00    -0.354 N 
HETATM   14  H19 UNL     1      25.142   0.696  50.386  1.00  0.00     0.166 HD
BRANCH  13  15
HETATM   15  C17 UNL     1      26.361   0.978  52.099  1.00  0.00     0.034 A 
HETATM   16  C18 UNL     1      26.926   1.901  52.981  1.00  0.00     0.032 A 
HETATM   17  C19 UNL     1      27.899   1.453  53.867  1.00  0.00     0.046 A 
HETATM   18  C20 UNL     1      28.313   0.139  53.897  1.00  0.00     0.138 A 
HETATM   19  F1  UNL     1      29.275  -0.301  54.772  1.00  0.00    -0.204 F 
HETATM   20  C21 UNL     1      27.779  -0.801  53.042  1.00  0.00     0.074 A 
HETATM   21 CL1  UNL     1      28.226  -2.484  52.991  1.00  0.00    -0.081 Cl
HETATM   22  C22 UNL     1      26.819  -0.320  52.179  1.00  0.00     0.056 A 
ENDBRANCH  13  15
ENDBRANCH  10  13
BRANCH   1  23
HETATM   23  O2  UNL     1      27.764   4.818  48.384  1.00  0.00    -0.331 OA
BRANCH  23  24
HETATM   24  C8  UNL     1      28.834   5.711  48.347  1.00  0.00     0.179 C 
BRANCH  24  25
HETATM   25  C7  UNL     1      28.581   6.909  47.464  1.00  0.00     0.057 C 
BRANCH  25  26
HETATM   26  C6  UNL     1      29.566   8.006  47.818  1.00  0.00     0.275 C 
BRANCH  26  27
HETATM   27  N1  UNL     1      28.887   9.299  47.725  1.00  0.00     0.097 N 
HETATM   28  C2  UNL     1      27.468   9.136  47.802  1.00  0.00     0.242 C 
HETATM   29  C1  UNL     1      26.760   9.788  46.614  1.00  0.00     0.045 C 
HETATM   30  C3  UNL     1      26.883   9.693  49.073  1.00  0.00     0.203 C 
HETATM   31  O1  UNL     1      27.196  11.040  49.247  1.00  0.00    -0.387 OA
HETATM   32  C4  UNL     1      28.487  11.357  48.872  1.00  0.00     0.198 C 
HETATM   33  C5  UNL     1      29.404  10.170  48.751  1.00  0.00     0.299 C 
ENDBRANCH  26  27
ENDBRANCH  25  26
ENDBRANCH  24  25
ENDBRANCH  23  24
ENDBRANCH   1  23
TORSDOF 7
ENDMDL
MODEL 9
REMARK VINA RESULT:      -8.1      4.322      6.984
REMARK  7 active torsions:
REMARK  status: ('A' for Active; 'I' for Inactive)
REMARK    1  A    between atoms: N1_7  and  C6_8 
REMARK    2  A    between atoms: C6_8  and  C7_9 
REMARK    3  A    between atoms: C7_9  and  C8_10 
REMARK    4  A    between atoms: C8_10  and  O2_11 
REMARK    5  A    between atoms: O2_11  and  C9_12 
REMARK    6  A    between atoms: C16_21  and  N4_22 
REMARK    7  A    between atoms: N4_22  and  C17_23 
ROOT
HETATM    1  C9  UNL     1      22.624   0.998  52.694  1.00  0.00     0.181 A 
HETATM    2  C10 UNL     1      22.826   1.497  51.485  1.00  0.00     0.079 A 
HETATM    3  C11 UNL     1      21.647   1.842  50.701  1.00  0.00     0.024 A 
HETATM    4  C12 UNL     1      20.435   1.624  51.276  1.00  0.00     0.071 A 
HETATM    5  N2  UNL     1      19.322   1.931  50.571  1.00  0.00    -0.261 NA
HETATM    6  C13 UNL     1      19.416   2.441  49.328  1.00  0.00     0.142 A 
HETATM    7  C14 UNL     1      20.624   2.688  48.687  1.00  0.00     0.089 A 
HETATM    8  C15 UNL     1      20.705   3.228  47.363  1.00  0.00     0.103 C 
HETATM    9  N3  UNL     1      20.755   3.669  46.274  1.00  0.00    -0.191 NA
HETATM   10  C16 UNL     1      21.739   2.365  49.427  1.00  0.00     0.067 A 
HETATM   11  C23 UNL     1      20.174   1.074  52.631  1.00  0.00     0.238 A 
HETATM   12  O3  UNL     1      21.391   0.772  53.289  1.00  0.00    -0.324 OA
ENDROOT
BRANCH  10  13
HETATM   13  N4  UNL     1      23.015   2.597  48.827  1.00  0.00    -0.354 N 
HETATM   14  H19 UNL     1      23.447   2.009  48.082  1.00  0.00     0.166 HD
BRANCH  13  15
HETATM   15  C17 UNL     1      23.764   3.725  49.288  1.00  0.00     0.034 A 
HETATM   16  C18 UNL     1      25.154   3.675  49.413  1.00  0.00     0.032 A 
HETATM   17  C19 UNL     1      25.815   4.811  49.865  1.00  0.00     0.046 A 
HETATM   18  C20 UNL     1      25.143   5.970  50.187  1.00  0.00     0.138 A 
HETATM   19  F1  UNL     1      25.798   7.090  50.634  1.00  0.00    -0.204 F 
HETATM   20  C21 UNL     1      23.772   6.058  50.077  1.00  0.00     0.074 A 
HETATM   21 CL1  UNL     1      22.821   7.468  50.455  1.00  0.00    -0.081 Cl
HETATM   22  C22 UNL     1      23.152   4.913  49.626  1.00  0.00     0.056 A 
ENDBRANCH  13  15
ENDBRANCH  10  13
BRANCH   1  23
HETATM   23  O2  UNL     1      23.742   0.673  53.434  1.00  0.00    -0.331 OA
BRANCH  23  24
HETATM   24  C8  UNL     1      24.390  -0.560  53.475  1.00  0.00     0.179 C 
BRANCH  24  25
HETATM   25  C7  UNL     1      25.096  -0.820  54.784  1.00  0.00     0.057 C 
BRANCH  25  26
HETATM   26  C6  UNL     1      26.079   0.304  55.051  1.00  0.00     0.275 C 
BRANCH  26  27
HETATM   27  N1  UNL     1      27.086   0.313  53.990  1.00  0.00     0.097 N 
HETATM   28  C2  UNL     1      27.115   1.581  53.327  1.00  0.00     0.242 C 
HETATM   29  C1  UNL     1      26.947   1.431  51.815  1.00  0.00     0.045 C 
HETATM   30  C3  UNL     1      28.382   2.352  53.595  1.00  0.00     0.203 C 
HETATM   31  O1  UNL     1      29.519   1.628  53.242  1.00  0.00    -0.387 OA
HETATM   32  C4  UNL     1      29.436   0.286  53.558  1.00  0.00     0.198 C 
HETATM   33  C5  UNL     1      28.361  -0.049  54.557  1.00  0.00     0.299 C 
ENDBRANCH  26  27
ENDBRANCH  25  26
ENDBRANCH  24  25
ENDBRANCH  23  24
ENDBRANCH   1  23
TORSDOF 7
ENDMDL
