MODEL 1
REMARK VINA RESULT:      -9.3      0.000      0.000
REMARK  6 active torsions:
REMARK  status: ('A' for Active; 'I' for Inactive)
REMARK    1  A    between atoms: N2_5  and  C4_6 
REMARK    2  A    between atoms: C4_6  and  C5_7 
REMARK    3  A    between atoms: C5_7  and  C6_8 
REMARK       I    between atoms: C6_8  and  N3_10 
REMARK    4  A    between atoms: N3_10  and  C7_11 
REMARK    5  A    between atoms: C11_15  and  N4_16 
REMARK    6  A    between atoms: C13_19  and  C14_20 
ROOT
HETATM    1  C7  UNL     1      22.724   1.267  51.158  1.00  0.00     0.035 A 
HETATM    2  C8  UNL     1      21.541   0.643  51.477  1.00  0.00     0.030 A 
HETATM    3  C9  UNL     1      21.352  -0.154  52.568  1.00  0.00     0.016 A 
HETATM    4  C10 UNL     1      22.378  -0.378  53.435  1.00  0.00    -0.001 A 
HETATM    5  C11 UNL     1      22.222  -1.187  54.540  1.00  0.00     0.035 A 
HETATM    6  C12 UNL     1      23.337  -1.347  55.338  1.00  0.00     0.141 A 
HETATM    7  N5  UNL     1      24.503  -0.745  55.048  1.00  0.00    -0.258 NA
HETATM    8  C13 UNL     1      24.680   0.059  53.962  1.00  0.00     0.078 A 
HETATM    9  C20 UNL     1      23.582   0.233  53.149  1.00  0.00     0.008 A 
HETATM   10  C21 UNL     1      23.739   1.024  52.048  1.00  0.00     0.044 A 
ENDROOT
BRANCH   1  11
HETATM   11  N3  UNL     1      22.982   2.101  50.047  1.00  0.00    -0.327 N 
HETATM   12  C6  UNL     1      22.906   3.507  49.964  1.00  0.00     0.223 C 
HETATM   13  O1  UNL     1      22.573   4.171  50.974  1.00  0.00    -0.273 OA
HETATM   14  H12 UNL     1      23.268   1.691  49.141  1.00  0.00     0.169 HD
BRANCH  12  15
HETATM   15  C5  UNL     1      23.200   4.293  48.741  1.00  0.00     0.122 C 
BRANCH  15  16
HETATM   16  C4  UNL     1      23.676   5.681  49.109  1.00  0.00     0.126 C 
BRANCH  16  17
HETATM   17  N2  UNL     1      24.869   6.070  48.461  1.00  0.00    -0.409 N 
HETATM   18  C3  UNL     1      26.047   5.765  49.195  1.00  0.00     0.147 C 
HETATM   19  C2  UNL     1      27.318   6.180  48.536  1.00  0.00     0.291 C 
HETATM   20  N1  UNL     1      27.254   7.608  48.303  1.00  0.00     0.087 N 
HETATM   21  C1  UNL     1      27.167   8.378  49.524  1.00  0.00     0.310 C 
HETATM   22  C23 UNL     1      26.171   7.844  47.403  1.00  0.00     0.291 C 
HETATM   23  C22 UNL     1      24.842   7.330  47.820  1.00  0.00     0.147 C 
ENDBRANCH  16  17
ENDBRANCH  15  16
ENDBRANCH  12  15
ENDBRANCH   1  11
BRANCH   8  24
HETATM   24  C14 UNL     1      26.010   0.626  53.799  1.00  0.00    -0.005 A 
HETATM   25  C15 UNL     1      26.448   1.927  53.693  1.00  0.00     0.014 A 
HETATM   26  C16 UNL     1      27.786   2.199  53.513  1.00  0.00     0.002 A 
HETATM   27  C17 UNL     1      28.761   1.229  53.431  1.00  0.00     0.019 A 
HETATM   28  C18 UNL     1      28.336  -0.079  53.536  1.00  0.00     0.011 A 
HETATM   29 BR1  UNL     1      29.676  -1.425  53.424  1.00  0.00    -0.051 Br
HETATM   30  C19 UNL     1      26.998  -0.363  53.715  1.00  0.00     0.032 A 
ENDBRANCH   8  24
BRANCH   5  31
HETATM   31  N4  UNL     1      20.944  -1.776  54.756  1.00  0.00    -0.301 NA
HETATM   32  H15 UNL     1      20.038  -1.268  54.639  1.00  0.00     0.124 HD
HETATM   33  H16 UNL     1      19.986  -1.345  54.664  1.00  0.00     0.124 HD
ENDBRANCH   5  31
TORSDOF 6
ENDMDL
MODEL 2
REMARK VINA RESULT:      -9.1      1.873      2.331
REMARK  6 active torsions:
REMARK  status: ('A' for Active; 'I' for Inactive)
REMARK    1  A    between atoms: N2_5  and  C4_6 
REMARK    2  A    between atoms: C4_6  and  C5_7 
REMARK    3  A    between atoms: C5_7  and  C6_8 
REMARK       I    between atoms: C6_8  and  N3_10 
REMARK    4  A    between atoms: N3_10  and  C7_11 
REMARK    5  A    between atoms: C11_15  and  N4_16 
REMARK    6  A    between atoms: C13_19  and  C14_20 
ROOT
HETATM    1  C7  UNL     1      22.464   1.350  51.331  1.00  0.00     0.035 A 
HETATM    2  C8  UNL     1      21.307   0.690  51.670  1.00  0.00     0.030 A 
HETATM    3  C9  UNL     1      21.181  -0.168  52.723  1.00  0.00     0.016 A 
HETATM    4  C10 UNL     1      22.250  -0.421  53.527  1.00  0.00    -0.001 A 
HETATM    5  C11 UNL     1      22.158  -1.292  54.593  1.00  0.00     0.035 A 
HETATM    6  C12 UNL     1      23.311  -1.476  55.328  1.00  0.00     0.141 A 
HETATM    7  N5  UNL     1      24.454  -0.840  55.017  1.00  0.00    -0.258 NA
HETATM    8  C13 UNL     1      24.568   0.025  53.969  1.00  0.00     0.078 A 
HETATM    9  C20 UNL     1      23.430   0.224  53.220  1.00  0.00     0.008 A 
HETATM   10  C21 UNL     1      23.524   1.076  52.158  1.00  0.00     0.044 A 
ENDROOT
BRANCH   1  11
HETATM   11  N3  UNL     1      22.658   2.247  50.256  1.00  0.00    -0.327 N 
HETATM   12  C6  UNL     1      22.296   2.089  48.901  1.00  0.00     0.223 C 
HETATM   13  O1  UNL     1      21.722   1.038  48.530  1.00  0.00    -0.273 OA
HETATM   14  H12 UNL     1      23.122   3.158  50.412  1.00  0.00     0.169 HD
BRANCH  12  15
HETATM   15  C5  UNL     1      22.546   3.098  47.843  1.00  0.00     0.122 C 
BRANCH  15  16
HETATM   16  C4  UNL     1      21.486   4.177  47.884  1.00  0.00     0.126 C 
BRANCH  16  17
HETATM   17  N2  UNL     1      21.870   5.332  48.599  1.00  0.00    -0.409 N 
HETATM   18  C3  UNL     1      23.275   5.543  48.639  1.00  0.00     0.147 C 
HETATM   19  C2  UNL     1      23.704   6.749  49.402  1.00  0.00     0.291 C 
HETATM   20  N1  UNL     1      23.198   6.625  50.754  1.00  0.00     0.087 N 
HETATM   21  C1  UNL     1      23.745   5.489  51.462  1.00  0.00     0.310 C 
HETATM   22  C23 UNL     1      21.772   6.613  50.676  1.00  0.00     0.291 C 
HETATM   23  C22 UNL     1      21.168   5.576  49.802  1.00  0.00     0.147 C 
ENDBRANCH  16  17
ENDBRANCH  15  16
ENDBRANCH  12  15
ENDBRANCH   1  11
BRANCH   8  24
HETATM   24  C14 UNL     1      25.880   0.621  53.776  1.00  0.00    -0.005 A 
HETATM   25  C15 UNL     1      26.283   1.930  53.626  1.00  0.00     0.014 A 
HETATM   26  C16 UNL     1      27.611   2.231  53.425  1.00  0.00     0.002 A 
HETATM   27  C17 UNL     1      28.612   1.284  53.362  1.00  0.00     0.019 A 
HETATM   28  C18 UNL     1      28.223  -0.031  53.511  1.00  0.00     0.011 A 
HETATM   29 BR1  UNL     1      29.597  -1.343  53.426  1.00  0.00    -0.051 Br
HETATM   30  C19 UNL     1      26.894  -0.344  53.713  1.00  0.00     0.032 A 
ENDBRANCH   8  24
BRANCH   5  31
HETATM   31  N4  UNL     1      20.900  -1.912  54.836  1.00  0.00    -0.301 NA
HETATM   32  H15 UNL     1      20.081  -1.849  54.188  1.00  0.00     0.124 HD
HETATM   33  H16 UNL     1      20.026  -1.903  54.245  1.00  0.00     0.124 HD
ENDBRANCH   5  31
TORSDOF 6
ENDMDL
MODEL 3
REMARK VINA RESULT:      -8.9      2.966      4.292
REMARK  6 active torsions:
REMARK  status: ('A' for Active; 'I' for Inactive)
REMARK    1  A    between atoms: N2_5  and  C4_6 
REMARK    2  A    between atoms: C4_6  and  C5_7 
REMARK    3  A    between atoms: C5_7  and  C6_8 
REMARK       I    between atoms: C6_8  and  N3_10 
REMARK    4  A    between atoms: N3_10  and  C7_11 
REMARK    5  A    between atoms: C11_15  and  N4_16 
REMARK    6  A    between atoms: C13_19  and  C14_20 
ROOT
HETATM    1  C7  UNL     1      25.785   3.609  49.632  1.00  0.00     0.035 A 
HETATM    2  C8  UNL     1      24.458   3.604  49.271  1.00  0.00     0.030 A 
HETATM    3  C9  UNL     1      23.481   2.904  49.915  1.00  0.00     0.016 A 
HETATM    4  C10 UNL     1      23.789   2.142  51.000  1.00  0.00    -0.001 A 
HETATM    5  C11 UNL     1      22.826   1.414  51.665  1.00  0.00     0.035 A 
HETATM    6  C12 UNL     1      23.263   0.670  52.742  1.00  0.00     0.141 A 
HETATM    7  N5  UNL     1      24.553   0.661  53.115  1.00  0.00    -0.258 NA
HETATM    8  C13 UNL     1      25.524   1.373  52.473  1.00  0.00     0.078 A 
HETATM    9  C20 UNL     1      25.112   2.121  51.393  1.00  0.00     0.008 A 
HETATM   10  C21 UNL     1      26.067   2.833  50.727  1.00  0.00     0.044 A 
ENDROOT
BRANCH   1  11
HETATM   11  N3  UNL     1      26.842   4.310  49.007  1.00  0.00    -0.327 N 
HETATM   12  C6  UNL     1      26.989   5.700  48.822  1.00  0.00     0.223 C 
HETATM   13  O1  UNL     1      26.102   6.480  49.244  1.00  0.00    -0.273 OA
HETATM   14  H12 UNL     1      27.647   3.796  48.609  1.00  0.00     0.169 HD
BRANCH  12  15
HETATM   15  C5  UNL     1      28.145   6.340  48.148  1.00  0.00     0.122 C 
BRANCH  15  16
HETATM   16  C4  UNL     1      29.347   5.422  48.183  1.00  0.00     0.126 C 
BRANCH  16  17
HETATM   17  N2  UNL     1      30.517   5.986  47.626  1.00  0.00    -0.409 N 
HETATM   18  C3  UNL     1      31.508   5.029  47.281  1.00  0.00     0.147 C 
HETATM   19  C2  UNL     1      32.757   5.603  46.706  1.00  0.00     0.291 C 
HETATM   20  N1  UNL     1      33.305   6.536  47.670  1.00  0.00     0.087 N 
HETATM   21  C1  UNL     1      33.691   5.905  48.913  1.00  0.00     0.310 C 
HETATM   22  C23 UNL     1      32.350   7.585  47.837  1.00  0.00     0.291 C 
HETATM   23  C22 UNL     1      30.981   7.174  48.237  1.00  0.00     0.147 C 
ENDBRANCH  16  17
ENDBRANCH  15  16
ENDBRANCH  12  15
ENDBRANCH   1  11
BRANCH   8  24
HETATM   24  C14 UNL     1      26.869   1.244  53.010  1.00  0.00    -0.005 A 
HETATM   25  C15 UNL     1      27.738   2.168  53.546  1.00  0.00     0.014 A 
HETATM   26  C16 UNL     1      28.992   1.784  53.964  1.00  0.00     0.002 A 
HETATM   27  C17 UNL     1      29.465   0.491  53.885  1.00  0.00     0.019 A 
HETATM   28  C18 UNL     1      28.604  -0.445  53.351  1.00  0.00     0.011 A 
HETATM   29 BR1  UNL     1      29.248  -2.232  53.239  1.00  0.00    -0.051 Br
HETATM   30  C19 UNL     1      27.345  -0.071  52.928  1.00  0.00     0.032 A 
ENDBRANCH   8  24
BRANCH   5  31
HETATM   31  N4  UNL     1      21.487   1.494  51.189  1.00  0.00    -0.301 NA
HETATM   32  H15 UNL     1      20.642   1.348  51.788  1.00  0.00     0.124 HD
HETATM   33  H16 UNL     1      20.582   1.363  51.715  1.00  0.00     0.124 HD
ENDBRANCH   5  31
TORSDOF 6
ENDMDL
MODEL 4
REMARK VINA RESULT:      -8.6      3.274      7.149
REMARK  6 active torsions:
REMARK  status: ('A' for Active; 'I' for Inactive)
REMARK    1  A    between atoms: N2_5  and  C4_6 
REMARK    2  A    between atoms: C4_6  and  C5_7 
REMARK    3  A    between atoms: C5_7  and  C6_8 
REMARK       I    between atoms: C6_8  and  N3_10 
REMARK    4  A    between atoms: N3_10  and  C7_11 
REMARK    5  A    between atoms: C11_15  and  N4_16 
REMARK    6  A    between atoms: C13_19  and  C14_20 
ROOT
HETATM    1  C7  UNL     1      23.925  -0.352  53.474  1.00  0.00     0.035 A 
HETATM    2  C8  UNL     1      24.785  -0.908  54.392  1.00  0.00     0.030 A 
HETATM    3  C9  UNL     1      26.082  -0.526  54.571  1.00  0.00     0.016 A 
HETATM    4  C10 UNL     1      26.610   0.473  53.812  1.00  0.00    -0.001 A 
HETATM    5  C11 UNL     1      27.921   0.874  53.962  1.00  0.00     0.035 A 
HETATM    6  C12 UNL     1      28.345   1.888  53.127  1.00  0.00     0.141 A 
HETATM    7  N5  UNL     1      27.522   2.448  52.225  1.00  0.00    -0.258 NA
HETATM    8  C13 UNL     1      26.223   2.069  52.059  1.00  0.00     0.078 A 
HETATM    9  C20 UNL     1      25.777   1.057  52.879  1.00  0.00     0.008 A 
HETATM   10  C21 UNL     1      24.483   0.651  52.724  1.00  0.00     0.044 A 
ENDROOT
BRANCH   1  11
HETATM   11  N3  UNL     1      22.576  -0.702  53.240  1.00  0.00    -0.327 N 
HETATM   12  C6  UNL     1      21.620  -1.188  54.157  1.00  0.00     0.223 C 
HETATM   13  O1  UNL     1      21.940  -1.355  55.358  1.00  0.00    -0.273 OA
HETATM   14  H12 UNL     1      22.170  -0.617  52.292  1.00  0.00     0.169 HD
BRANCH  12  15
HETATM   15  C5  UNL     1      20.219  -1.528  53.808  1.00  0.00     0.122 C 
BRANCH  15  16
HETATM   16  C4  UNL     1      19.451  -0.278  53.438  1.00  0.00     0.126 C 
BRANCH  16  17
HETATM   17  N2  UNL     1      19.205  -0.144  52.054  1.00  0.00    -0.409 N 
HETATM   18  C3  UNL     1      19.893   0.942  51.450  1.00  0.00     0.147 C 
HETATM   19  C2  UNL     1      19.637   1.111  49.992  1.00  0.00     0.291 C 
HETATM   20  N1  UNL     1      18.211   1.285  49.808  1.00  0.00     0.087 N 
HETATM   21  C1  UNL     1      17.698   2.478  50.445  1.00  0.00     0.310 C 
HETATM   22  C23 UNL     1      17.574   0.086  50.251  1.00  0.00     0.291 C 
HETATM   23  C22 UNL     1      17.866  -0.341  51.642  1.00  0.00     0.147 C 
ENDBRANCH  16  17
ENDBRANCH  15  16
ENDBRANCH  12  15
ENDBRANCH   1  11
BRANCH   8  24
HETATM   24  C14 UNL     1      25.478   2.780  51.033  1.00  0.00    -0.005 A 
HETATM   25  C15 UNL     1      24.200   2.619  50.545  1.00  0.00     0.014 A 
HETATM   26  C16 UNL     1      23.734   3.423  49.530  1.00  0.00     0.002 A 
HETATM   27  C17 UNL     1      24.480   4.421  48.939  1.00  0.00     0.019 A 
HETATM   28  C18 UNL     1      25.762   4.594  49.417  1.00  0.00     0.011 A 
HETATM   29 BR1  UNL     1      26.798   5.969  48.608  1.00  0.00    -0.051 Br
HETATM   30  C19 UNL     1      26.239   3.793  50.435  1.00  0.00     0.032 A 
ENDBRANCH   8  24
BRANCH   5  31
HETATM   31  N4  UNL     1      28.708   0.216  54.949  1.00  0.00    -0.301 NA
HETATM   32  H15 UNL     1      28.475   0.201  55.969  1.00  0.00     0.124 HD
HETATM   33  H16 UNL     1      28.552   0.149  55.990  1.00  0.00     0.124 HD
ENDBRANCH   5  31
TORSDOF 6
ENDMDL
MODEL 5
REMARK VINA RESULT:      -8.6      4.420      7.854
REMARK  6 active torsions:
REMARK  status: ('A' for Active; 'I' for Inactive)
REMARK    1  A    between atoms: N2_5  and  C4_6 
REMARK    2  A    between atoms: C4_6  and  C5_7 
REMARK    3  A    between atoms: C5_7  and  C6_8 
REMARK       I    between atoms: C6_8  and  N3_10 
REMARK    4  A    between atoms: N3_10  and  C7_11 
REMARK    5  A    between atoms: C11_15  and  N4_16 
REMARK    6  A    between atoms: C13_19  and  C14_20 
ROOT
HETATM    1  C7  UNL     1      20.576  -0.539  53.439  1.00  0.00     0.035 A 
HETATM    2  C8  UNL     1      21.017  -1.262  54.523  1.00  0.00     0.030 A 
HETATM    3  C9  UNL     1      22.318  -1.342  54.926  1.00  0.00     0.016 A 
HETATM    4  C10 UNL     1      23.287  -0.677  54.241  1.00  0.00    -0.001 A 
HETATM    5  C11 UNL     1      24.612  -0.747  54.616  1.00  0.00     0.035 A 
HETATM    6  C12 UNL     1      25.503  -0.039  53.836  1.00  0.00     0.141 A 
HETATM    7  N5  UNL     1      25.096   0.676  52.774  1.00  0.00    -0.258 NA
HETATM    8  C13 UNL     1      23.792   0.761  52.384  1.00  0.00     0.078 A 
HETATM    9  C20 UNL     1      22.884   0.061  53.146  1.00  0.00     0.008 A 
HETATM   10  C21 UNL     1      21.574   0.121  52.767  1.00  0.00     0.044 A 
ENDROOT
BRANCH   1  11
HETATM   11  N3  UNL     1      19.248  -0.417  52.972  1.00  0.00    -0.327 N 
HETATM   12  C6  UNL     1      18.177  -1.323  53.116  1.00  0.00     0.223 C 
HETATM   13  O1  UNL     1      18.354  -2.401  53.731  1.00  0.00    -0.273 OA
HETATM   14  H12 UNL     1      18.955   0.424  52.444  1.00  0.00     0.169 HD
BRANCH  12  15
HETATM   15  C5  UNL     1      16.810  -1.099  52.584  1.00  0.00     0.122 C 
BRANCH  15  16
HETATM   16  C4  UNL     1      16.826  -0.004  51.539  1.00  0.00     0.126 C 
BRANCH  16  17
HETATM   17  N2  UNL     1      15.667   0.801  51.534  1.00  0.00    -0.409 N 
HETATM   18  C3  UNL     1      15.832   2.043  50.864  1.00  0.00     0.147 C 
HETATM   19  C2  UNL     1      14.624   2.916  50.859  1.00  0.00     0.291 C 
HETATM   20  N1  UNL     1      14.245   3.160  52.235  1.00  0.00     0.087 N 
HETATM   21  C1  UNL     1      15.254   3.878  52.983  1.00  0.00     0.310 C 
HETATM   22  C23 UNL     1      13.900   1.900  52.812  1.00  0.00     0.291 C 
HETATM   23  C22 UNL     1      14.934   0.837  52.743  1.00  0.00     0.147 C 
ENDBRANCH  16  17
ENDBRANCH  15  16
ENDBRANCH  12  15
ENDBRANCH   1  11
BRANCH   8  24
HETATM   24  C14 UNL     1      23.531   1.577  51.209  1.00  0.00    -0.005 A 
HETATM   25  C15 UNL     1      22.472   1.610  50.329  1.00  0.00     0.014 A 
HETATM   26  C16 UNL     1      22.482   2.476  49.259  1.00  0.00     0.002 A 
HETATM   27  C17 UNL     1      23.513   3.350  48.989  1.00  0.00     0.019 A 
HETATM   28  C18 UNL     1      24.580   3.328  49.863  1.00  0.00     0.011 A 
HETATM   29 BR1  UNL     1      26.008   4.532  49.499  1.00  0.00    -0.051 Br
HETATM   30  C19 UNL     1      24.581   2.464  50.939  1.00  0.00     0.032 A 
ENDBRANCH   8  24
BRANCH   5  31
HETATM   31  N4  UNL     1      24.937  -1.533  55.758  1.00  0.00    -0.301 NA
HETATM   32  H15 UNL     1      24.465  -1.438  56.687  1.00  0.00     0.124 HD
HETATM   33  H16 UNL     1      24.518  -1.507  56.726  1.00  0.00     0.124 HD
ENDBRANCH   5  31
TORSDOF 6
ENDMDL
MODEL 6
REMARK VINA RESULT:      -8.6      2.119      3.002
REMARK  6 active torsions:
REMARK  status: ('A' for Active; 'I' for Inactive)
REMARK    1  A    between atoms: N2_5  and  C4_6 
REMARK    2  A    between atoms: C4_6  and  C5_7 
REMARK    3  A    between atoms: C5_7  and  C6_8 
REMARK       I    between atoms: C6_8  and  N3_10 
REMARK    4  A    between atoms: N3_10  and  C7_11 
REMARK    5  A    between atoms: C11_15  and  N4_16 
REMARK    6  A    between atoms: C13_19  and  C14_20 
ROOT
HETATM    1  C7  UNL     1      22.707   1.344  51.278  1.00  0.00     0.035 A 
HETATM    2  C8  UNL     1      21.532   0.704  51.598  1.00  0.00     0.030 A 
HETATM    3  C9  UNL     1      21.368  -0.130  52.665  1.00  0.00     0.016 A 
HETATM    4  C10 UNL     1      22.411  -0.380  53.503  1.00  0.00    -0.001 A 
HETATM    5  C11 UNL     1      22.280  -1.227  54.583  1.00  0.00     0.035 A 
HETATM    6  C12 UNL     1      23.411  -1.410  55.352  1.00  0.00     0.141 A 
HETATM    7  N5  UNL     1      24.569  -0.795  55.060  1.00  0.00    -0.258 NA
HETATM    8  C13 UNL     1      24.723   0.047  53.998  1.00  0.00     0.078 A 
HETATM    9  C20 UNL     1      23.608   0.244  53.214  1.00  0.00     0.008 A 
HETATM   10  C21 UNL     1      23.741   1.073  52.138  1.00  0.00     0.044 A 
ENDROOT
BRANCH   1  11
HETATM   11  N3  UNL     1      22.941   2.216  50.190  1.00  0.00    -0.327 N 
HETATM   12  C6  UNL     1      22.826   3.621  50.149  1.00  0.00     0.223 C 
HETATM   13  O1  UNL     1      22.475   4.247  51.177  1.00  0.00    -0.273 OA
HETATM   14  H12 UNL     1      23.237   1.840  49.273  1.00  0.00     0.169 HD
BRANCH  12  15
HETATM   15  C5  UNL     1      23.096   4.450  48.948  1.00  0.00     0.122 C 
BRANCH  15  16
HETATM   16  C4  UNL     1      22.189   5.661  48.930  1.00  0.00     0.126 C 
BRANCH  16  17
HETATM   17  N2  UNL     1      21.675   5.974  47.653  1.00  0.00    -0.409 N 
HETATM   18  C3  UNL     1      20.516   5.232  47.301  1.00  0.00     0.147 C 
HETATM   19  C2  UNL     1      19.966   5.536  45.950  1.00  0.00     0.291 C 
HETATM   20  N1  UNL     1      21.009   5.287  44.977  1.00  0.00     0.087 N 
HETATM   21  C1  UNL     1      21.427   3.903  44.935  1.00  0.00     0.310 C 
HETATM   22  C23 UNL     1      22.076   6.195  45.254  1.00  0.00     0.291 C 
HETATM   23  C22 UNL     1      22.633   6.157  46.629  1.00  0.00     0.147 C 
ENDBRANCH  16  17
ENDBRANCH  15  16
ENDBRANCH  12  15
ENDBRANCH   1  11
BRANCH   8  24
HETATM   24  C14 UNL     1      26.047   0.623  53.829  1.00  0.00    -0.005 A 
HETATM   25  C15 UNL     1      26.476   1.928  53.726  1.00  0.00     0.014 A 
HETATM   26  C16 UNL     1      27.810   2.210  53.538  1.00  0.00     0.002 A 
HETATM   27  C17 UNL     1      28.792   1.246  53.443  1.00  0.00     0.019 A 
HETATM   28  C18 UNL     1      28.376  -0.065  53.545  1.00  0.00     0.011 A 
HETATM   29 BR1  UNL     1      29.724  -1.401  53.415  1.00  0.00    -0.051 Br
HETATM   30  C19 UNL     1      27.041  -0.359  53.732  1.00  0.00     0.032 A 
ENDBRANCH   8  24
BRANCH   5  31
HETATM   31  N4  UNL     1      21.008  -1.828  54.804  1.00  0.00    -0.301 NA
HETATM   32  H15 UNL     1      20.523  -2.443  54.111  1.00  0.00     0.124 HD
HETATM   33  H16 UNL     1      20.448  -2.457  54.169  1.00  0.00     0.124 HD
ENDBRANCH   5  31
TORSDOF 6
ENDMDL
MODEL 7
REMARK VINA RESULT:      -8.5      3.069      5.057
REMARK  6 active torsions:
REMARK  status: ('A' for Active; 'I' for Inactive)
REMARK    1  A    between atoms: N2_5  and  C4_6 
REMARK    2  A    between atoms: C4_6  and  C5_7 
REMARK    3  A    between atoms: C5_7  and  C6_8 
REMARK       I    between atoms: C6_8  and  N3_10 
REMARK    4  A    between atoms: N3_10  and  C7_11 
REMARK    5  A    between atoms: C11_15  and  N4_16 
REMARK    6  A    between atoms: C13_19  and  C14_20 
ROOT
HETATM    1  C7  UNL     1      25.224   2.621  51.930  1.00  0.00     0.035 A 
HETATM    2  C8  UNL     1      26.055   2.152  52.920  1.00  0.00     0.030 A 
HETATM    3  C9  UNL     1      25.781   1.084  53.723  1.00  0.00     0.016 A 
HETATM    4  C10 UNL     1      24.615   0.399  53.573  1.00  0.00    -0.001 A 
HETATM    5  C11 UNL     1      24.303  -0.678  54.377  1.00  0.00     0.035 A 
HETATM    6  C12 UNL     1      23.087  -1.283  54.136  1.00  0.00     0.141 A 
HETATM    7  N5  UNL     1      22.259  -0.845  53.173  1.00  0.00    -0.258 NA
HETATM    8  C13 UNL     1      22.545   0.217  52.366  1.00  0.00     0.078 A 
HETATM    9  C20 UNL     1      23.754   0.839  52.588  1.00  0.00     0.008 A 
HETATM   10  C21 UNL     1      24.057   1.912  51.801  1.00  0.00     0.044 A 
ENDROOT
BRANCH   1  11
HETATM   11  N3  UNL     1      25.450   3.718  51.069  1.00  0.00    -0.327 N 
HETATM   12  C6  UNL     1      26.274   3.786  49.926  1.00  0.00     0.223 C 
HETATM   13  O1  UNL     1      26.923   2.775  49.567  1.00  0.00    -0.273 OA
HETATM   14  H12 UNL     1      24.980   4.624  51.241  1.00  0.00     0.169 HD
BRANCH  12  15
HETATM   15  C5  UNL     1      26.443   4.995  49.083  1.00  0.00     0.122 C 
BRANCH  15  16
HETATM   16  C4  UNL     1      27.864   5.085  48.571  1.00  0.00     0.126 C 
BRANCH  16  17
HETATM   17  N2  UNL     1      28.169   6.307  47.933  1.00  0.00    -0.409 N 
HETATM   18  C3  UNL     1      29.486   6.777  48.189  1.00  0.00     0.147 C 
HETATM   19  C2  UNL     1      29.823   8.073  47.537  1.00  0.00     0.291 C 
HETATM   20  N1  UNL     1      28.866   9.062  47.988  1.00  0.00     0.087 N 
HETATM   21  C1  UNL     1      28.927   9.303  49.413  1.00  0.00     0.310 C 
HETATM   22  C23 UNL     1      27.577   8.643  47.538  1.00  0.00     0.291 C 
HETATM   23  C22 UNL     1      27.145   7.283  47.946  1.00  0.00     0.147 C 
ENDBRANCH  16  17
ENDBRANCH  15  16
ENDBRANCH  12  15
ENDBRANCH   1  11
BRANCH   8  24
HETATM   24  C14 UNL     1      21.534   0.557  51.378  1.00  0.00    -0.005 A 
HETATM   25  C15 UNL     1      21.627   1.094  50.113  1.00  0.00     0.014 A 
HETATM   26  C16 UNL     1      20.491   1.351  49.380  1.00  0.00     0.002 A 
HETATM   27  C17 UNL     1      19.213   1.100  49.833  1.00  0.00     0.019 A 
HETATM   28  C18 UNL     1      19.105   0.562  51.098  1.00  0.00     0.011 A 
HETATM   29 BR1  UNL     1      17.345   0.214  51.731  1.00  0.00    -0.051 Br
HETATM   30  C19 UNL     1      20.238   0.301  51.842  1.00  0.00     0.032 A 
ENDBRANCH   8  24
BRANCH   5  31
HETATM   31  N4  UNL     1      25.251  -1.062  55.367  1.00  0.00    -0.301 NA
HETATM   32  H15 UNL     1      25.042  -1.720  56.153  1.00  0.00     0.124 HD
HETATM   33  H16 UNL     1      25.131  -1.714  56.188  1.00  0.00     0.124 HD
ENDBRANCH   5  31
TORSDOF 6
ENDMDL
MODEL 8
REMARK VINA RESULT:      -8.5      1.789      2.674
REMARK  6 active torsions:
REMARK  status: ('A' for Active; 'I' for Inactive)
REMARK    1  A    between atoms: N2_5  and  C4_6 
REMARK    2  A    between atoms: C4_6  and  C5_7 
REMARK    3  A    between atoms: C5_7  and  C6_8 
REMARK       I    between atoms: C6_8  and  N3_10 
REMARK    4  A    between atoms: N3_10  and  C7_11 
REMARK    5  A    between atoms: C11_15  and  N4_16 
REMARK    6  A    between atoms: C13_19  and  C14_20 
ROOT
HETATM    1  C7  UNL     1      24.315   2.629  50.716  1.00  0.00     0.035 A 
HETATM    2  C8  UNL     1      22.968   2.862  50.867  1.00  0.00     0.030 A 
HETATM    3  C9  UNL     1      22.159   2.201  51.744  1.00  0.00     0.016 A 
HETATM    4  C10 UNL     1      22.674   1.232  52.550  1.00  0.00    -0.001 A 
HETATM    5  C11 UNL     1      21.880   0.538  53.438  1.00  0.00     0.035 A 
HETATM    6  C12 UNL     1      22.514  -0.427  54.193  1.00  0.00     0.141 A 
HETATM    7  N5  UNL     1      23.829  -0.671  54.065  1.00  0.00    -0.258 NA
HETATM    8  C13 UNL     1      24.635   0.002  53.195  1.00  0.00     0.078 A 
HETATM    9  C20 UNL     1      24.024   0.970  52.428  1.00  0.00     0.008 A 
HETATM   10  C21 UNL     1      24.807   1.649  51.540  1.00  0.00     0.044 A 
ENDROOT
BRANCH   1  11
HETATM   11  N3  UNL     1      25.204   3.277  49.829  1.00  0.00    -0.327 N 
HETATM   12  C6  UNL     1      25.569   4.639  49.786  1.00  0.00     0.223 C 
HETATM   13  O1  UNL     1      25.079   5.440  50.617  1.00  0.00    -0.273 OA
HETATM   14  H12 UNL     1      25.685   2.741  49.086  1.00  0.00     0.169 HD
BRANCH  12  15
HETATM   15  C5  UNL     1      26.518   5.224  48.807  1.00  0.00     0.122 C 
BRANCH  15  16
HETATM   16  C4  UNL     1      26.373   6.729  48.769  1.00  0.00     0.126 C 
BRANCH  16  17
HETATM   17  N2  UNL     1      27.586   7.428  48.956  1.00  0.00    -0.409 N 
HETATM   18  C3  UNL     1      27.414   8.783  49.348  1.00  0.00     0.147 C 
HETATM   19  C2  UNL     1      28.682   9.544  49.536  1.00  0.00     0.291 C 
HETATM   20  N1  UNL     1      29.421   9.494  48.291  1.00  0.00     0.087 N 
HETATM   21  C1  UNL     1      28.730  10.135  47.195  1.00  0.00     0.310 C 
HETATM   22  C23 UNL     1      29.740   8.125  48.040  1.00  0.00     0.291 C 
HETATM   23  C22 UNL     1      28.597   7.179  47.999  1.00  0.00     0.147 C 
ENDBRANCH  16  17
ENDBRANCH  15  16
ENDBRANCH  12  15
ENDBRANCH   1  11
BRANCH   8  24
HETATM   24  C14 UNL     1      26.034  -0.393  53.185  1.00  0.00    -0.005 A 
HETATM   25  C15 UNL     1      26.660  -1.550  52.777  1.00  0.00     0.014 A 
HETATM   26  C16 UNL     1      28.024  -1.686  52.903  1.00  0.00     0.002 A 
HETATM   27  C17 UNL     1      28.847  -0.710  53.425  1.00  0.00     0.019 A 
HETATM   28  C18 UNL     1      28.233   0.455  53.836  1.00  0.00     0.011 A 
HETATM   29 BR1  UNL     1      29.361   1.806  54.557  1.00  0.00    -0.051 Br
HETATM   30  C19 UNL     1      26.866   0.600  53.715  1.00  0.00     0.032 A 
ENDBRANCH   8  24
BRANCH   5  31
HETATM   31  N4  UNL     1      20.498   0.875  53.496  1.00  0.00    -0.301 NA
HETATM   32  H15 UNL     1      19.738   0.303  53.063  1.00  0.00     0.124 HD
HETATM   33  H16 UNL     1      19.669   0.363  53.092  1.00  0.00     0.124 HD
ENDBRANCH   5  31
TORSDOF 6
ENDMDL
MODEL 9
REMARK VINA RESULT:      -8.3      3.569      6.743
REMARK  6 active torsions:
REMARK  status: ('A' for Active; 'I' for Inactive)
REMARK    1  A    between atoms: N2_5  and  C4_6 
REMARK    2  A    between atoms: C4_6  and  C5_7 
REMARK    3  A    between atoms: C5_7  and  C6_8 
REMARK       I    between atoms: C6_8  and  N3_10 
REMARK    4  A    between atoms: N3_10  and  C7_11 
REMARK    5  A    between atoms: C11_15  and  N4_16 
REMARK    6  A    between atoms: C13_19  and  C14_20 
ROOT
HETATM    1  C7  UNL     1      23.587  -0.099  53.129  1.00  0.00     0.035 A 
HETATM    2  C8  UNL     1      24.299  -0.817  54.062  1.00  0.00     0.030 A 
HETATM    3  C9  UNL     1      25.611  -0.604  54.370  1.00  0.00     0.016 A 
HETATM    4  C10 UNL     1      26.310   0.377  53.737  1.00  0.00    -0.001 A 
HETATM    5  C11 UNL     1      27.640   0.608  54.018  1.00  0.00     0.035 A 
HETATM    6  C12 UNL     1      28.244   1.623  53.303  1.00  0.00     0.141 A 
HETATM    7  N5  UNL     1      27.569   2.339  52.388  1.00  0.00    -0.258 NA
HETATM    8  C13 UNL     1      26.254   2.129  52.094  1.00  0.00     0.078 A 
HETATM    9  C20 UNL     1      25.630   1.120  52.794  1.00  0.00     0.008 A 
HETATM   10  C21 UNL     1      24.316   0.882  52.507  1.00  0.00     0.044 A 
ENDROOT
BRANCH   1  11
HETATM   11  N3  UNL     1      22.232  -0.270  52.766  1.00  0.00    -0.327 N 
HETATM   12  C6  UNL     1      21.081  -0.143  53.572  1.00  0.00     0.223 C 
HETATM   13  O1  UNL     1      21.201   0.160  54.783  1.00  0.00    -0.273 OA
HETATM   14  H12 UNL     1      21.979  -0.524  51.795  1.00  0.00     0.169 HD
BRANCH  12  15
HETATM   15  C5  UNL     1      19.693  -0.345  53.090  1.00  0.00     0.122 C 
BRANCH  15  16
HETATM   16  C4  UNL     1      19.499   0.326  51.748  1.00  0.00     0.126 C 
BRANCH  16  17
HETATM   17  N2  UNL     1      18.890   1.597  51.824  1.00  0.00    -0.409 N 
HETATM   18  C3  UNL     1      17.526   1.606  51.427  1.00  0.00     0.147 C 
HETATM   19  C2  UNL     1      16.867   2.941  51.485  1.00  0.00     0.291 C 
HETATM   20  N1  UNL     1      17.618   3.847  50.641  1.00  0.00     0.087 N 
HETATM   21  C1  UNL     1      17.613   3.460  49.248  1.00  0.00     0.310 C 
HETATM   22  C23 UNL     1      18.929   3.957  51.196  1.00  0.00     0.291 C 
HETATM   23  C22 UNL     1      19.675   2.687  51.382  1.00  0.00     0.147 C 
ENDBRANCH  16  17
ENDBRANCH  15  16
ENDBRANCH  12  15
ENDBRANCH   1  11
BRANCH   8  24
HETATM   24  C14 UNL     1      25.683   2.994  51.075  1.00  0.00    -0.005 A 
HETATM   25  C15 UNL     1      26.053   3.252  49.773  1.00  0.00     0.014 A 
HETATM   26  C16 UNL     1      25.345   4.155  49.013  1.00  0.00     0.002 A 
HETATM   27  C17 UNL     1      24.246   4.849  49.473  1.00  0.00     0.019 A 
HETATM   28  C18 UNL     1      23.863   4.601  50.775  1.00  0.00     0.011 A 
HETATM   29 BR1  UNL     1      22.348   5.554  51.417  1.00  0.00    -0.051 Br
HETATM   30  C19 UNL     1      24.567   3.698  51.546  1.00  0.00     0.032 A 
ENDBRANCH   8  24
BRANCH   5  31
HETATM   31  N4  UNL     1      28.261  -0.207  55.005  1.00  0.00    -0.301 NA
HETATM   32  H15 UNL     1      27.943  -0.267  56.000  1.00  0.00     0.124 HD
HETATM   33  H16 UNL     1      28.011  -0.330  56.023  1.00  0.00     0.124 HD
ENDBRANCH   5  31
TORSDOF 6
ENDMDL
