MODEL 1
REMARK VINA RESULT:      -9.0      0.000      0.000
REMARK  1 active torsions:
REMARK  status: ('A' for Active; 'I' for Inactive)
REMARK    1  A    between atoms: C10_12  and  C11_13 
ROOT
HETATM    1  C1  UNL     1      21.179   0.403  54.567  1.00  0.00     0.019 C 
HETATM    2  C2  UNL     1      21.726  -0.723  53.837  1.00  0.00    -0.020 A 
HETATM    3  C3  UNL     1      21.763  -1.495  52.607  1.00  0.00     0.019 C 
HETATM    4  C4  UNL     1      20.838  -1.603  54.423  1.00  0.00     0.014 A 
HETATM    5  C5  UNL     1      19.579  -1.135  53.616  1.00  0.00     0.012 A 
HETATM    6  C6  UNL     1      19.699  -0.113  52.581  1.00  0.00     0.081 A 
HETATM    7  S1  UNL     1      20.845   0.981  51.923  1.00  0.00    -0.110 SA
HETATM    8  C7  UNL     1      22.586   0.986  52.425  1.00  0.00     0.099 A 
HETATM    9  C8  UNL     1      22.826   0.016  53.441  1.00  0.00    -0.009 A 
HETATM   10  C9  UNL     1      24.266  -0.053  53.959  1.00  0.00     0.308 C 
HETATM   11  N1  UNL     1      25.089   0.502  52.931  1.00  0.00     0.098 N 
HETATM   12  C10 UNL     1      26.444   0.801  53.155  1.00  0.00     0.279 C 
HETATM   13  C17 UNL     1      26.910   1.724  51.974  1.00  0.00     0.241 C 
HETATM   14  O1  UNL     1      26.109   2.869  52.017  1.00  0.00    -0.277 OA
HETATM   15  N2  UNL     1      25.331   2.911  50.940  1.00  0.00    -0.260 N 
HETATM   16  C18 UNL     1      24.078   2.182  50.930  1.00  0.00     0.231 C 
HETATM   17  N3  UNL     1      23.658   1.707  52.004  1.00  0.00    -0.235 NA
HETATM   18  H15 UNL     1      25.025  -0.206  52.124  1.00  0.00     0.317 HD
HETATM   19  H24 UNL     1      25.495   3.417  50.050  1.00  0.00     0.195 HD
ENDROOT
BRANCH  12  20
HETATM   20  C11 UNL     1      27.385  -0.338  53.150  1.00  0.00    -0.023 A 
HETATM   21  C12 UNL     1      27.100  -1.594  52.699  1.00  0.00     0.009 A 
HETATM   22  C13 UNL     1      28.073  -2.569  52.750  1.00  0.00     0.001 A 
HETATM   23  C14 UNL     1      29.337  -2.321  53.244  1.00  0.00     0.000 A 
HETATM   24  C15 UNL     1      29.678  -1.080  53.708  1.00  0.00     0.001 A 
HETATM   25  C16 UNL     1      28.678  -0.124  53.643  1.00  0.00     0.009 A 
ENDBRANCH  12  20
TORSDOF 1
ENDMDL
MODEL 2
REMARK VINA RESULT:      -8.5      1.102      1.286
REMARK  1 active torsions:
REMARK  status: ('A' for Active; 'I' for Inactive)
REMARK    1  A    between atoms: C10_12  and  C11_13 
ROOT
HETATM    1  C1  UNL     1      20.810   1.436  53.658  1.00  0.00     0.019 C 
HETATM    2  C2  UNL     1      21.499   0.219  53.278  1.00  0.00    -0.020 A 
HETATM    3  C3  UNL     1      21.688  -0.838  52.299  1.00  0.00     0.019 C 
HETATM    4  C4  UNL     1      20.648  -0.563  54.033  1.00  0.00     0.014 A 
HETATM    5  C5  UNL     1      19.415  -0.447  53.073  1.00  0.00     0.012 A 
HETATM    6  C6  UNL     1      19.524   0.279  51.811  1.00  0.00     0.081 A 
HETATM    7  S1  UNL     1      20.620   1.273  50.942  1.00  0.00    -0.110 SA
HETATM    8  C7  UNL     1      22.313   1.580  51.507  1.00  0.00     0.099 A 
HETATM    9  C8  UNL     1      22.560   0.935  52.753  1.00  0.00    -0.009 A 
HETATM   10  C9  UNL     1      23.960   1.145  53.338  1.00  0.00     0.308 C 
HETATM   11  N1  UNL     1      24.805   1.493  52.240  1.00  0.00     0.098 N 
HETATM   12  C10 UNL     1      26.111   1.972  52.441  1.00  0.00     0.279 C 
HETATM   13  C17 UNL     1      26.582   2.600  51.081  1.00  0.00     0.241 C 
HETATM   14  O1  UNL     1      25.688   3.631  50.783  1.00  0.00    -0.277 OA
HETATM   15  N2  UNL     1      24.989   3.317  49.697  1.00  0.00    -0.260 N 
HETATM   16  C18 UNL     1      23.804   2.489  49.821  1.00  0.00     0.231 C 
HETATM   17  N3  UNL     1      23.350   2.270  50.962  1.00  0.00    -0.235 NA
HETATM   18  H15 UNL     1      24.858   0.598  51.648  1.00  0.00     0.317 HD
HETATM   19  H24 UNL     1      25.173   3.589  48.714  1.00  0.00     0.195 HD
ENDROOT
BRANCH  12  20
HETATM   20  C11 UNL     1      27.142   0.970  52.782  1.00  0.00    -0.023 A 
HETATM   21  C12 UNL     1      27.025  -0.377  52.592  1.00  0.00     0.009 A 
HETATM   22  C13 UNL     1      28.066  -1.205  52.954  1.00  0.00     0.001 A 
HETATM   23  C14 UNL     1      29.233  -0.719  53.506  1.00  0.00     0.000 A 
HETATM   24  C15 UNL     1      29.405   0.621  53.719  1.00  0.00     0.001 A 
HETATM   25  C16 UNL     1      28.341   1.424  53.344  1.00  0.00     0.009 A 
ENDBRANCH  12  20
TORSDOF 1
ENDMDL
MODEL 3
REMARK VINA RESULT:      -8.3      2.334      6.538
REMARK  1 active torsions:
REMARK  status: ('A' for Active; 'I' for Inactive)
REMARK    1  A    between atoms: C10_12  and  C11_13 
ROOT
HETATM    1  C1  UNL     1      26.763   0.483  51.678  1.00  0.00     0.019 C 
HETATM    2  C2  UNL     1      25.909  -0.086  52.701  1.00  0.00    -0.020 A 
HETATM    3  C3  UNL     1      25.541  -0.152  54.105  1.00  0.00     0.019 C 
HETATM    4  C4  UNL     1      26.692  -1.219  52.801  1.00  0.00     0.014 A 
HETATM    5  C5  UNL     1      27.881  -0.536  53.560  1.00  0.00     0.012 A 
HETATM    6  C6  UNL     1      27.801   0.867  53.954  1.00  0.00     0.081 A 
HETATM    7  S1  UNL     1      26.796   2.245  53.759  1.00  0.00    -0.110 SA
HETATM    8  C7  UNL     1      25.184   2.165  52.937  1.00  0.00     0.099 A 
HETATM    9  C8  UNL     1      24.921   0.851  52.455  1.00  0.00    -0.009 A 
HETATM   10  C9  UNL     1      23.589   0.672  51.720  1.00  0.00     0.308 C 
HETATM   11  N1  UNL     1      22.741   1.731  52.165  1.00  0.00     0.098 N 
HETATM   12  C10 UNL     1      21.517   2.007  51.531  1.00  0.00     0.279 C 
HETATM   13  C17 UNL     1      21.060   3.429  52.018  1.00  0.00     0.241 C 
HETATM   14  O1  UNL     1      22.061   4.326  51.633  1.00  0.00    -0.277 OA
HETATM   15  N2  UNL     1      22.660   4.817  52.714  1.00  0.00    -0.260 N 
HETATM   16  C18 UNL     1      23.737   4.072  53.338  1.00  0.00     0.231 C 
HETATM   17  N3  UNL     1      24.217   3.096  52.727  1.00  0.00    -0.235 NA
HETATM   18  H15 UNL     1      22.547   1.505  53.198  1.00  0.00     0.317 HD
HETATM   19  H24 UNL     1      22.463   5.706  53.209  1.00  0.00     0.195 HD
ENDROOT
BRANCH  12  20
HETATM   20  C11 UNL     1      20.387   1.110  51.849  1.00  0.00    -0.023 A 
HETATM   21  C12 UNL     1      20.249   0.394  53.004  1.00  0.00     0.009 A 
HETATM   22  C13 UNL     1      19.142  -0.409  53.174  1.00  0.00     0.001 A 
HETATM   23  C14 UNL     1      18.158  -0.517  52.214  1.00  0.00     0.000 A 
HETATM   24  C15 UNL     1      18.244   0.177  51.038  1.00  0.00     0.001 A 
HETATM   25  C16 UNL     1      19.368   0.973  50.898  1.00  0.00     0.009 A 
ENDBRANCH  12  20
TORSDOF 1
ENDMDL
MODEL 4
REMARK VINA RESULT:      -8.2      2.693      4.445
REMARK  1 active torsions:
REMARK  status: ('A' for Active; 'I' for Inactive)
REMARK    1  A    between atoms: C10_12  and  C11_13 
ROOT
HETATM    1  C1  UNL     1      21.208   2.467  49.699  1.00  0.00     0.019 C 
HETATM    2  C2  UNL     1      22.188   3.152  50.518  1.00  0.00    -0.020 A 
HETATM    3  C3  UNL     1      22.458   4.096  51.588  1.00  0.00     0.019 C 
HETATM    4  C4  UNL     1      22.410   4.109  49.548  1.00  0.00     0.014 A 
HETATM    5  C5  UNL     1      21.060   4.877  49.757  1.00  0.00     0.012 A 
HETATM    6  C6  UNL     1      20.130   4.471  50.807  1.00  0.00     0.081 A 
HETATM    7  S1  UNL     1      19.900   3.228  51.968  1.00  0.00    -0.110 SA
HETATM    8  C7  UNL     1      21.137   1.940  52.273  1.00  0.00     0.099 A 
HETATM    9  C8  UNL     1      22.254   2.088  51.400  1.00  0.00    -0.009 A 
HETATM   10  C9  UNL     1      23.356   1.036  51.556  1.00  0.00     0.308 C 
HETATM   11  N1  UNL     1      23.217   0.501  52.873  1.00  0.00     0.098 N 
HETATM   12  C10 UNL     1      23.922  -0.644  53.280  1.00  0.00     0.279 C 
HETATM   13  C17 UNL     1      23.248  -1.150  54.604  1.00  0.00     0.241 C 
HETATM   14  O1  UNL     1      21.917  -1.441  54.293  1.00  0.00    -0.277 OA
HETATM   15  N2  UNL     1      21.114  -0.591  54.927  1.00  0.00    -0.260 N 
HETATM   16  C18 UNL     1      20.840   0.708  54.343  1.00  0.00     0.231 C 
HETATM   17  N3  UNL     1      21.192   0.916  53.164  1.00  0.00    -0.235 NA
HETATM   18  H15 UNL     1      23.483   1.315  53.523  1.00  0.00     0.317 HD
HETATM   19  H24 UNL     1      20.625  -0.724  55.831  1.00  0.00     0.195 HD
ENDROOT
BRANCH  12  20
HETATM   20  C11 UNL     1      25.348  -0.461  53.618  1.00  0.00    -0.023 A 
HETATM   21  C12 UNL     1      25.820   0.194  54.719  1.00  0.00     0.009 A 
HETATM   22  C13 UNL     1      27.180   0.294  54.917  1.00  0.00     0.001 A 
HETATM   23  C14 UNL     1      28.093  -0.249  54.036  1.00  0.00     0.000 A 
HETATM   24  C15 UNL     1      27.677  -0.916  52.917  1.00  0.00     0.001 A 
HETATM   25  C16 UNL     1      26.305  -0.998  52.747  1.00  0.00     0.009 A 
ENDBRANCH  12  20
TORSDOF 1
ENDMDL
MODEL 5
REMARK VINA RESULT:      -8.1      6.824     10.504
REMARK  1 active torsions:
REMARK  status: ('A' for Active; 'I' for Inactive)
REMARK    1  A    between atoms: C10_12  and  C11_13 
ROOT
HETATM    1  C1  UNL     1      31.934   6.425  46.955  1.00  0.00     0.019 C 
HETATM    2  C2  UNL     1      31.728   5.822  48.257  1.00  0.00    -0.020 A 
HETATM    3  C3  UNL     1      31.883   5.915  49.698  1.00  0.00     0.019 C 
HETATM    4  C4  UNL     1      32.861   5.042  48.135  1.00  0.00     0.014 A 
HETATM    5  C5  UNL     1      33.890   6.202  48.355  1.00  0.00     0.012 A 
HETATM    6  C6  UNL     1      33.430   7.554  48.656  1.00  0.00     0.081 A 
HETATM    7  S1  UNL     1      31.983   8.472  48.757  1.00  0.00    -0.110 SA
HETATM    8  C7  UNL     1      30.342   7.723  48.595  1.00  0.00     0.099 A 
HETATM    9  C8  UNL     1      30.442   6.326  48.332  1.00  0.00    -0.009 A 
HETATM   10  C9  UNL     1      29.110   5.591  48.155  1.00  0.00     0.308 C 
HETATM   11  N1  UNL     1      28.122   6.388  48.811  1.00  0.00     0.098 N 
HETATM   12  C10 UNL     1      26.749   6.129  48.658  1.00  0.00     0.279 C 
HETATM   13  C17 UNL     1      25.984   7.396  49.184  1.00  0.00     0.241 C 
HETATM   14  O1  UNL     1      26.402   8.474  48.399  1.00  0.00    -0.277 OA
HETATM   15  N2  UNL     1      27.092   9.330  49.146  1.00  0.00    -0.260 N 
HETATM   16  C18 UNL     1      28.506   9.105  49.376  1.00  0.00     0.231 C 
HETATM   17  N3  UNL     1      29.088   8.236  48.697  1.00  0.00    -0.235 NA
HETATM   18  H15 UNL     1      28.369   6.316  49.855  1.00  0.00     0.317 HD
HETATM   19  H24 UNL     1      26.751  10.187  49.620  1.00  0.00     0.195 HD
ENDROOT
BRANCH  12  20
HETATM   20  C11 UNL     1      26.197   4.997  49.429  1.00  0.00    -0.023 A 
HETATM   21  C12 UNL     1      26.727   3.739  49.472  1.00  0.00     0.009 A 
HETATM   22  C13 UNL     1      26.110   2.770  50.234  1.00  0.00     0.001 A 
HETATM   23  C14 UNL     1      24.968   3.025  50.963  1.00  0.00     0.000 A 
HETATM   24  C15 UNL     1      24.394   4.267  50.957  1.00  0.00     0.001 A 
HETATM   25  C16 UNL     1      25.037   5.217  50.182  1.00  0.00     0.009 A 
ENDBRANCH  12  20
TORSDOF 1
ENDMDL
MODEL 6
REMARK VINA RESULT:      -8.1      2.415      4.609
REMARK  1 active torsions:
REMARK  status: ('A' for Active; 'I' for Inactive)
REMARK    1  A    between atoms: C10_12  and  C11_13 
ROOT
HETATM    1  C1  UNL     1      22.648   3.903  49.416  1.00  0.00     0.019 C 
HETATM    2  C2  UNL     1      23.460   4.480  50.469  1.00  0.00    -0.020 A 
HETATM    3  C3  UNL     1      23.517   5.161  51.751  1.00  0.00     0.019 C 
HETATM    4  C4  UNL     1      23.616   5.664  49.775  1.00  0.00     0.014 A 
HETATM    5  C5  UNL     1      22.160   6.192  50.015  1.00  0.00     0.012 A 
HETATM    6  C6  UNL     1      21.223   5.435  50.839  1.00  0.00     0.081 A 
HETATM    7  S1  UNL     1      21.085   3.929  51.651  1.00  0.00    -0.110 SA
HETATM    8  C7  UNL     1      22.465   2.762  51.776  1.00  0.00     0.099 A 
HETATM    9  C8  UNL     1      23.610   3.249  51.083  1.00  0.00    -0.009 A 
HETATM   10  C9  UNL     1      24.835   2.329  51.104  1.00  0.00     0.308 C 
HETATM   11  N1  UNL     1      24.677   1.478  52.240  1.00  0.00     0.098 N 
HETATM   12  C10 UNL     1      25.505   0.360  52.442  1.00  0.00     0.279 C 
HETATM   13  C17 UNL     1      24.814  -0.530  53.536  1.00  0.00     0.241 C 
HETATM   14  O1  UNL     1      23.563  -0.892  53.029  1.00  0.00    -0.277 OA
HETATM   15  N2  UNL     1      22.605  -0.323  53.755  1.00  0.00    -0.260 N 
HETATM   16  C18 UNL     1      22.195   1.037  53.463  1.00  0.00     0.231 C 
HETATM   17  N3  UNL     1      22.598   1.566  52.407  1.00  0.00    -0.235 NA
HETATM   18  H15 UNL     1      24.779   2.135  53.085  1.00  0.00     0.317 HD
HETATM   19  H24 UNL     1      22.074  -0.729  54.547  1.00  0.00     0.195 HD
ENDROOT
BRANCH  12  20
HETATM   20  C11 UNL     1      26.863   0.624  52.959  1.00  0.00    -0.023 A 
HETATM   21  C12 UNL     1      27.345   1.849  53.318  1.00  0.00     0.009 A 
HETATM   22  C13 UNL     1      28.636   1.958  53.789  1.00  0.00     0.001 A 
HETATM   23  C14 UNL     1      29.467   0.863  53.913  1.00  0.00     0.000 A 
HETATM   24  C15 UNL     1      29.036  -0.388  53.569  1.00  0.00     0.001 A 
HETATM   25  C16 UNL     1      27.736  -0.462  53.100  1.00  0.00     0.009 A 
ENDBRANCH  12  20
TORSDOF 1
ENDMDL
MODEL 7
REMARK VINA RESULT:      -7.9      2.905      6.790
REMARK  1 active torsions:
REMARK  status: ('A' for Active; 'I' for Inactive)
REMARK    1  A    between atoms: C10_12  and  C11_13 
ROOT
HETATM    1  C1  UNL     1      26.293   2.101  54.122  1.00  0.00     0.019 C 
HETATM    2  C2  UNL     1      26.433   1.697  52.737  1.00  0.00    -0.020 A 
HETATM    3  C3  UNL     1      26.633   0.624  51.779  1.00  0.00     0.019 C 
HETATM    4  C4  UNL     1      27.772   2.033  52.717  1.00  0.00     0.014 A 
HETATM    5  C5  UNL     1      28.264   0.817  53.573  1.00  0.00     0.012 A 
HETATM    6  C6  UNL     1      27.323  -0.209  54.015  1.00  0.00     0.081 A 
HETATM    7  S1  UNL     1      25.640  -0.546  54.034  1.00  0.00    -0.110 SA
HETATM    8  C7  UNL     1      24.428   0.502  53.188  1.00  0.00     0.099 A 
HETATM    9  C8  UNL     1      25.060   1.624  52.578  1.00  0.00    -0.009 A 
HETATM   10  C9  UNL     1      24.124   2.593  51.850  1.00  0.00     0.308 C 
HETATM   11  N1  UNL     1      22.946   1.849  51.532  1.00  0.00     0.098 N 
HETATM   12  C10 UNL     1      21.784   2.482  51.058  1.00  0.00     0.279 C 
HETATM   13  C17 UNL     1      20.614   1.444  51.186  1.00  0.00     0.241 C 
HETATM   14  O1  UNL     1      20.513   1.116  52.541  1.00  0.00    -0.277 OA
HETATM   15  N2  UNL     1      20.851  -0.158  52.719  1.00  0.00    -0.260 N 
HETATM   16  C18 UNL     1      22.249  -0.516  52.861  1.00  0.00     0.231 C 
HETATM   17  N3  UNL     1      23.083   0.397  53.025  1.00  0.00    -0.235 NA
HETATM   18  H15 UNL     1      23.270   1.135  50.797  1.00  0.00     0.317 HD
HETATM   19  H24 UNL     1      20.229  -0.985  52.775  1.00  0.00     0.195 HD
ENDROOT
BRANCH  12  20
HETATM   20  C11 UNL     1      21.783   2.892  49.639  1.00  0.00    -0.023 A 
HETATM   21  C12 UNL     1      21.355   4.099  49.167  1.00  0.00     0.009 A 
HETATM   22  C13 UNL     1      21.408   4.355  47.813  1.00  0.00     0.001 A 
HETATM   23  C14 UNL     1      21.883   3.428  46.908  1.00  0.00     0.000 A 
HETATM   24  C15 UNL     1      22.325   2.203  47.325  1.00  0.00     0.001 A 
HETATM   25  C16 UNL     1      22.258   1.978  48.690  1.00  0.00     0.009 A 
ENDBRANCH  12  20
TORSDOF 1
ENDMDL
MODEL 8
REMARK VINA RESULT:      -7.6      2.756      6.147
REMARK  1 active torsions:
REMARK  status: ('A' for Active; 'I' for Inactive)
REMARK    1  A    between atoms: C10_12  and  C11_13 
ROOT
HETATM    1  C1  UNL     1      24.230   6.147  51.037  1.00  0.00     0.019 C 
HETATM    2  C2  UNL     1      23.417   5.155  50.362  1.00  0.00    -0.020 A 
HETATM    3  C3  UNL     1      23.245   4.266  49.226  1.00  0.00     0.019 C 
HETATM    4  C4  UNL     1      22.613   6.122  49.792  1.00  0.00     0.014 A 
HETATM    5  C5  UNL     1      23.662   6.612  48.736  1.00  0.00     0.012 A 
HETATM    6  C6  UNL     1      24.962   5.957  48.622  1.00  0.00     0.081 A 
HETATM    7  S1  UNL     1      25.921   4.767  49.402  1.00  0.00    -0.110 SA
HETATM    8  C7  UNL     1      25.297   3.760  50.774  1.00  0.00     0.099 A 
HETATM    9  C8  UNL     1      23.966   4.133  51.117  1.00  0.00    -0.009 A 
HETATM   10  C9  UNL     1      23.344   3.359  52.282  1.00  0.00     0.308 C 
HETATM   11  N1  UNL     1      24.062   2.127  52.374  1.00  0.00     0.098 N 
HETATM   12  C10 UNL     1      23.905   1.266  53.474  1.00  0.00     0.279 C 
HETATM   13  C17 UNL     1      25.096   0.244  53.427  1.00  0.00     0.241 C 
HETATM   14  O1  UNL     1      26.273   0.992  53.514  1.00  0.00    -0.277 OA
HETATM   15  N2  UNL     1      26.947   0.901  52.372  1.00  0.00    -0.260 N 
HETATM   16  C18 UNL     1      26.612   1.781  51.269  1.00  0.00     0.231 C 
HETATM   17  N3  UNL     1      25.848   2.742  51.486  1.00  0.00    -0.235 NA
HETATM   18  H15 UNL     1      23.793   1.593  51.481  1.00  0.00     0.317 HD
HETATM   19  H24 UNL     1      27.722   0.255  52.135  1.00  0.00     0.195 HD
ENDROOT
BRANCH  12  20
HETATM   20  C11 UNL     1      22.684   0.435  53.498  1.00  0.00    -0.023 A 
HETATM   21  C12 UNL     1      21.518   0.728  52.851  1.00  0.00     0.009 A 
HETATM   22  C13 UNL     1      20.449  -0.136  52.956  1.00  0.00     0.001 A 
HETATM   23  C14 UNL     1      20.513  -1.297  53.698  1.00  0.00     0.000 A 
HETATM   24  C15 UNL     1      21.656  -1.641  54.366  1.00  0.00     0.001 A 
HETATM   25  C16 UNL     1      22.710  -0.752  54.240  1.00  0.00     0.009 A 
ENDBRANCH  12  20
TORSDOF 1
ENDMDL
MODEL 9
REMARK VINA RESULT:      -7.5      3.153      5.963
REMARK  1 active torsions:
REMARK  status: ('A' for Active; 'I' for Inactive)
REMARK    1  A    between atoms: C10_12  and  C11_13 
ROOT
HETATM    1  C1  UNL     1      23.450   4.758  49.197  1.00  0.00     0.019 C 
HETATM    2  C2  UNL     1      23.813   4.814  50.599  1.00  0.00    -0.020 A 
HETATM    3  C3  UNL     1      23.586   5.396  51.910  1.00  0.00     0.019 C 
HETATM    4  C4  UNL     1      24.869   5.668  50.347  1.00  0.00     0.014 A 
HETATM    5  C5  UNL     1      23.995   6.940  50.076  1.00  0.00     0.012 A 
HETATM    6  C6  UNL     1      22.544   6.888  50.221  1.00  0.00     0.081 A 
HETATM    7  S1  UNL     1      21.278   5.764  50.505  1.00  0.00    -0.110 SA
HETATM    8  C7  UNL     1      21.592   4.026  50.906  1.00  0.00     0.099 A 
HETATM    9  C8  UNL     1      22.989   3.744  50.898  1.00  0.00    -0.009 A 
HETATM   10  C9  UNL     1      23.371   2.293  51.204  1.00  0.00     0.308 C 
HETATM   11  N1  UNL     1      22.271   1.732  51.923  1.00  0.00     0.098 N 
HETATM   12  C10 UNL     1      22.183   0.352  52.172  1.00  0.00     0.279 C 
HETATM   13  C17 UNL     1      20.708   0.061  52.623  1.00  0.00     0.241 C 
HETATM   14  O1  UNL     1      19.880   0.455  51.568  1.00  0.00    -0.277 OA
HETATM   15  N2  UNL     1      19.145   1.498  51.941  1.00  0.00    -0.260 N 
HETATM   16  C18 UNL     1      19.697   2.835  51.846  1.00  0.00     0.231 C 
HETATM   17  N3  UNL     1      20.764   2.995  51.221  1.00  0.00    -0.235 NA
HETATM   18  H15 UNL     1      22.275   2.249  52.865  1.00  0.00     0.317 HD
HETATM   19  H24 UNL     1      18.177   1.501  52.313  1.00  0.00     0.195 HD
ENDROOT
BRANCH  12  20
HETATM   20  C11 UNL     1      23.031  -0.183  53.258  1.00  0.00    -0.023 A 
HETATM   21  C12 UNL     1      24.395  -0.140  53.287  1.00  0.00     0.009 A 
HETATM   22  C13 UNL     1      25.067  -0.677  54.364  1.00  0.00     0.001 A 
HETATM   23  C14 UNL     1      24.406  -1.261  55.425  1.00  0.00     0.000 A 
HETATM   24  C15 UNL     1      23.040  -1.331  55.449  1.00  0.00     0.001 A 
HETATM   25  C16 UNL     1      22.397  -0.783  54.352  1.00  0.00     0.009 A 
ENDBRANCH  12  20
TORSDOF 1
ENDMDL
