MODEL 1
REMARK VINA RESULT:      -8.2      0.000      0.000
REMARK  5 active torsions:
REMARK  status: ('A' for Active; 'I' for Inactive)
REMARK    1  A    between atoms: C2_3  and  C3_4 
REMARK    2  A    between atoms: C2_3  and  N5_18 
REMARK    3  A    between atoms: C5_6  and  N2_7 
REMARK    4  A    between atoms: C12_16  and  O1_17 
REMARK    5  A    between atoms: N5_18  and  C13_19 
ROOT
HETATM    1  C3  UNL     1      23.706   1.579  52.436  1.00  0.00     0.062 C 
HETATM    2  C4  UNL     1      24.781   1.112  53.015  1.00  0.00     0.004 C 
HETATM    3  C5  UNL     1      25.981   2.017  52.845  1.00  0.00     0.031 C 
HETATM    4  C6  UNL     1      27.286   2.108  53.169  1.00  0.00     0.005 C 
HETATM    5  C7  UNL     1      28.650   1.968  53.640  1.00  0.00     0.051 C 
HETATM    6  C8  UNL     1      28.804   0.727  54.547  1.00  0.00     0.154 C 
HETATM    7  N3  UNL     1      28.214  -0.376  53.835  1.00  0.00    -0.280 N 
HETATM    8  C9  UNL     1      26.918  -0.003  54.067  1.00  0.00     0.123 A 
HETATM    9  C10 UNL     1      26.056  -0.904  53.415  1.00  0.00     0.011 A 
HETATM   10  C11 UNL     1      26.899  -1.810  52.816  1.00  0.00     0.150 A 
HETATM   11  N4  UNL     1      28.182  -1.463  53.089  1.00  0.00    -0.185 NA
HETATM   12  C12 UNL     1      24.782  -0.206  53.796  1.00  0.00     0.189 C 
ENDROOT
BRANCH   1  13
HETATM   13  C2  UNL     1      22.343   1.173  52.278  1.00  0.00     0.122 C 
HETATM   14  N1  UNL     1      21.516   0.874  53.166  1.00  0.00    -0.278 NA
HETATM   15  C1  UNL     1      20.180   0.454  53.251  1.00  0.00     0.179 C 
BRANCH  13  16
HETATM   16  N5  UNL     1      21.691   1.086  50.990  1.00  0.00    -0.341 N 
HETATM   17  H16 UNL     1      21.048   0.227  50.882  1.00  0.00     0.167 HD
BRANCH  16  18
HETATM   18  C13 UNL     1      21.813   1.955  49.840  1.00  0.00     0.035 A 
HETATM   19  C14 UNL     1      21.918   1.357  48.584  1.00  0.00     0.032 A 
HETATM   20  C15 UNL     1      22.072   2.162  47.499  1.00  0.00     0.046 A 
HETATM   21  C16 UNL     1      22.136   3.536  47.544  1.00  0.00     0.138 A 
HETATM   22  F1  UNL     1      22.292   4.302  46.422  1.00  0.00    -0.204 F 
HETATM   23  C17 UNL     1      22.033   4.121  48.786  1.00  0.00     0.074 A 
HETATM   24 CL1  UNL     1      22.097   5.859  48.968  1.00  0.00    -0.081 Cl
HETATM   25  C18 UNL     1      21.876   3.319  49.893  1.00  0.00     0.056 A 
ENDBRANCH  16  18
ENDBRANCH  13  16
ENDBRANCH   1  13
BRANCH   3  26
HETATM   26  N2  UNL     1      25.680   3.232  52.083  1.00  0.00    -0.399 N 
HETATM   27  H5  UNL     1      25.049   4.009  51.826  1.00  0.00     0.156 HD
HETATM   28  H6  UNL     1      26.216   3.789  51.381  1.00  0.00     0.156 HD
ENDBRANCH   3  26
BRANCH  12  29
HETATM   29  O1  UNL     1      23.752  -1.019  53.442  1.00  0.00    -0.386 OA
HETATM   30  H15 UNL     1      22.845  -0.602  53.513  1.00  0.00     0.210 HD
ENDBRANCH  12  29
TORSDOF 5
ENDMDL
MODEL 2
REMARK VINA RESULT:      -8.2      3.865      6.960
REMARK  5 active torsions:
REMARK  status: ('A' for Active; 'I' for Inactive)
REMARK    1  A    between atoms: C2_3  and  C3_4 
REMARK    2  A    between atoms: C2_3  and  N5_18 
REMARK    3  A    between atoms: C5_6  and  N2_7 
REMARK    4  A    between atoms: C12_16  and  O1_17 
REMARK    5  A    between atoms: N5_18  and  C13_19 
ROOT
HETATM    1  C3  UNL     1      23.595   2.794  52.612  1.00  0.00     0.062 C 
HETATM    2  C4  UNL     1      23.560   3.574  51.564  1.00  0.00     0.004 C 
HETATM    3  C5  UNL     1      23.676   5.040  51.919  1.00  0.00     0.031 C 
HETATM    4  C6  UNL     1      23.703   6.263  51.350  1.00  0.00     0.005 C 
HETATM    5  C7  UNL     1      23.703   7.441  50.508  1.00  0.00     0.051 C 
HETATM    6  C8  UNL     1      23.692   7.059  49.011  1.00  0.00     0.154 C 
HETATM    7  N3  UNL     1      22.630   6.103  48.841  1.00  0.00    -0.280 N 
HETATM    8  C9  UNL     1      23.307   5.055  49.406  1.00  0.00     0.123 A 
HETATM    9  C10 UNL     1      22.465   3.928  49.437  1.00  0.00     0.011 A 
HETATM   10  C11 UNL     1      21.294   4.360  48.860  1.00  0.00     0.150 A 
HETATM   11  N4  UNL     1      21.430   5.665  48.516  1.00  0.00    -0.185 NA
HETATM   12  C12 UNL     1      23.438   3.025  50.139  1.00  0.00     0.189 C 
ENDROOT
BRANCH   1  13
HETATM   13  C2  UNL     1      23.535   1.388  52.871  1.00  0.00     0.122 C 
HETATM   14  N1  UNL     1      22.670   0.754  53.511  1.00  0.00    -0.278 NA
HETATM   15  C1  UNL     1      22.412  -0.572  53.890  1.00  0.00     0.179 C 
BRANCH  13  16
HETATM   16  N5  UNL     1      24.511   0.451  52.359  1.00  0.00    -0.341 N 
HETATM   17  H16 UNL     1      24.107  -0.259  51.654  1.00  0.00     0.167 HD
BRANCH  16  18
HETATM   18  C13 UNL     1      25.913   0.315  52.687  1.00  0.00     0.035 A 
HETATM   19  C14 UNL     1      26.453  -0.971  52.706  1.00  0.00     0.032 A 
HETATM   20  C15 UNL     1      27.761  -1.114  53.051  1.00  0.00     0.046 A 
HETATM   21  C16 UNL     1      28.602  -0.079  53.388  1.00  0.00     0.138 A 
HETATM   22  F1  UNL     1      29.911  -0.277  53.729  1.00  0.00    -0.204 F 
HETATM   23  C17 UNL     1      28.064   1.188  53.368  1.00  0.00     0.074 A 
HETATM   24 CL1  UNL     1      29.036   2.584  53.775  1.00  0.00    -0.081 Cl
HETATM   25  C18 UNL     1      26.742   1.349  53.021  1.00  0.00     0.056 A 
ENDBRANCH  16  18
ENDBRANCH  13  16
ENDBRANCH   1  13
BRANCH   3  26
HETATM   26  N2  UNL     1      23.820   5.273  53.359  1.00  0.00    -0.399 N 
HETATM   27  H5  UNL     1      24.267   5.745  54.161  1.00  0.00     0.156 HD
HETATM   28  H6  UNL     1      23.338   4.883  54.199  1.00  0.00     0.156 HD
ENDBRANCH   3  26
BRANCH  12  29
HETATM   29  O1  UNL     1      22.921   1.769  50.111  1.00  0.00    -0.386 OA
HETATM   30  H15 UNL     1      22.887   1.309  50.999  1.00  0.00     0.210 HD
ENDBRANCH  12  29
TORSDOF 5
ENDMDL
MODEL 3
REMARK VINA RESULT:      -8.1      2.010      2.514
REMARK  5 active torsions:
REMARK  status: ('A' for Active; 'I' for Inactive)
REMARK    1  A    between atoms: C2_3  and  C3_4 
REMARK    2  A    between atoms: C2_3  and  N5_18 
REMARK    3  A    between atoms: C5_6  and  N2_7 
REMARK    4  A    between atoms: C12_16  and  O1_17 
REMARK    5  A    between atoms: N5_18  and  C13_19 
ROOT
HETATM    1  C3  UNL     1      24.393   2.211  51.465  1.00  0.00     0.062 C 
HETATM    2  C4  UNL     1      25.201   1.595  52.288  1.00  0.00     0.004 C 
HETATM    3  C5  UNL     1      26.607   2.154  52.258  1.00  0.00     0.031 C 
HETATM    4  C6  UNL     1      27.821   1.981  52.817  1.00  0.00     0.005 C 
HETATM    5  C7  UNL     1      29.007   1.594  53.555  1.00  0.00     0.051 C 
HETATM    6  C8  UNL     1      28.686   0.504  54.601  1.00  0.00     0.154 C 
HETATM    7  N3  UNL     1      27.951  -0.522  53.909  1.00  0.00    -0.280 N 
HETATM    8  C9  UNL     1      26.776   0.178  53.845  1.00  0.00     0.123 A 
HETATM    9  C10 UNL     1      25.826  -0.582  53.137  1.00  0.00     0.011 A 
HETATM   10  C11 UNL     1      26.490  -1.741  52.812  1.00  0.00     0.150 A 
HETATM   11  N4  UNL     1      27.757  -1.671  53.290  1.00  0.00    -0.185 NA
HETATM   12  C12 UNL     1      24.734   0.447  53.190  1.00  0.00     0.189 C 
ENDROOT
BRANCH   1  13
HETATM   13  C2  UNL     1      23.015   2.119  51.091  1.00  0.00     0.122 C 
HETATM   14  N1  UNL     1      22.455   1.239  50.404  1.00  0.00    -0.278 NA
HETATM   15  C1  UNL     1      21.171   0.951  49.917  1.00  0.00     0.179 C 
BRANCH  13  16
HETATM   16  N5  UNL     1      22.017   3.076  51.519  1.00  0.00    -0.341 N 
HETATM   17  H16 UNL     1      21.308   2.680  52.228  1.00  0.00     0.167 HD
BRANCH  16  18
HETATM   18  C13 UNL     1      21.824   4.448  51.103  1.00  0.00     0.035 A 
HETATM   19  C14 UNL     1      20.603   4.781  50.517  1.00  0.00     0.032 A 
HETATM   20  C15 UNL     1      20.424   6.059  50.087  1.00  0.00     0.046 A 
HETATM   21  C16 UNL     1      21.364   7.059  50.184  1.00  0.00     0.138 A 
HETATM   22  F1  UNL     1      21.134   8.330  49.735  1.00  0.00    -0.204 F 
HETATM   23  C17 UNL     1      22.567   6.724  50.763  1.00  0.00     0.074 A 
HETATM   24 CL1  UNL     1      23.838   7.912  50.945  1.00  0.00    -0.081 Cl
HETATM   25  C18 UNL     1      22.763   5.435  51.204  1.00  0.00     0.056 A 
ENDBRANCH  16  18
ENDBRANCH  13  16
ENDBRANCH   1  13
BRANCH   3  26
HETATM   26  N2  UNL     1      26.759   3.276  51.328  1.00  0.00    -0.399 N 
HETATM   27  H5  UNL     1      26.539   4.239  51.025  1.00  0.00     0.156 HD
HETATM   28  H6  UNL     1      27.316   3.413  50.455  1.00  0.00     0.156 HD
ENDBRANCH   3  26
BRANCH  12  29
HETATM   29  O1  UNL     1      23.598  -0.142  52.730  1.00  0.00    -0.386 OA
HETATM   30  H15 UNL     1      23.746  -0.897  52.090  1.00  0.00     0.210 HD
ENDBRANCH  12  29
TORSDOF 5
ENDMDL
MODEL 4
REMARK VINA RESULT:      -8.0      5.121      8.103
REMARK  5 active torsions:
REMARK  status: ('A' for Active; 'I' for Inactive)
REMARK    1  A    between atoms: C2_3  and  C3_4 
REMARK    2  A    between atoms: C2_3  and  N5_18 
REMARK    3  A    between atoms: C5_6  and  N2_7 
REMARK    4  A    between atoms: C12_16  and  O1_17 
REMARK    5  A    between atoms: N5_18  and  C13_19 
ROOT
HETATM    1  C3  UNL     1      26.075   4.128  50.090  1.00  0.00     0.062 C 
HETATM    2  C4  UNL     1      25.825   5.200  49.385  1.00  0.00     0.004 C 
HETATM    3  C5  UNL     1      27.058   5.761  48.711  1.00  0.00     0.031 C 
HETATM    4  C6  UNL     1      27.453   6.770  47.909  1.00  0.00     0.005 C 
HETATM    5  C7  UNL     1      27.618   7.929  47.055  1.00  0.00     0.051 C 
HETATM    6  C8  UNL     1      26.258   8.587  46.734  1.00  0.00     0.154 C 
HETATM    7  N3  UNL     1      25.581   8.761  47.992  1.00  0.00    -0.280 N 
HETATM    8  C9  UNL     1      25.242   7.443  48.142  1.00  0.00     0.123 A 
HETATM    9  C10 UNL     1      24.581   7.275  49.373  1.00  0.00     0.011 A 
HETATM   10  C11 UNL     1      24.541   8.538  49.914  1.00  0.00     0.150 A 
HETATM   11  N4  UNL     1      25.148   9.400  49.061  1.00  0.00    -0.185 NA
HETATM   12  C12 UNL     1      24.415   5.787  49.259  1.00  0.00     0.189 C 
ENDROOT
BRANCH   1  13
HETATM   13  C2  UNL     1      25.331   3.214  50.901  1.00  0.00     0.122 C 
HETATM   14  N1  UNL     1      24.278   2.604  50.615  1.00  0.00    -0.278 NA
HETATM   15  C1  UNL     1      23.396   1.699  51.223  1.00  0.00     0.179 C 
BRANCH  13  16
HETATM   16  N5  UNL     1      25.747   2.820  52.229  1.00  0.00    -0.341 N 
HETATM   17  H16 UNL     1      25.286   3.391  53.019  1.00  0.00     0.167 HD
BRANCH  16  18
HETATM   18  C13 UNL     1      26.707   1.814  52.629  1.00  0.00     0.035 A 
HETATM   19  C14 UNL     1      27.915   2.251  53.172  1.00  0.00     0.032 A 
HETATM   20  C15 UNL     1      28.841   1.316  53.516  1.00  0.00     0.046 A 
HETATM   21  C16 UNL     1      28.679  -0.042  53.366  1.00  0.00     0.138 A 
HETATM   22  F1  UNL     1      29.643  -0.942  53.728  1.00  0.00    -0.204 F 
HETATM   23  C17 UNL     1      27.485  -0.467  52.829  1.00  0.00     0.074 A 
HETATM   24 CL1  UNL     1      27.162  -2.170  52.593  1.00  0.00    -0.081 Cl
HETATM   25  C18 UNL     1      26.538   0.467  52.476  1.00  0.00     0.056 A 
ENDBRANCH  16  18
ENDBRANCH  13  16
ENDBRANCH   1  13
BRANCH   3  26
HETATM   26  N2  UNL     1      28.265   4.974  48.976  1.00  0.00    -0.399 N 
HETATM   27  H5  UNL     1      28.733   4.092  49.244  1.00  0.00     0.156 HD
HETATM   28  H6  UNL     1      29.286   5.195  48.946  1.00  0.00     0.156 HD
ENDBRANCH   3  26
BRANCH  12  29
HETATM   29  O1  UNL     1      23.597   5.390  50.270  1.00  0.00    -0.386 OA
HETATM   30  H15 UNL     1      23.577   6.005  51.059  1.00  0.00     0.210 HD
ENDBRANCH  12  29
TORSDOF 5
ENDMDL
MODEL 5
REMARK VINA RESULT:      -8.0      5.478      7.605
REMARK  5 active torsions:
REMARK  status: ('A' for Active; 'I' for Inactive)
REMARK    1  A    between atoms: C2_3  and  C3_4 
REMARK    2  A    between atoms: C2_3  and  N5_18 
REMARK    3  A    between atoms: C5_6  and  N2_7 
REMARK    4  A    between atoms: C12_16  and  O1_17 
REMARK    5  A    between atoms: N5_18  and  C13_19 
ROOT
HETATM    1  C3  UNL     1      25.161   5.037  50.429  1.00  0.00     0.062 C 
HETATM    2  C4  UNL     1      25.710   6.042  49.799  1.00  0.00     0.004 C 
HETATM    3  C5  UNL     1      26.930   5.638  49.000  1.00  0.00     0.031 C 
HETATM    4  C6  UNL     1      27.878   6.154  48.192  1.00  0.00     0.005 C 
HETATM    5  C7  UNL     1      28.770   6.943  47.366  1.00  0.00     0.051 C 
HETATM    6  C8  UNL     1      28.272   8.399  47.236  1.00  0.00     0.154 C 
HETATM    7  N3  UNL     1      27.999   8.858  48.573  1.00  0.00    -0.280 N 
HETATM    8  C9  UNL     1      26.830   8.160  48.715  1.00  0.00     0.123 A 
HETATM    9  C10 UNL     1      26.323   8.372  50.011  1.00  0.00     0.011 A 
HETATM   10  C11 UNL     1      27.230   9.223  50.598  1.00  0.00     0.150 A 
HETATM   11  N4  UNL     1      28.218   9.492  49.708  1.00  0.00    -0.185 NA
HETATM   12  C12 UNL     1      25.138   7.462  49.865  1.00  0.00     0.189 C 
ENDROOT
BRANCH   1  13
HETATM   13  C2  UNL     1      24.037   4.833  51.291  1.00  0.00     0.122 C 
HETATM   14  N1  UNL     1      22.837   5.105  51.077  1.00  0.00    -0.278 NA
HETATM   15  C1  UNL     1      21.608   5.010  51.747  1.00  0.00     0.179 C 
BRANCH  13  16
HETATM   16  N5  UNL     1      24.146   4.208  52.591  1.00  0.00    -0.341 N 
HETATM   17  H16 UNL     1      24.011   4.890  53.417  1.00  0.00     0.167 HD
BRANCH  16  18
HETATM   18  C13 UNL     1      24.443   2.833  52.926  1.00  0.00     0.035 A 
HETATM   19  C14 UNL     1      23.444   1.883  52.712  1.00  0.00     0.032 A 
HETATM   20  C15 UNL     1      23.698   0.593  53.060  1.00  0.00     0.046 A 
HETATM   21  C16 UNL     1      24.876   0.146  53.613  1.00  0.00     0.138 A 
HETATM   22  F1  UNL     1      25.082  -1.164  53.945  1.00  0.00    -0.204 F 
HETATM   23  C17 UNL     1      25.858   1.088  53.822  1.00  0.00     0.074 A 
HETATM   24 CL1  UNL     1      27.400   0.639  54.517  1.00  0.00    -0.081 Cl
HETATM   25  C18 UNL     1      25.616   2.398  53.476  1.00  0.00     0.056 A 
ENDBRANCH  16  18
ENDBRANCH  13  16
ENDBRANCH   1  13
BRANCH   3  26
HETATM   26  N2  UNL     1      27.226   4.205  49.088  1.00  0.00    -0.399 N 
HETATM   27  H5  UNL     1      27.888   3.422  49.208  1.00  0.00     0.156 HD
HETATM   28  H6  UNL     1      26.633   3.347  49.032  1.00  0.00     0.156 HD
ENDBRANCH   3  26
BRANCH  12  29
HETATM   29  O1  UNL     1      24.345   7.649  50.953  1.00  0.00    -0.386 OA
HETATM   30  H15 UNL     1      24.643   8.379  51.570  1.00  0.00     0.210 HD
ENDBRANCH  12  29
TORSDOF 5
ENDMDL
MODEL 6
REMARK VINA RESULT:      -7.9      3.366      7.092
REMARK  5 active torsions:
REMARK  status: ('A' for Active; 'I' for Inactive)
REMARK    1  A    between atoms: C2_3  and  C3_4 
REMARK    2  A    between atoms: C2_3  and  N5_18 
REMARK    3  A    between atoms: C5_6  and  N2_7 
REMARK    4  A    between atoms: C12_16  and  O1_17 
REMARK    5  A    between atoms: N5_18  and  C13_19 
ROOT
HETATM    1  C3  UNL     1      23.476   1.273  51.894  1.00  0.00     0.062 C 
HETATM    2  C4  UNL     1      22.780   1.510  50.814  1.00  0.00     0.004 C 
HETATM    3  C5  UNL     1      23.250   2.741  50.070  1.00  0.00     0.031 C 
HETATM    4  C6  UNL     1      22.980   3.476  48.973  1.00  0.00     0.005 C 
HETATM    5  C7  UNL     1      22.492   4.087  47.753  1.00  0.00     0.051 C 
HETATM    6  C8  UNL     1      21.383   3.231  47.103  1.00  0.00     0.154 C 
HETATM    7  N3  UNL     1      20.433   2.934  48.142  1.00  0.00    -0.280 N 
HETATM    8  C9  UNL     1      21.207   1.990  48.762  1.00  0.00     0.123 A 
HETATM    9  C10 UNL     1      20.537   1.527  49.909  1.00  0.00     0.011 A 
HETATM   10  C11 UNL     1      19.351   2.224  49.917  1.00  0.00     0.150 A 
HETATM   11  N4  UNL     1      19.324   3.055  48.845  1.00  0.00    -0.185 NA
HETATM   12  C12 UNL     1      21.629   0.603  50.365  1.00  0.00     0.189 C 
ENDROOT
BRANCH   1  13
HETATM   13  C2  UNL     1      23.486   0.293  52.936  1.00  0.00     0.122 C 
HETATM   14  N1  UNL     1      22.608   0.067  53.796  1.00  0.00    -0.278 NA
HETATM   15  C1  UNL     1      22.405  -0.800  54.881  1.00  0.00     0.179 C 
BRANCH  13  16
HETATM   16  N5  UNL     1      24.566  -0.653  53.119  1.00  0.00    -0.341 N 
HETATM   17  H16 UNL     1      24.236  -1.668  53.277  1.00  0.00     0.167 HD
BRANCH  16  18
HETATM   18  C13 UNL     1      25.993  -0.419  53.157  1.00  0.00     0.035 A 
HETATM   19  C14 UNL     1      26.834  -1.521  53.004  1.00  0.00     0.032 A 
HETATM   20  C15 UNL     1      28.177  -1.319  53.077  1.00  0.00     0.046 A 
HETATM   21  C16 UNL     1      28.778  -0.100  53.293  1.00  0.00     0.138 A 
HETATM   22  F1  UNL     1      30.135   0.049  53.358  1.00  0.00    -0.204 F 
HETATM   23  C17 UNL     1      27.942   0.983  53.443  1.00  0.00     0.074 A 
HETATM   24 CL1  UNL     1      28.589   2.585  53.720  1.00  0.00    -0.081 Cl
HETATM   25  C18 UNL     1      26.580   0.796  53.372  1.00  0.00     0.056 A 
ENDBRANCH  16  18
ENDBRANCH  13  16
ENDBRANCH   1  13
BRANCH   3  26
HETATM   26  N2  UNL     1      24.397   3.394  50.708  1.00  0.00    -0.399 N 
HETATM   27  H5  UNL     1      25.414   3.507  50.848  1.00  0.00     0.156 HD
HETATM   28  H6  UNL     1      24.484   4.160  51.412  1.00  0.00     0.156 HD
ENDBRANCH   3  26
BRANCH  12  29
HETATM   29  O1  UNL     1      21.130  -0.142  51.387  1.00  0.00    -0.386 OA
HETATM   30  H15 UNL     1      20.447   0.322  51.951  1.00  0.00     0.210 HD
ENDBRANCH  12  29
TORSDOF 5
ENDMDL
MODEL 7
REMARK VINA RESULT:      -7.8      4.382      7.328
REMARK  5 active torsions:
REMARK  status: ('A' for Active; 'I' for Inactive)
REMARK    1  A    between atoms: C2_3  and  C3_4 
REMARK    2  A    between atoms: C2_3  and  N5_18 
REMARK    3  A    between atoms: C5_6  and  N2_7 
REMARK    4  A    between atoms: C12_16  and  O1_17 
REMARK    5  A    between atoms: N5_18  and  C13_19 
ROOT
HETATM    1  C3  UNL     1      24.908   2.938  50.732  1.00  0.00     0.062 C 
HETATM    2  C4  UNL     1      24.662   4.079  50.144  1.00  0.00     0.004 C 
HETATM    3  C5  UNL     1      25.890   4.685  49.500  1.00  0.00     0.031 C 
HETATM    4  C6  UNL     1      26.286   5.763  48.794  1.00  0.00     0.005 C 
HETATM    5  C7  UNL     1      26.454   6.999  48.057  1.00  0.00     0.051 C 
HETATM    6  C8  UNL     1      25.099   7.708  47.836  1.00  0.00     0.154 C 
HETATM    7  N3  UNL     1      24.453   7.765  49.121  1.00  0.00    -0.280 N 
HETATM    8  C9  UNL     1      24.093   6.445  49.146  1.00  0.00     0.123 A 
HETATM    9  C10 UNL     1      23.457   6.164  50.369  1.00  0.00     0.011 A 
HETATM   10  C11 UNL     1      23.452   7.367  51.035  1.00  0.00     0.150 A 
HETATM   11  N4  UNL     1      24.056   8.301  50.259  1.00  0.00    -0.185 NA
HETATM   12  C12 UNL     1      23.261   4.698  50.111  1.00  0.00     0.189 C 
ENDROOT
BRANCH   1  13
HETATM   13  C2  UNL     1      24.165   1.959  51.464  1.00  0.00     0.122 C 
HETATM   14  N1  UNL     1      23.036   1.491  51.207  1.00  0.00    -0.278 NA
HETATM   15  C1  UNL     1      22.137   0.566  51.758  1.00  0.00     0.179 C 
BRANCH  13  16
HETATM   16  N5  UNL     1      24.674   1.312  52.654  1.00  0.00    -0.341 N 
HETATM   17  H16 UNL     1      23.948   1.225  53.448  1.00  0.00     0.167 HD
BRANCH  16  18
HETATM   18  C13 UNL     1      26.004   0.815  52.931  1.00  0.00     0.035 A 
HETATM   19  C14 UNL     1      26.272  -0.519  52.630  1.00  0.00     0.032 A 
HETATM   20  C15 UNL     1      27.507  -1.008  52.921  1.00  0.00     0.046 A 
HETATM   21  C16 UNL     1      28.523  -0.282  53.498  1.00  0.00     0.138 A 
HETATM   22  F1  UNL     1      29.749  -0.822  53.772  1.00  0.00    -0.204 F 
HETATM   23  C17 UNL     1      28.252   1.035  53.794  1.00  0.00     0.074 A 
HETATM   24 CL1  UNL     1      29.466   2.059  54.527  1.00  0.00    -0.081 Cl
HETATM   25  C18 UNL     1      27.007   1.544  53.505  1.00  0.00     0.056 A 
ENDBRANCH  16  18
ENDBRANCH  13  16
ENDBRANCH   1  13
BRANCH   3  26
HETATM   26  N2  UNL     1      27.088   3.856  49.656  1.00  0.00    -0.399 N 
HETATM   27  H5  UNL     1      28.034   3.563  49.361  1.00  0.00     0.156 HD
HETATM   28  H6  UNL     1      27.361   3.111  50.336  1.00  0.00     0.156 HD
ENDBRANCH   3  26
BRANCH  12  29
HETATM   29  O1  UNL     1      22.459   4.216  51.096  1.00  0.00    -0.386 OA
HETATM   30  H15 UNL     1      22.200   4.885  51.793  1.00  0.00     0.210 HD
ENDBRANCH  12  29
TORSDOF 5
ENDMDL
MODEL 8
REMARK VINA RESULT:      -7.8      4.461      6.724
REMARK  5 active torsions:
REMARK  status: ('A' for Active; 'I' for Inactive)
REMARK    1  A    between atoms: C2_3  and  C3_4 
REMARK    2  A    between atoms: C2_3  and  N5_18 
REMARK    3  A    between atoms: C5_6  and  N2_7 
REMARK    4  A    between atoms: C12_16  and  O1_17 
REMARK    5  A    between atoms: N5_18  and  C13_19 
ROOT
HETATM    1  C3  UNL     1      24.111   2.861  49.898  1.00  0.00     0.062 C 
HETATM    2  C4  UNL     1      24.654   3.969  49.470  1.00  0.00     0.004 C 
HETATM    3  C5  UNL     1      26.155   3.863  49.308  1.00  0.00     0.031 C 
HETATM    4  C6  UNL     1      27.228   4.589  48.936  1.00  0.00     0.005 C 
HETATM    5  C7  UNL     1      28.203   5.568  48.498  1.00  0.00     0.051 C 
HETATM    6  C8  UNL     1      27.517   6.872  48.033  1.00  0.00     0.154 C 
HETATM    7  N3  UNL     1      26.599   7.246  49.077  1.00  0.00    -0.280 N 
HETATM    8  C9  UNL     1      25.661   6.297  48.773  1.00  0.00     0.123 A 
HETATM    9  C10 UNL     1      24.608   6.376  49.703  1.00  0.00     0.011 A 
HETATM   10  C11 UNL     1      24.967   7.408  50.537  1.00  0.00     0.150 A 
HETATM   11  N4  UNL     1      26.163   7.905  50.132  1.00  0.00    -0.185 NA
HETATM   12  C12 UNL     1      23.826   5.219  49.153  1.00  0.00     0.189 C 
ENDROOT
BRANCH   1  13
HETATM   13  C2  UNL     1      22.794   2.397  50.215  1.00  0.00     0.122 C 
HETATM   14  N1  UNL     1      21.905   1.996  49.434  1.00  0.00    -0.278 NA
HETATM   15  C1  UNL     1      20.588   1.520  49.507  1.00  0.00     0.179 C 
BRANCH  13  16
HETATM   16  N5  UNL     1      22.303   2.287  51.572  1.00  0.00    -0.341 N 
HETATM   17  H16 UNL     1      21.732   3.141  51.900  1.00  0.00     0.167 HD
BRANCH  16  18
HETATM   18  C13 UNL     1      22.505   1.229  52.537  1.00  0.00     0.035 A 
HETATM   19  C14 UNL     1      21.383   0.743  53.209  1.00  0.00     0.032 A 
HETATM   20  C15 UNL     1      21.565  -0.225  54.147  1.00  0.00     0.046 A 
HETATM   21  C16 UNL     1      22.782  -0.767  54.490  1.00  0.00     0.138 A 
HETATM   22  F1  UNL     1      22.911  -1.740  55.442  1.00  0.00    -0.204 F 
HETATM   23  C17 UNL     1      23.885  -0.283  53.824  1.00  0.00     0.074 A 
HETATM   24 CL1  UNL     1      25.486  -0.898  54.172  1.00  0.00    -0.081 Cl
HETATM   25  C18 UNL     1      23.718   0.697  52.872  1.00  0.00     0.056 A 
ENDBRANCH  16  18
ENDBRANCH  13  16
ENDBRANCH   1  13
BRANCH   3  26
HETATM   26  N2  UNL     1      26.676   2.536  49.648  1.00  0.00    -0.399 N 
HETATM   27  H5  UNL     1      27.323   1.748  49.487  1.00  0.00     0.156 HD
HETATM   28  H6  UNL     1      26.434   1.839  50.386  1.00  0.00     0.156 HD
ENDBRANCH   3  26
BRANCH  12  29
HETATM   29  O1  UNL     1      22.618   5.211  49.778  1.00  0.00    -0.386 OA
HETATM   30  H15 UNL     1      22.569   4.627  50.589  1.00  0.00     0.210 HD
ENDBRANCH  12  29
TORSDOF 5
ENDMDL
MODEL 9
REMARK VINA RESULT:      -7.7      4.451      6.997
REMARK  5 active torsions:
REMARK  status: ('A' for Active; 'I' for Inactive)
REMARK    1  A    between atoms: C2_3  and  C3_4 
REMARK    2  A    between atoms: C2_3  and  N5_18 
REMARK    3  A    between atoms: C5_6  and  N2_7 
REMARK    4  A    between atoms: C12_16  and  O1_17 
REMARK    5  A    between atoms: N5_18  and  C13_19 
ROOT
HETATM    1  C3  UNL     1      22.838   4.692  51.393  1.00  0.00     0.062 C 
HETATM    2  C4  UNL     1      23.599   5.188  50.454  1.00  0.00     0.004 C 
HETATM    3  C5  UNL     1      24.472   6.323  50.943  1.00  0.00     0.031 C 
HETATM    4  C6  UNL     1      25.406   7.195  50.513  1.00  0.00     0.005 C 
HETATM    5  C7  UNL     1      26.375   8.012  49.811  1.00  0.00     0.051 C 
HETATM    6  C8  UNL     1      26.580   7.517  48.362  1.00  0.00     0.154 C 
HETATM    7  N3  UNL     1      25.267   7.376  47.788  1.00  0.00    -0.280 N 
HETATM    8  C9  UNL     1      24.957   6.220  48.452  1.00  0.00     0.123 A 
HETATM    9  C10 UNL     1      23.643   5.840  48.125  1.00  0.00     0.011 A 
HETATM   10  C11 UNL     1      23.217   6.805  47.244  1.00  0.00     0.150 A 
HETATM   11  N4  UNL     1      24.215   7.708  47.066  1.00  0.00    -0.185 NA
HETATM   12  C12 UNL     1      23.599   4.638  49.024  1.00  0.00     0.189 C 
ENDROOT
BRANCH   1  13
HETATM   13  C2  UNL     1      21.860   3.653  51.506  1.00  0.00     0.122 C 
HETATM   14  N1  UNL     1      20.636   3.762  51.734  1.00  0.00    -0.278 NA
HETATM   15  C1  UNL     1      19.523   2.923  51.892  1.00  0.00     0.179 C 
BRANCH  13  16
HETATM   16  N5  UNL     1      22.173   2.253  51.319  1.00  0.00    -0.341 N 
HETATM   17  H16 UNL     1      21.714   1.816  50.446  1.00  0.00     0.167 HD
BRANCH  16  18
HETATM   18  C13 UNL     1      22.967   1.372  52.147  1.00  0.00     0.035 A 
HETATM   19  C14 UNL     1      24.346   1.360  51.943  1.00  0.00     0.032 A 
HETATM   20  C15 UNL     1      25.099   0.508  52.689  1.00  0.00     0.046 A 
HETATM   21  C16 UNL     1      24.601  -0.354  53.638  1.00  0.00     0.138 A 
HETATM   22  F1  UNL     1      25.401  -1.193  54.363  1.00  0.00    -0.204 F 
HETATM   23  C17 UNL     1      23.238  -0.338  53.835  1.00  0.00     0.074 A 
HETATM   24 CL1  UNL     1      22.488  -1.388  55.017  1.00  0.00    -0.081 Cl
HETATM   25  C18 UNL     1      22.463   0.519  53.088  1.00  0.00     0.056 A 
ENDBRANCH  16  18
ENDBRANCH  13  16
ENDBRANCH   1  13
BRANCH   3  26
HETATM   26  N2  UNL     1      24.291   6.613  52.369  1.00  0.00    -0.399 N 
HETATM   27  H5  UNL     1      23.692   6.838  53.179  1.00  0.00     0.156 HD
HETATM   28  H6  UNL     1      24.951   6.683  53.175  1.00  0.00     0.156 HD
ENDBRANCH   3  26
BRANCH  12  29
HETATM   29  O1  UNL     1      22.461   3.953  48.733  1.00  0.00    -0.386 OA
HETATM   30  H15 UNL     1      22.065   3.450  49.502  1.00  0.00     0.210 HD
ENDBRANCH  12  29
TORSDOF 5
ENDMDL
