MODEL 1
REMARK VINA RESULT:      -7.7      0.000      0.000
REMARK  4 active torsions:
REMARK  status: ('A' for Active; 'I' for Inactive)
REMARK    1  A    between atoms: C2_2  and  S1_3 
REMARK    2  A    between atoms: S1_3  and  C3_5 
REMARK    3  A    between atoms: C6_8  and  N1_9 
REMARK    4  A    between atoms: N1_9  and  C7_10 
ROOT
HETATM    1  C3  UNL     1      25.974   0.075  54.236  1.00  0.00     0.128 A 
HETATM    2  C4  UNL     1      24.882   0.218  53.384  1.00  0.00     0.059 A 
HETATM    3  C5  UNL     1      23.699  -0.363  53.787  1.00  0.00     0.043 A 
HETATM    4  C6  UNL     1      22.590  -0.240  52.963  1.00  0.00     0.142 A 
HETATM    5  N2  UNL     1      21.416  -0.786  53.308  1.00  0.00    -0.224 NA
HETATM    6  C12 UNL     1      21.356  -1.455  54.476  1.00  0.00     0.236 A 
HETATM    7  N3  UNL     1      22.411  -1.589  55.291  1.00  0.00    -0.240 NA
HETATM    8  C13 UNL     1      23.611  -1.057  54.986  1.00  0.00     0.089 A 
HETATM    9  C14 UNL     1      24.720  -1.171  55.796  1.00  0.00     0.150 A 
HETATM   10  N4  UNL     1      25.890  -0.596  55.397  1.00  0.00    -0.249 NA
ENDROOT
BRANCH   4  11
HETATM   11  N1  UNL     1      22.597   0.451  51.723  1.00  0.00    -0.342 N 
HETATM   12  H5  UNL     1      22.937   0.312  50.732  1.00  0.00     0.167 HD
BRANCH  11  13
HETATM   13  C7  UNL     1      21.929   1.704  51.948  1.00  0.00     0.029 A 
HETATM   14  C8  UNL     1      20.650   2.065  52.112  1.00  0.00     0.026 A 
HETATM   15  C9  UNL     1      20.603   3.515  52.307  1.00  0.00    -0.001 A 
HETATM   16  C10 UNL     1      21.839   3.989  52.257  1.00  0.00    -0.005 A 
HETATM   17  C11 UNL     1      22.823   2.892  52.024  1.00  0.00     0.130 A 
HETATM   18 BR1  UNL     1      23.880   3.154  50.448  1.00  0.00    -0.080 Br
ENDBRANCH  11  13
ENDBRANCH   4  11
BRANCH   1  19
HETATM   19  S1  UNL     1      27.511   0.808  53.752  1.00  0.00     0.092 S 
HETATM   20  O1  UNL     1      27.561   2.291  54.051  1.00  0.00    -0.247 OA
BRANCH  19  21
HETATM   21  C2  UNL     1      28.887  -0.037  54.479  1.00  0.00     0.075 C 
HETATM   22  C1  UNL     1      29.668  -0.853  53.778  1.00  0.00     0.021 C 
ENDBRANCH  19  21
ENDBRANCH   1  19
TORSDOF 4
ENDMDL
MODEL 2
REMARK VINA RESULT:      -7.3      1.651      2.200
REMARK  4 active torsions:
REMARK  status: ('A' for Active; 'I' for Inactive)
REMARK    1  A    between atoms: C2_2  and  S1_3 
REMARK    2  A    between atoms: S1_3  and  C3_5 
REMARK    3  A    between atoms: C6_8  and  N1_9 
REMARK    4  A    between atoms: N1_9  and  C7_10 
ROOT
HETATM    1  C3  UNL     1      27.008   0.382  53.910  1.00  0.00     0.128 A 
HETATM    2  C4  UNL     1      26.229   0.982  52.925  1.00  0.00     0.059 A 
HETATM    3  C5  UNL     1      24.893   0.643  52.897  1.00  0.00     0.043 A 
HETATM    4  C6  UNL     1      24.085   1.221  51.929  1.00  0.00     0.142 A 
HETATM    5  N2  UNL     1      22.781   0.926  51.858  1.00  0.00    -0.224 NA
HETATM    6  C12 UNL     1      22.287   0.050  52.757  1.00  0.00     0.236 A 
HETATM    7  N3  UNL     1      23.044  -0.523  53.702  1.00  0.00    -0.240 NA
HETATM    8  C13 UNL     1      24.360  -0.256  53.812  1.00  0.00     0.089 A 
HETATM    9  C14 UNL     1      25.174  -0.824  54.769  1.00  0.00     0.150 A 
HETATM   10  N4  UNL     1      26.494  -0.488  54.796  1.00  0.00    -0.249 NA
ENDROOT
BRANCH   4  11
HETATM   11  N1  UNL     1      24.551   2.147  50.959  1.00  0.00    -0.342 N 
HETATM   12  H5  UNL     1      25.090   2.149  50.049  1.00  0.00     0.167 HD
BRANCH  11  13
HETATM   13  C7  UNL     1      24.136   3.450  51.402  1.00  0.00     0.029 A 
HETATM   14  C8  UNL     1      23.650   3.935  52.551  1.00  0.00     0.026 A 
HETATM   15  C9  UNL     1      23.415   5.370  52.382  1.00  0.00    -0.001 A 
HETATM   16  C10 UNL     1      23.762   5.713  51.151  1.00  0.00    -0.005 A 
HETATM   17  C11 UNL     1      24.260   4.532  50.387  1.00  0.00     0.130 A 
HETATM   18 BR1  UNL     1      23.262   4.197  48.788  1.00  0.00    -0.080 Br
ENDBRANCH  11  13
ENDBRANCH   4  11
BRANCH   1  19
HETATM   19  S1  UNL     1      28.729   0.794  53.976  1.00  0.00     0.092 S 
HETATM   20  O1  UNL     1      29.075   1.624  55.193  1.00  0.00    -0.247 OA
BRANCH  19  21
HETATM   21  C2  UNL     1      29.743  -0.655  53.881  1.00  0.00     0.075 C 
HETATM   22  C1  UNL     1      29.341  -1.762  53.264  1.00  0.00     0.021 C 
ENDBRANCH  19  21
ENDBRANCH   1  19
TORSDOF 4
ENDMDL
MODEL 3
REMARK VINA RESULT:      -7.2      3.287      5.045
REMARK  4 active torsions:
REMARK  status: ('A' for Active; 'I' for Inactive)
REMARK    1  A    between atoms: C2_2  and  S1_3 
REMARK    2  A    between atoms: S1_3  and  C3_5 
REMARK    3  A    between atoms: C6_8  and  N1_9 
REMARK    4  A    between atoms: N1_9  and  C7_10 
ROOT
HETATM    1  C3  UNL     1      23.746  -0.286  53.493  1.00  0.00     0.128 A 
HETATM    2  C4  UNL     1      23.457   0.849  52.741  1.00  0.00     0.059 A 
HETATM    3  C5  UNL     1      24.519   1.476  52.126  1.00  0.00     0.043 A 
HETATM    4  C6  UNL     1      24.267   2.610  51.368  1.00  0.00     0.142 A 
HETATM    5  N2  UNL     1      25.263   3.257  50.750  1.00  0.00    -0.224 NA
HETATM    6  C12 UNL     1      26.511   2.768  50.893  1.00  0.00     0.236 A 
HETATM    7  N3  UNL     1      26.783   1.674  51.618  1.00  0.00    -0.240 NA
HETATM    8  C13 UNL     1      25.814   0.992  52.258  1.00  0.00     0.089 A 
HETATM    9  C14 UNL     1      26.050  -0.136  53.013  1.00  0.00     0.150 A 
HETATM   10  N4  UNL     1      24.999  -0.756  53.621  1.00  0.00    -0.249 NA
ENDROOT
BRANCH   4  11
HETATM   11  N1  UNL     1      22.975   3.169  51.185  1.00  0.00    -0.342 N 
HETATM   12  H5  UNL     1      22.200   3.599  51.762  1.00  0.00     0.167 HD
BRANCH  11  13
HETATM   13  C7  UNL     1      22.695   3.102  49.776  1.00  0.00     0.029 A 
HETATM   14  C8  UNL     1      22.708   3.992  48.778  1.00  0.00     0.026 A 
HETATM   15  C9  UNL     1      22.321   3.305  47.543  1.00  0.00    -0.001 A 
HETATM   16  C10 UNL     1      22.088   2.032  47.824  1.00  0.00    -0.005 A 
HETATM   17  C11 UNL     1      22.299   1.757  49.275  1.00  0.00     0.130 A 
HETATM   18 BR1  UNL     1      20.744   1.047  50.138  1.00  0.00    -0.080 Br
ENDBRANCH  11  13
ENDBRANCH   4  11
BRANCH   1  19
HETATM   19  S1  UNL     1      22.407  -1.117  54.298  1.00  0.00     0.092 S 
HETATM   20  O1  UNL     1      22.774  -1.588  55.688  1.00  0.00    -0.247 OA
BRANCH  19  21
HETATM   21  C2  UNL     1      20.948  -0.113  54.327  1.00  0.00     0.075 C 
HETATM   22  C1  UNL     1      19.890  -0.379  53.567  1.00  0.00     0.021 C 
ENDBRANCH  19  21
ENDBRANCH   1  19
TORSDOF 4
ENDMDL
MODEL 4
REMARK VINA RESULT:      -7.1      2.026      2.606
REMARK  4 active torsions:
REMARK  status: ('A' for Active; 'I' for Inactive)
REMARK    1  A    between atoms: C2_2  and  S1_3 
REMARK    2  A    between atoms: S1_3  and  C3_5 
REMARK    3  A    between atoms: C6_8  and  N1_9 
REMARK    4  A    between atoms: N1_9  and  C7_10 
ROOT
HETATM    1  C3  UNL     1      26.576   0.919  53.472  1.00  0.00     0.128 A 
HETATM    2  C4  UNL     1      25.665   1.864  53.009  1.00  0.00     0.059 A 
HETATM    3  C5  UNL     1      24.336   1.497  53.005  1.00  0.00     0.043 A 
HETATM    4  C6  UNL     1      23.400   2.414  52.551  1.00  0.00     0.142 A 
HETATM    5  N2  UNL     1      22.096   2.108  52.527  1.00  0.00    -0.224 NA
HETATM    6  C12 UNL     1      21.732   0.883  52.956  1.00  0.00     0.236 A 
HETATM    7  N3  UNL     1      22.616  -0.022  53.400  1.00  0.00    -0.240 NA
HETATM    8  C13 UNL     1      23.936   0.241  53.443  1.00  0.00     0.089 A 
HETATM    9  C14 UNL     1      24.877  -0.660  53.892  1.00  0.00     0.150 A 
HETATM   10  N4  UNL     1      26.190  -0.296  53.896  1.00  0.00    -0.249 NA
ENDROOT
BRANCH   4  11
HETATM   11  N1  UNL     1      23.726   3.715  52.087  1.00  0.00    -0.342 N 
HETATM   12  H5  UNL     1      24.131   4.619  52.459  1.00  0.00     0.167 HD
BRANCH  11  13
HETATM   13  C7  UNL     1      23.377   3.754  50.693  1.00  0.00     0.029 A 
HETATM   14  C8  UNL     1      23.718   3.025  49.624  1.00  0.00     0.026 A 
HETATM   15  C9  UNL     1      23.018   3.564  48.457  1.00  0.00    -0.001 A 
HETATM   16  C10 UNL     1      22.279   4.592  48.845  1.00  0.00    -0.005 A 
HETATM   17  C11 UNL     1      22.422   4.830  50.311  1.00  0.00     0.130 A 
HETATM   18 BR1  UNL     1      23.049   6.591  50.727  1.00  0.00    -0.080 Br
ENDBRANCH  11  13
ENDBRANCH   4  11
BRANCH   1  19
HETATM   19  S1  UNL     1      28.292   1.355  53.492  1.00  0.00     0.092 S 
HETATM   20  O1  UNL     1      28.543   2.670  54.196  1.00  0.00    -0.247 OA
BRANCH  19  21
HETATM   21  C2  UNL     1      29.279   0.059  54.186  1.00  0.00     0.075 C 
HETATM   22  C1  UNL     1      29.723  -0.961  53.458  1.00  0.00     0.021 C 
ENDBRANCH  19  21
ENDBRANCH   1  19
TORSDOF 4
ENDMDL
MODEL 5
REMARK VINA RESULT:      -7.0      3.303      5.594
REMARK  4 active torsions:
REMARK  status: ('A' for Active; 'I' for Inactive)
REMARK    1  A    between atoms: C2_2  and  S1_3 
REMARK    2  A    between atoms: S1_3  and  C3_5 
REMARK    3  A    between atoms: C6_8  and  N1_9 
REMARK    4  A    between atoms: N1_9  and  C7_10 
ROOT
HETATM    1  C3  UNL     1      23.584   2.144  51.212  1.00  0.00     0.128 A 
HETATM    2  C4  UNL     1      24.684   1.363  51.555  1.00  0.00     0.059 A 
HETATM    3  C5  UNL     1      24.537   0.525  52.640  1.00  0.00     0.043 A 
HETATM    4  C6  UNL     1      25.613  -0.268  53.011  1.00  0.00     0.142 A 
HETATM    5  N2  UNL     1      25.523  -1.100  54.057  1.00  0.00    -0.224 NA
HETATM    6  C12 UNL     1      24.356  -1.135  54.730  1.00  0.00     0.236 A 
HETATM    7  N3  UNL     1      23.301  -0.380  54.394  1.00  0.00    -0.240 NA
HETATM    8  C13 UNL     1      23.345   0.471  53.350  1.00  0.00     0.089 A 
HETATM    9  C14 UNL     1      22.284   1.264  52.970  1.00  0.00     0.150 A 
HETATM   10  N4  UNL     1      22.430   2.092  51.898  1.00  0.00    -0.249 NA
ENDROOT
BRANCH   4  11
HETATM   11  N1  UNL     1      26.864  -0.271  52.340  1.00  0.00    -0.342 N 
HETATM   12  H5  UNL     1      27.342  -0.773  51.541  1.00  0.00     0.167 HD
BRANCH  11  13
HETATM   13  C7  UNL     1      27.678   0.723  52.983  1.00  0.00     0.029 A 
HETATM   14  C8  UNL     1      27.841   2.042  52.825  1.00  0.00     0.026 A 
HETATM   15  C9  UNL     1      28.831   2.504  53.801  1.00  0.00    -0.001 A 
HETATM   16  C10 UNL     1      29.236   1.465  54.516  1.00  0.00    -0.005 A 
HETATM   17  C11 UNL     1      28.549   0.215  54.078  1.00  0.00     0.130 A 
HETATM   18 BR1  UNL     1      29.766  -1.152  53.514  1.00  0.00    -0.080 Br
ENDBRANCH  11  13
ENDBRANCH   4  11
BRANCH   1  19
HETATM   19  S1  UNL     1      23.736   3.233  49.824  1.00  0.00     0.092 S 
HETATM   20  O1  UNL     1      22.508   4.096  49.633  1.00  0.00    -0.247 OA
BRANCH  19  21
HETATM   21  C2  UNL     1      25.201   4.222  49.937  1.00  0.00     0.075 C 
HETATM   22  C1  UNL     1      26.406   3.739  49.649  1.00  0.00     0.021 C 
ENDBRANCH  19  21
ENDBRANCH   1  19
TORSDOF 4
ENDMDL
MODEL 6
REMARK VINA RESULT:      -7.0      1.915      2.205
REMARK  4 active torsions:
REMARK  status: ('A' for Active; 'I' for Inactive)
REMARK    1  A    between atoms: C2_2  and  S1_3 
REMARK    2  A    between atoms: S1_3  and  C3_5 
REMARK    3  A    between atoms: C6_8  and  N1_9 
REMARK    4  A    between atoms: N1_9  and  C7_10 
ROOT
HETATM    1  C3  UNL     1      25.766   0.556  53.025  1.00  0.00     0.128 A 
HETATM    2  C4  UNL     1      24.687   1.313  52.579  1.00  0.00     0.059 A 
HETATM    3  C5  UNL     1      23.437   0.933  53.017  1.00  0.00     0.043 A 
HETATM    4  C6  UNL     1      22.338   1.664  52.593  1.00  0.00     0.142 A 
HETATM    5  N2  UNL     1      21.101   1.337  52.990  1.00  0.00    -0.224 NA
HETATM    6  C12 UNL     1      20.967   0.276  53.810  1.00  0.00     0.236 A 
HETATM    7  N3  UNL     1      22.011  -0.448  54.236  1.00  0.00    -0.240 NA
HETATM    8  C13 UNL     1      23.272  -0.157  53.863  1.00  0.00     0.089 A 
HETATM    9  C14 UNL     1      24.373  -0.875  54.278  1.00  0.00     0.150 A 
HETATM   10  N4  UNL     1      25.609  -0.498  53.844  1.00  0.00    -0.249 NA
ENDROOT
BRANCH   4  11
HETATM   11  N1  UNL     1      22.420   2.788  51.730  1.00  0.00    -0.342 N 
HETATM   12  H5  UNL     1      22.560   3.835  51.790  1.00  0.00     0.167 HD
BRANCH  11  13
HETATM   13  C7  UNL     1      22.255   2.290  50.391  1.00  0.00     0.029 A 
HETATM   14  C8  UNL     1      21.686   1.200  49.863  1.00  0.00     0.026 A 
HETATM   15  C9  UNL     1      21.843   1.257  48.408  1.00  0.00    -0.001 A 
HETATM   16  C10 UNL     1      22.494   2.368  48.097  1.00  0.00    -0.005 A 
HETATM   17  C11 UNL     1      22.830   3.152  49.321  1.00  0.00     0.130 A 
HETATM   18 BR1  UNL     1      24.708   3.465  49.520  1.00  0.00    -0.080 Br
ENDBRANCH  11  13
ENDBRANCH   4  11
BRANCH   1  19
HETATM   19  S1  UNL     1      27.388   1.015  52.483  1.00  0.00     0.092 S 
HETATM   20  O1  UNL     1      27.436   2.429  51.944  1.00  0.00    -0.247 OA
BRANCH  19  21
HETATM   21  C2  UNL     1      28.588   0.778  53.763  1.00  0.00     0.075 C 
HETATM   22  C1  UNL     1      29.330  -0.322  53.844  1.00  0.00     0.021 C 
ENDBRANCH  19  21
ENDBRANCH   1  19
TORSDOF 4
ENDMDL
MODEL 7
REMARK VINA RESULT:      -6.6      2.284      3.008
REMARK  4 active torsions:
REMARK  status: ('A' for Active; 'I' for Inactive)
REMARK    1  A    between atoms: C2_2  and  S1_3 
REMARK    2  A    between atoms: S1_3  and  C3_5 
REMARK    3  A    between atoms: C6_8  and  N1_9 
REMARK    4  A    between atoms: N1_9  and  C7_10 
ROOT
HETATM    1  C3  UNL     1      24.004   0.018  53.714  1.00  0.00     0.128 A 
HETATM    2  C4  UNL     1      23.243   0.913  52.967  1.00  0.00     0.059 A 
HETATM    3  C5  UNL     1      21.890   0.663  52.887  1.00  0.00     0.043 A 
HETATM    4  C6  UNL     1      21.100   1.533  52.151  1.00  0.00     0.142 A 
HETATM    5  N2  UNL     1      19.780   1.336  52.041  1.00  0.00    -0.224 NA
HETATM    6  C12 UNL     1      19.253   0.266  52.668  1.00  0.00     0.236 A 
HETATM    7  N3  UNL     1      19.991  -0.591  53.386  1.00  0.00    -0.240 NA
HETATM    8  C13 UNL     1      21.322  -0.433  53.524  1.00  0.00     0.089 A 
HETATM    9  C14 UNL     1      22.118  -1.290  54.253  1.00  0.00     0.150 A 
HETATM   10  N4  UNL     1      23.456  -1.042  54.331  1.00  0.00    -0.249 NA
ENDROOT
BRANCH   4  11
HETATM   11  N1  UNL     1      21.601   2.674  51.470  1.00  0.00    -0.342 N 
HETATM   12  H5  UNL     1      21.862   3.678  51.676  1.00  0.00     0.167 HD
BRANCH  11  13
HETATM   13  C7  UNL     1      21.788   2.285  50.099  1.00  0.00     0.029 A 
HETATM   14  C8  UNL     1      21.494   1.188  49.391  1.00  0.00     0.026 A 
HETATM   15  C9  UNL     1      21.942   1.396  48.012  1.00  0.00    -0.001 A 
HETATM   16  C10 UNL     1      22.489   2.598  47.923  1.00  0.00    -0.005 A 
HETATM   17  C11 UNL     1      22.454   3.301  49.239  1.00  0.00     0.130 A 
HETATM   18 BR1  UNL     1      24.190   3.812  49.864  1.00  0.00    -0.080 Br
ENDBRANCH  11  13
ENDBRANCH   4  11
BRANCH   1  19
HETATM   19  S1  UNL     1      25.746   0.307  53.839  1.00  0.00     0.092 S 
HETATM   20  O1  UNL     1      26.430  -0.687  54.751  1.00  0.00    -0.247 OA
BRANCH  19  21
HETATM   21  C2  UNL     1      26.511   0.340  52.242  1.00  0.00     0.075 C 
HETATM   22  C1  UNL     1      26.722   1.475  51.581  1.00  0.00     0.021 C 
ENDBRANCH  19  21
ENDBRANCH   1  19
TORSDOF 4
ENDMDL
MODEL 8
REMARK VINA RESULT:      -6.5      1.486      2.053
REMARK  4 active torsions:
REMARK  status: ('A' for Active; 'I' for Inactive)
REMARK    1  A    between atoms: C2_2  and  S1_3 
REMARK    2  A    between atoms: S1_3  and  C3_5 
REMARK    3  A    between atoms: C6_8  and  N1_9 
REMARK    4  A    between atoms: N1_9  and  C7_10 
ROOT
HETATM    1  C3  UNL     1      25.817   0.337  53.028  1.00  0.00     0.128 A 
HETATM    2  C4  UNL     1      24.966   0.965  52.123  1.00  0.00     0.059 A 
HETATM    3  C5  UNL     1      23.615   0.748  52.286  1.00  0.00     0.043 A 
HETATM    4  C6  UNL     1      22.737   1.358  51.402  1.00  0.00     0.142 A 
HETATM    5  N2  UNL     1      21.415   1.180  51.516  1.00  0.00    -0.224 NA
HETATM    6  C12 UNL     1      20.973   0.389  52.515  1.00  0.00     0.236 A 
HETATM    7  N3  UNL     1      21.798  -0.212  53.383  1.00  0.00    -0.240 NA
HETATM    8  C13 UNL     1      23.134  -0.062  53.307  1.00  0.00     0.089 A 
HETATM    9  C14 UNL     1      24.017  -0.663  54.178  1.00  0.00     0.150 A 
HETATM   10  N4  UNL     1      25.354  -0.447  54.017  1.00  0.00    -0.249 NA
ENDROOT
BRANCH   4  11
HETATM   11  N1  UNL     1      23.146   2.198  50.334  1.00  0.00    -0.342 N 
HETATM   12  H5  UNL     1      23.537   2.114  49.355  1.00  0.00     0.167 HD
BRANCH  11  13
HETATM   13  C7  UNL     1      22.945   3.551  50.775  1.00  0.00     0.029 A 
HETATM   14  C8  UNL     1      21.877   4.350  50.885  1.00  0.00     0.026 A 
HETATM   15  C9  UNL     1      22.320   5.643  51.409  1.00  0.00    -0.001 A 
HETATM   16  C10 UNL     1      23.629   5.595  51.601  1.00  0.00    -0.005 A 
HETATM   17  C11 UNL     1      24.177   4.260  51.221  1.00  0.00     0.130 A 
HETATM   18 BR1  UNL     1      25.530   4.361  49.870  1.00  0.00    -0.080 Br
ENDBRANCH  11  13
ENDBRANCH   4  11
BRANCH   1  19
HETATM   19  S1  UNL     1      27.559   0.592  52.851  1.00  0.00     0.092 S 
HETATM   20  O1  UNL     1      28.035   1.836  53.570  1.00  0.00    -0.247 OA
BRANCH  19  21
HETATM   21  C2  UNL     1      28.476  -0.833  53.365  1.00  0.00     0.075 C 
HETATM   22  C1  UNL     1      29.774  -0.775  53.650  1.00  0.00     0.021 C 
ENDBRANCH  19  21
ENDBRANCH   1  19
TORSDOF 4
ENDMDL
MODEL 9
REMARK VINA RESULT:      -6.5      3.196      5.042
REMARK  4 active torsions:
REMARK  status: ('A' for Active; 'I' for Inactive)
REMARK    1  A    between atoms: C2_2  and  S1_3 
REMARK    2  A    between atoms: S1_3  and  C3_5 
REMARK    3  A    between atoms: C6_8  and  N1_9 
REMARK    4  A    between atoms: N1_9  and  C7_10 
ROOT
HETATM    1  C3  UNL     1      23.358  -0.300  53.463  1.00  0.00     0.128 A 
HETATM    2  C4  UNL     1      23.511   0.660  52.468  1.00  0.00     0.059 A 
HETATM    3  C5  UNL     1      24.770   1.200  52.313  1.00  0.00     0.043 A 
HETATM    4  C6  UNL     1      24.960   2.160  51.330  1.00  0.00     0.142 A 
HETATM    5  N2  UNL     1      26.163   2.716  51.138  1.00  0.00    -0.224 NA
HETATM    6  C12 UNL     1      27.175   2.310  51.932  1.00  0.00     0.236 A 
HETATM    7  N3  UNL     1      27.020   1.384  52.888  1.00  0.00    -0.240 NA
HETATM    8  C13 UNL     1      25.829   0.798  53.117  1.00  0.00     0.089 A 
HETATM    9  C14 UNL     1      25.626  -0.157  54.090  1.00  0.00     0.150 A 
HETATM   10  N4  UNL     1      24.381  -0.690  54.242  1.00  0.00    -0.249 NA
ENDROOT
BRANCH   4  11
HETATM   11  N1  UNL     1      23.933   2.625  50.468  1.00  0.00    -0.342 N 
HETATM   12  H5  UNL     1      23.280   2.249  49.726  1.00  0.00     0.167 HD
BRANCH  11  13
HETATM   13  C7  UNL     1      23.784   4.031  50.727  1.00  0.00     0.029 A 
HETATM   14  C8  UNL     1      23.531   4.758  51.822  1.00  0.00     0.026 A 
HETATM   15  C9  UNL     1      23.500   6.171  51.441  1.00  0.00    -0.001 A 
HETATM   16  C10 UNL     1      23.734   6.262  50.140  1.00  0.00    -0.005 A 
HETATM   17  C11 UNL     1      23.942   4.913  49.538  1.00  0.00     0.130 A 
HETATM   18 BR1  UNL     1      22.706   4.522  48.128  1.00  0.00    -0.080 Br
ENDBRANCH  11  13
ENDBRANCH   4  11
BRANCH   1  19
HETATM   19  S1  UNL     1      21.755  -1.016  53.691  1.00  0.00     0.092 S 
HETATM   20  O1  UNL     1      21.561  -1.559  55.090  1.00  0.00    -0.247 OA
BRANCH  19  21
HETATM   21  C2  UNL     1      20.471   0.128  53.265  1.00  0.00     0.075 C 
HETATM   22  C1  UNL     1      19.288  -0.273  52.810  1.00  0.00     0.021 C 
ENDBRANCH  19  21
ENDBRANCH   1  19
TORSDOF 4
ENDMDL
