MODEL 1
REMARK VINA RESULT:      -7.4      0.000      0.000
REMARK  11 active torsions:
REMARK  status: ('A' for Active; 'I' for Inactive)
REMARK    1  A    between atoms: O1_2  and  C2_3 
REMARK    2  A    between atoms: C2_3  and  C3_4 
REMARK    3  A    between atoms: C3_4  and  O2_5 
REMARK    4  A    between atoms: O2_5  and  C4_6 
REMARK    5  A    between atoms: C8_12  and  C9_13 
REMARK    6  A    between atoms: C13_17  and  C14_18 
REMARK    7  A    between atoms: C14_18  and  N3_19 
REMARK    8  A    between atoms: C17_22  and  O3_23 
REMARK    9  A    between atoms: O3_23  and  C18_24 
REMARK   10  A    between atoms: C18_24  and  C19_25 
REMARK   11  A    between atoms: C19_25  and  O4_26 
ROOT
HETATM    1  C4  UNL     1      22.747   0.681  51.806  1.00  0.00     0.104 A 
HETATM    2  C5  UNL     1      22.098   1.205  50.683  1.00  0.00     0.072 A 
HETATM    3  C6  UNL     1      22.610   2.296  49.971  1.00  0.00     0.073 A 
HETATM    4  N1  UNL     1      22.031   2.825  48.905  1.00  0.00    -0.241 NA
HETATM    5  C7  UNL     1      22.648   3.891  48.313  1.00  0.00     0.234 A 
HETATM    6  N2  UNL     1      23.821   4.413  48.781  1.00  0.00    -0.245 NA
HETATM    7  C8  UNL     1      24.424   3.871  49.883  1.00  0.00     0.060 A 
HETATM    8  C15 UNL     1      23.794   2.798  50.471  1.00  0.00     0.021 A 
HETATM    9  C16 UNL     1      24.455   2.314  51.561  1.00  0.00     0.055 A 
HETATM   10  C17 UNL     1      23.948   1.242  52.258  1.00  0.00     0.103 A 
ENDROOT
BRANCH   7  11
HETATM   11  C9  UNL     1      25.660   4.577  50.207  1.00  0.00     0.092 A 
HETATM   12  C10 UNL     1      26.770   4.268  49.265  1.00  0.00    -0.011 A 
HETATM   13  C11 UNL     1      27.072   5.368  48.590  1.00  0.00    -0.003 A 
HETATM   14  C12 UNL     1      26.235   6.482  48.988  1.00  0.00     0.005 A 
HETATM   15  C13 UNL     1      25.410   6.036  49.926  1.00  0.00    -0.039 A 
BRANCH  15  16
HETATM   16  C14 UNL     1      24.355   6.799  50.654  1.00  0.00     0.302 C 
BRANCH  16  17
HETATM   17  N3  UNL     1      24.514   6.600  52.086  1.00  0.00     0.082 N 
HETATM   18  H16 UNL     1      24.031   5.741  52.424  1.00  0.00     0.313 HD
HETATM   19  H17 UNL     1      25.501   6.650  52.366  1.00  0.00     0.313 HD
ENDBRANCH  16  17
ENDBRANCH  15  16
ENDBRANCH   7  11
BRANCH  10  20
HETATM   20  O3  UNL     1      24.500   0.664  53.352  1.00  0.00    -0.346 OA
BRANCH  20  21
HETATM   21  C18 UNL     1      25.755   0.019  53.417  1.00  0.00     0.201 C 
BRANCH  21  22
HETATM   22  C19 UNL     1      26.241   0.200  54.836  1.00  0.00     0.193 C 
BRANCH  22  23
HETATM   23  O4  UNL     1      27.404  -0.436  55.150  1.00  0.00    -0.394 OA
HETATM   24  C20 UNL     1      28.544   0.200  54.692  1.00  0.00     0.201 C 
ENDBRANCH  22  23
ENDBRANCH  21  22
ENDBRANCH  20  21
ENDBRANCH  10  20
BRANCH   1  25
HETATM   25  O2  UNL     1      22.179  -0.417  52.475  1.00  0.00    -0.346 OA
BRANCH  25  26
HETATM   26  C3  UNL     1      20.999  -0.147  53.210  1.00  0.00     0.201 C 
BRANCH  26  27
HETATM   27  C2  UNL     1      21.314  -0.167  54.669  1.00  0.00     0.193 C 
BRANCH  27  28
HETATM   28  O1  UNL     1      21.682  -1.424  55.085  1.00  0.00    -0.394 OA
HETATM   29  C1  UNL     1      22.987  -1.532  55.516  1.00  0.00     0.201 C 
ENDBRANCH  27  28
ENDBRANCH  26  27
ENDBRANCH  25  26
ENDBRANCH   1  25
TORSDOF 11
ENDMDL
MODEL 2
REMARK VINA RESULT:      -7.2      3.594      6.405
REMARK  11 active torsions:
REMARK  status: ('A' for Active; 'I' for Inactive)
REMARK    1  A    between atoms: O1_2  and  C2_3 
REMARK    2  A    between atoms: C2_3  and  C3_4 
REMARK    3  A    between atoms: C3_4  and  O2_5 
REMARK    4  A    between atoms: O2_5  and  C4_6 
REMARK    5  A    between atoms: C8_12  and  C9_13 
REMARK    6  A    between atoms: C13_17  and  C14_18 
REMARK    7  A    between atoms: C14_18  and  N3_19 
REMARK    8  A    between atoms: C17_22  and  O3_23 
REMARK    9  A    between atoms: O3_23  and  C18_24 
REMARK   10  A    between atoms: C18_24  and  C19_25 
REMARK   11  A    between atoms: C19_25  and  O4_26 
ROOT
HETATM    1  C4  UNL     1      22.131   1.231  51.977  1.00  0.00     0.104 A 
HETATM    2  C5  UNL     1      22.151   0.416  53.114  1.00  0.00     0.072 A 
HETATM    3  C6  UNL     1      23.347  -0.046  53.676  1.00  0.00     0.073 A 
HETATM    4  N1  UNL     1      23.415  -0.818  54.749  1.00  0.00    -0.241 NA
HETATM    5  C7  UNL     1      24.655  -1.191  55.183  1.00  0.00     0.234 A 
HETATM    6  N2  UNL     1      25.802  -0.796  54.554  1.00  0.00    -0.245 NA
HETATM    7  C8  UNL     1      25.740   0.001  53.445  1.00  0.00     0.060 A 
HETATM    8  C15 UNL     1      24.485   0.371  53.016  1.00  0.00     0.021 A 
HETATM    9  C16 UNL     1      24.504   1.165  51.907  1.00  0.00     0.055 A 
HETATM   10  C17 UNL     1      23.326   1.616  51.358  1.00  0.00     0.103 A 
ENDROOT
BRANCH   7  11
HETATM   11  C9  UNL     1      27.074   0.302  52.937  1.00  0.00     0.092 A 
HETATM   12  C10 UNL     1      27.784   1.334  53.741  1.00  0.00    -0.011 A 
HETATM   13  C11 UNL     1      28.830   0.769  54.327  1.00  0.00    -0.003 A 
HETATM   14  C12 UNL     1      28.931  -0.637  53.993  1.00  0.00     0.005 A 
HETATM   15  C13 UNL     1      27.918  -0.922  53.187  1.00  0.00    -0.039 A 
BRANCH  15  16
HETATM   16  C14 UNL     1      27.582  -2.237  52.568  1.00  0.00     0.302 C 
BRANCH  16  17
HETATM   17  N3  UNL     1      28.459  -3.264  53.107  1.00  0.00     0.082 N 
HETATM   18  H16 UNL     1      28.149  -3.600  54.044  1.00  0.00     0.313 HD
HETATM   19  H17 UNL     1      28.610  -4.023  52.432  1.00  0.00     0.313 HD
ENDBRANCH  16  17
ENDBRANCH  15  16
ENDBRANCH   7  11
BRANCH  10  20
HETATM   20  O3  UNL     1      23.204   2.406  50.265  1.00  0.00    -0.346 OA
BRANCH  20  21
HETATM   21  C18 UNL     1      24.208   3.227  49.706  1.00  0.00     0.201 C 
BRANCH  21  22
HETATM   22  C19 UNL     1      24.195   4.504  50.513  1.00  0.00     0.193 C 
BRANCH  22  23
HETATM   23  O4  UNL     1      25.284   5.309  50.365  1.00  0.00    -0.394 OA
HETATM   24  C20 UNL     1      26.050   5.035  49.246  1.00  0.00     0.201 C 
ENDBRANCH  22  23
ENDBRANCH  21  22
ENDBRANCH  20  21
ENDBRANCH  10  20
BRANCH   1  25
HETATM   25  O2  UNL     1      20.894   1.661  51.464  1.00  0.00    -0.346 OA
BRANCH  25  26
HETATM   26  C3  UNL     1      20.094   2.427  52.346  1.00  0.00     0.201 C 
BRANCH  26  27
HETATM   27  C2  UNL     1      19.585   3.631  51.625  1.00  0.00     0.193 C 
BRANCH  27  28
HETATM   28  O1  UNL     1      20.614   4.457  51.240  1.00  0.00    -0.394 OA
HETATM   29  C1  UNL     1      20.548   4.895  49.935  1.00  0.00     0.201 C 
ENDBRANCH  27  28
ENDBRANCH  26  27
ENDBRANCH  25  26
ENDBRANCH   1  25
TORSDOF 11
ENDMDL
MODEL 3
REMARK VINA RESULT:      -7.2      3.641      6.160
REMARK  11 active torsions:
REMARK  status: ('A' for Active; 'I' for Inactive)
REMARK    1  A    between atoms: O1_2  and  C2_3 
REMARK    2  A    between atoms: C2_3  and  C3_4 
REMARK    3  A    between atoms: C3_4  and  O2_5 
REMARK    4  A    between atoms: O2_5  and  C4_6 
REMARK    5  A    between atoms: C8_12  and  C9_13 
REMARK    6  A    between atoms: C13_17  and  C14_18 
REMARK    7  A    between atoms: C14_18  and  N3_19 
REMARK    8  A    between atoms: C17_22  and  O3_23 
REMARK    9  A    between atoms: O3_23  and  C18_24 
REMARK   10  A    between atoms: C18_24  and  C19_25 
REMARK   11  A    between atoms: C19_25  and  O4_26 
ROOT
HETATM    1  C4  UNL     1      21.970   1.025  52.086  1.00  0.00     0.104 A 
HETATM    2  C5  UNL     1      22.051   0.252  53.249  1.00  0.00     0.072 A 
HETATM    3  C6  UNL     1      23.277  -0.164  53.781  1.00  0.00     0.073 A 
HETATM    4  N1  UNL     1      23.401  -0.895  54.877  1.00  0.00    -0.241 NA
HETATM    5  C7  UNL     1      24.665  -1.226  55.277  1.00  0.00     0.234 A 
HETATM    6  N2  UNL     1      25.779  -0.830  54.592  1.00  0.00    -0.245 NA
HETATM    7  C8  UNL     1      25.657  -0.075  53.458  1.00  0.00     0.060 A 
HETATM    8  C15 UNL     1      24.380   0.253  53.065  1.00  0.00     0.021 A 
HETATM    9  C16 UNL     1      24.340   1.006  51.929  1.00  0.00     0.055 A 
HETATM   10  C17 UNL     1      23.133   1.412  51.409  1.00  0.00     0.103 A 
ENDROOT
BRANCH   7  11
HETATM   11  C9  UNL     1      26.965   0.236  52.890  1.00  0.00     0.092 A 
HETATM   12  C10 UNL     1      27.681   1.310  53.631  1.00  0.00    -0.011 A 
HETATM   13  C11 UNL     1      28.761   0.789  54.195  1.00  0.00    -0.003 A 
HETATM   14  C12 UNL     1      28.881  -0.626  53.907  1.00  0.00     0.005 A 
HETATM   15  C13 UNL     1      27.844  -0.960  53.150  1.00  0.00    -0.039 A 
BRANCH  15  16
HETATM   16  C14 UNL     1      27.515  -2.304  52.590  1.00  0.00     0.302 C 
BRANCH  16  17
HETATM   17  N3  UNL     1      28.451  -3.288  53.110  1.00  0.00     0.082 N 
HETATM   18  H16 UNL     1      29.302  -2.849  53.523  1.00  0.00     0.313 HD
HETATM   19  H17 UNL     1      27.988  -3.952  53.742  1.00  0.00     0.313 HD
ENDBRANCH  16  17
ENDBRANCH  15  16
ENDBRANCH   7  11
BRANCH  10  20
HETATM   20  O3  UNL     1      22.952   2.160  50.293  1.00  0.00    -0.346 OA
BRANCH  20  21
HETATM   21  C18 UNL     1      23.745   3.252  49.878  1.00  0.00     0.201 C 
BRANCH  21  22
HETATM   22  C19 UNL     1      23.051   4.489  50.398  1.00  0.00     0.193 C 
BRANCH  22  23
HETATM   23  O4  UNL     1      23.706   5.166  51.382  1.00  0.00    -0.394 OA
HETATM   24  C20 UNL     1      23.319   4.825  52.666  1.00  0.00     0.201 C 
ENDBRANCH  22  23
ENDBRANCH  21  22
ENDBRANCH  20  21
ENDBRANCH  10  20
BRANCH   1  25
HETATM   25  O2  UNL     1      20.706   1.409  51.605  1.00  0.00    -0.346 OA
BRANCH  25  26
HETATM   26  C3  UNL     1      19.821   0.351  51.284  1.00  0.00     0.201 C 
BRANCH  26  27
HETATM   27  C2  UNL     1      18.420   0.784  51.561  1.00  0.00     0.193 C 
BRANCH  27  28
HETATM   28  O1  UNL     1      17.721  -0.185  52.240  1.00  0.00    -0.394 OA
HETATM   29  C1  UNL     1      18.475  -0.938  53.115  1.00  0.00     0.201 C 
ENDBRANCH  27  28
ENDBRANCH  26  27
ENDBRANCH  25  26
ENDBRANCH   1  25
TORSDOF 11
ENDMDL
MODEL 4
REMARK VINA RESULT:      -7.1      2.907      6.173
REMARK  11 active torsions:
REMARK  status: ('A' for Active; 'I' for Inactive)
REMARK    1  A    between atoms: O1_2  and  C2_3 
REMARK    2  A    between atoms: C2_3  and  C3_4 
REMARK    3  A    between atoms: C3_4  and  O2_5 
REMARK    4  A    between atoms: O2_5  and  C4_6 
REMARK    5  A    between atoms: C8_12  and  C9_13 
REMARK    6  A    between atoms: C13_17  and  C14_18 
REMARK    7  A    between atoms: C14_18  and  N3_19 
REMARK    8  A    between atoms: C17_22  and  O3_23 
REMARK    9  A    between atoms: O3_23  and  C18_24 
REMARK   10  A    between atoms: C18_24  and  C19_25 
REMARK   11  A    between atoms: C19_25  and  O4_26 
ROOT
HETATM    1  C4  UNL     1      26.864   1.791  52.289  1.00  0.00     0.104 A 
HETATM    2  C5  UNL     1      26.208   0.878  53.122  1.00  0.00     0.072 A 
HETATM    3  C6  UNL     1      24.845   0.590  52.982  1.00  0.00     0.073 A 
HETATM    4  N1  UNL     1      24.183  -0.264  53.745  1.00  0.00    -0.241 NA
HETATM    5  C7  UNL     1      22.853  -0.442  53.490  1.00  0.00     0.234 A 
HETATM    6  N2  UNL     1      22.202   0.223  52.489  1.00  0.00    -0.245 NA
HETATM    7  C8  UNL     1      22.880   1.107  51.697  1.00  0.00     0.060 A 
HETATM    8  C15 UNL     1      24.219   1.279  51.963  1.00  0.00     0.021 A 
HETATM    9  C16 UNL     1      24.825   2.175  51.132  1.00  0.00     0.055 A 
HETATM   10  C17 UNL     1      26.165   2.455  51.274  1.00  0.00     0.103 A 
ENDROOT
BRANCH   7  11
HETATM   11  C9  UNL     1      21.998   1.700  50.696  1.00  0.00     0.092 A 
HETATM   12  C10 UNL     1      21.074   0.712  50.076  1.00  0.00    -0.011 A 
HETATM   13  C11 UNL     1      19.832   1.017  50.423  1.00  0.00    -0.003 A 
HETATM   14  C12 UNL     1      19.790   2.189  51.274  1.00  0.00     0.005 A 
HETATM   15  C13 UNL     1      21.041   2.596  51.441  1.00  0.00    -0.039 A 
BRANCH  15  16
HETATM   16  C14 UNL     1      21.525   3.762  52.235  1.00  0.00     0.302 C 
BRANCH  16  17
HETATM   17  N3  UNL     1      22.033   4.785  51.334  1.00  0.00     0.082 N 
HETATM   18  H16 UNL     1      22.355   4.390  50.425  1.00  0.00     0.313 HD
HETATM   19  H17 UNL     1      21.366   5.560  51.229  1.00  0.00     0.313 HD
ENDBRANCH  16  17
ENDBRANCH  15  16
ENDBRANCH   7  11
BRANCH  10  20
HETATM   20  O3  UNL     1      26.886   3.318  50.520  1.00  0.00    -0.346 OA
BRANCH  20  21
HETATM   21  C18 UNL     1      26.659   3.641  49.164  1.00  0.00     0.201 C 
BRANCH  21  22
HETATM   22  C19 UNL     1      27.381   4.946  48.923  1.00  0.00     0.193 C 
BRANCH  22  23
HETATM   23  O4  UNL     1      28.645   4.839  48.426  1.00  0.00    -0.394 OA
HETATM   24  C20 UNL     1      29.246   6.050  48.130  1.00  0.00     0.201 C 
ENDBRANCH  22  23
ENDBRANCH  21  22
ENDBRANCH  20  21
ENDBRANCH  10  20
BRANCH   1  25
HETATM   25  O2  UNL     1      28.235   2.033  52.484  1.00  0.00    -0.346 OA
BRANCH  25  26
HETATM   26  C3  UNL     1      28.616   2.393  53.800  1.00  0.00     0.201 C 
BRANCH  26  27
HETATM   27  C2  UNL     1      29.354   1.256  54.424  1.00  0.00     0.193 C 
BRANCH  27  28
HETATM   28  O1  UNL     1      29.831   0.386  53.474  1.00  0.00    -0.394 OA
HETATM   29  C1  UNL     1      29.564  -0.944  53.720  1.00  0.00     0.201 C 
ENDBRANCH  27  28
ENDBRANCH  26  27
ENDBRANCH  25  26
ENDBRANCH   1  25
TORSDOF 11
ENDMDL
MODEL 5
REMARK VINA RESULT:      -7.0      1.867      4.902
REMARK  11 active torsions:
REMARK  status: ('A' for Active; 'I' for Inactive)
REMARK    1  A    between atoms: O1_2  and  C2_3 
REMARK    2  A    between atoms: C2_3  and  C3_4 
REMARK    3  A    between atoms: C3_4  and  O2_5 
REMARK    4  A    between atoms: O2_5  and  C4_6 
REMARK    5  A    between atoms: C8_12  and  C9_13 
REMARK    6  A    between atoms: C13_17  and  C14_18 
REMARK    7  A    between atoms: C14_18  and  N3_19 
REMARK    8  A    between atoms: C17_22  and  O3_23 
REMARK    9  A    between atoms: O3_23  and  C18_24 
REMARK   10  A    between atoms: C18_24  and  C19_25 
REMARK   11  A    between atoms: C19_25  and  O4_26 
ROOT
HETATM    1  C4  UNL     1      25.858  -0.155  52.840  1.00  0.00     0.104 A 
HETATM    2  C5  UNL     1      26.668   0.701  52.086  1.00  0.00     0.072 A 
HETATM    3  C6  UNL     1      26.158   1.842  51.456  1.00  0.00     0.073 A 
HETATM    4  N1  UNL     1      26.885   2.680  50.734  1.00  0.00    -0.241 NA
HETATM    5  C7  UNL     1      26.248   3.752  50.177  1.00  0.00     0.234 A 
HETATM    6  N2  UNL     1      24.911   3.979  50.343  1.00  0.00    -0.245 NA
HETATM    7  C8  UNL     1      24.154   3.118  51.087  1.00  0.00     0.060 A 
HETATM    8  C15 UNL     1      24.806   2.040  51.644  1.00  0.00     0.021 A 
HETATM    9  C16 UNL     1      23.986   1.229  52.371  1.00  0.00     0.055 A 
HETATM   10  C17 UNL     1      24.491   0.108  52.989  1.00  0.00     0.103 A 
ENDROOT
BRANCH   7  11
HETATM   11  C9  UNL     1      22.760   3.548  51.135  1.00  0.00     0.092 A 
HETATM   12  C10 UNL     1      22.611   5.018  51.311  1.00  0.00    -0.011 A 
HETATM   13  C11 UNL     1      22.063   5.523  50.216  1.00  0.00    -0.003 A 
HETATM   14  C12 UNL     1      21.796   4.494  49.231  1.00  0.00     0.005 A 
HETATM   15  C13 UNL     1      22.197   3.342  49.752  1.00  0.00    -0.039 A 
BRANCH  15  16
HETATM   16  C14 UNL     1      22.137   1.987  49.131  1.00  0.00     0.302 C 
BRANCH  16  17
HETATM   17  N3  UNL     1      22.538   2.075  47.736  1.00  0.00     0.082 N 
HETATM   18  H16 UNL     1      23.255   2.813  47.574  1.00  0.00     0.313 HD
HETATM   19  H17 UNL     1      22.807   1.156  47.362  1.00  0.00     0.313 HD
ENDBRANCH  16  17
ENDBRANCH  15  16
ENDBRANCH   7  11
BRANCH  10  20
HETATM   20  O3  UNL     1      23.791  -0.778  53.737  1.00  0.00    -0.346 OA
BRANCH  20  21
HETATM   21  C18 UNL     1      22.490  -1.258  53.470  1.00  0.00     0.201 C 
BRANCH  21  22
HETATM   22  C19 UNL     1      21.712  -1.079  54.752  1.00  0.00     0.193 C 
BRANCH  22  23
HETATM   23  O4  UNL     1      21.124   0.139  54.922  1.00  0.00    -0.394 OA
HETATM   24  C20 UNL     1      20.542   0.657  53.779  1.00  0.00     0.201 C 
ENDBRANCH  22  23
ENDBRANCH  21  22
ENDBRANCH  20  21
ENDBRANCH  10  20
BRANCH   1  25
HETATM   25  O2  UNL     1      26.434  -1.284  53.448  1.00  0.00    -0.346 OA
BRANCH  25  26
HETATM   26  C3  UNL     1      27.033  -2.219  52.569  1.00  0.00     0.201 C 
BRANCH  26  27
HETATM   27  C2  UNL     1      28.451  -2.439  52.979  1.00  0.00     0.193 C 
BRANCH  27  28
HETATM   28  O1  UNL     1      28.855  -1.508  53.905  1.00  0.00    -0.394 OA
HETATM   29  C1  UNL     1      29.940  -0.746  53.526  1.00  0.00     0.201 C 
ENDBRANCH  27  28
ENDBRANCH  26  27
ENDBRANCH  25  26
ENDBRANCH   1  25
TORSDOF 11
ENDMDL
MODEL 6
REMARK VINA RESULT:      -6.8      2.592      5.652
REMARK  11 active torsions:
REMARK  status: ('A' for Active; 'I' for Inactive)
REMARK    1  A    between atoms: O1_2  and  C2_3 
REMARK    2  A    between atoms: C2_3  and  C3_4 
REMARK    3  A    between atoms: C3_4  and  O2_5 
REMARK    4  A    between atoms: O2_5  and  C4_6 
REMARK    5  A    between atoms: C8_12  and  C9_13 
REMARK    6  A    between atoms: C13_17  and  C14_18 
REMARK    7  A    between atoms: C14_18  and  N3_19 
REMARK    8  A    between atoms: C17_22  and  O3_23 
REMARK    9  A    between atoms: O3_23  and  C18_24 
REMARK   10  A    between atoms: C18_24  and  C19_25 
REMARK   11  A    between atoms: C19_25  and  O4_26 
ROOT
HETATM    1  C4  UNL     1      25.208  -0.046  53.317  1.00  0.00     0.104 A 
HETATM    2  C5  UNL     1      24.089  -0.485  54.034  1.00  0.00     0.072 A 
HETATM    3  C6  UNL     1      22.788  -0.100  53.689  1.00  0.00     0.073 A 
HETATM    4  N1  UNL     1      21.702  -0.489  54.337  1.00  0.00    -0.241 NA
HETATM    5  C7  UNL     1      20.497  -0.031  53.884  1.00  0.00     0.234 A 
HETATM    6  N2  UNL     1      20.386   0.799  52.805  1.00  0.00    -0.245 NA
HETATM    7  C8  UNL     1      21.505   1.206  52.131  1.00  0.00     0.060 A 
HETATM    8  C15 UNL     1      22.713   0.738  52.595  1.00  0.00     0.021 A 
HETATM    9  C16 UNL     1      23.780   1.185  51.873  1.00  0.00     0.055 A 
HETATM   10  C17 UNL     1      25.057   0.805  52.216  1.00  0.00     0.103 A 
ENDROOT
BRANCH   7  11
HETATM   11  C9  UNL     1      21.159   2.082  51.016  1.00  0.00     0.092 A 
HETATM   12  C10 UNL     1      19.860   1.729  50.380  1.00  0.00    -0.011 A 
HETATM   13  C11 UNL     1      19.003   2.717  50.589  1.00  0.00    -0.003 A 
HETATM   14  C12 UNL     1      19.605   3.791  51.353  1.00  0.00     0.005 A 
HETATM   15  C13 UNL     1      20.857   3.435  51.608  1.00  0.00    -0.039 A 
BRANCH  15  16
HETATM   16  C14 UNL     1      21.891   4.200  52.364  1.00  0.00     0.302 C 
BRANCH  16  17
HETATM   17  N3  UNL     1      22.800   4.843  51.429  1.00  0.00     0.082 N 
HETATM   18  H16 UNL     1      23.711   4.343  51.354  1.00  0.00     0.313 HD
HETATM   19  H17 UNL     1      22.350   5.009  50.520  1.00  0.00     0.313 HD
ENDBRANCH  16  17
ENDBRANCH  15  16
ENDBRANCH   7  11
BRANCH  10  20
HETATM   20  O3  UNL     1      26.198   1.174  51.587  1.00  0.00    -0.346 OA
BRANCH  20  21
HETATM   21  C18 UNL     1      26.759   2.470  51.559  1.00  0.00     0.201 C 
BRANCH  21  22
HETATM   22  C19 UNL     1      26.391   3.051  50.214  1.00  0.00     0.193 C 
BRANCH  22  23
HETATM   23  O4  UNL     1      25.564   4.133  50.242  1.00  0.00    -0.394 OA
HETATM   24  C20 UNL     1      25.962   5.178  49.427  1.00  0.00     0.201 C 
ENDBRANCH  22  23
ENDBRANCH  21  22
ENDBRANCH  20  21
ENDBRANCH  10  20
BRANCH   1  25
HETATM   25  O2  UNL     1      26.487  -0.471  53.717  1.00  0.00    -0.346 OA
BRANCH  25  26
HETATM   26  C3  UNL     1      27.011   0.156  54.873  1.00  0.00     0.201 C 
BRANCH  26  27
HETATM   27  C2  UNL     1      28.502   0.122  54.816  1.00  0.00     0.193 C 
BRANCH  27  28
HETATM   28  O1  UNL     1      29.044   1.342  55.142  1.00  0.00    -0.394 OA
HETATM   29  C1  UNL     1      29.233   2.196  54.077  1.00  0.00     0.201 C 
ENDBRANCH  27  28
ENDBRANCH  26  27
ENDBRANCH  25  26
ENDBRANCH   1  25
TORSDOF 11
ENDMDL
MODEL 7
REMARK VINA RESULT:      -6.7      3.429      5.857
REMARK  11 active torsions:
REMARK  status: ('A' for Active; 'I' for Inactive)
REMARK    1  A    between atoms: O1_2  and  C2_3 
REMARK    2  A    between atoms: C2_3  and  C3_4 
REMARK    3  A    between atoms: C3_4  and  O2_5 
REMARK    4  A    between atoms: O2_5  and  C4_6 
REMARK    5  A    between atoms: C8_12  and  C9_13 
REMARK    6  A    between atoms: C13_17  and  C14_18 
REMARK    7  A    between atoms: C14_18  and  N3_19 
REMARK    8  A    between atoms: C17_22  and  O3_23 
REMARK    9  A    between atoms: O3_23  and  C18_24 
REMARK   10  A    between atoms: C18_24  and  C19_25 
REMARK   11  A    between atoms: C19_25  and  O4_26 
ROOT
HETATM    1  C4  UNL     1      21.374   3.281  52.124  1.00  0.00     0.104 A 
HETATM    2  C5  UNL     1      21.200   1.906  52.318  1.00  0.00     0.072 A 
HETATM    3  C6  UNL     1      22.244   1.078  52.748  1.00  0.00     0.073 A 
HETATM    4  N1  UNL     1      22.127  -0.225  52.944  1.00  0.00    -0.241 NA
HETATM    5  C7  UNL     1      23.235  -0.904  53.364  1.00  0.00     0.234 A 
HETATM    6  N2  UNL     1      24.435  -0.288  53.583  1.00  0.00    -0.245 NA
HETATM    7  C8  UNL     1      24.563   1.059  53.382  1.00  0.00     0.060 A 
HETATM    8  C15 UNL     1      23.440   1.733  52.958  1.00  0.00     0.021 A 
HETATM    9  C16 UNL     1      23.647   3.069  52.780  1.00  0.00     0.055 A 
HETATM   10  C17 UNL     1      22.618   3.879  52.358  1.00  0.00     0.103 A 
ENDROOT
BRANCH   7  11
HETATM   11  C9  UNL     1      25.921   1.508  53.675  1.00  0.00     0.092 A 
HETATM   12  C10 UNL     1      26.588   0.694  54.727  1.00  0.00    -0.011 A 
HETATM   13  C11 UNL     1      27.605   0.045  54.180  1.00  0.00    -0.003 A 
HETATM   14  C12 UNL     1      27.726   0.340  52.766  1.00  0.00     0.005 A 
HETATM   15  C13 UNL     1      26.753   1.188  52.459  1.00  0.00    -0.039 A 
BRANCH  15  16
HETATM   16  C14 UNL     1      26.451   1.791  51.129  1.00  0.00     0.302 C 
BRANCH  16  17
HETATM   17  N3  UNL     1      26.781   3.207  51.152  1.00  0.00     0.082 N 
HETATM   18  H16 UNL     1      27.449   3.472  50.398  1.00  0.00     0.313 HD
HETATM   19  H17 UNL     1      25.935   3.791  51.172  1.00  0.00     0.313 HD
ENDBRANCH  16  17
ENDBRANCH  15  16
ENDBRANCH   7  11
BRANCH  10  20
HETATM   20  O3  UNL     1      22.687   5.214  52.142  1.00  0.00    -0.346 OA
BRANCH  20  21
HETATM   21  C18 UNL     1      23.793   5.925  51.625  1.00  0.00     0.201 C 
BRANCH  21  22
HETATM   22  C19 UNL     1      23.744   5.732  50.127  1.00  0.00     0.193 C 
BRANCH  22  23
HETATM   23  O4  UNL     1      24.493   4.704  49.638  1.00  0.00    -0.394 OA
HETATM   24  C20 UNL     1      23.761   3.714  49.008  1.00  0.00     0.201 C 
ENDBRANCH  22  23
ENDBRANCH  21  22
ENDBRANCH  20  21
ENDBRANCH  10  20
BRANCH   1  25
HETATM   25  O2  UNL     1      20.283   4.055  51.692  1.00  0.00    -0.346 OA
BRANCH  25  26
HETATM   26  C3  UNL     1      19.719   3.684  50.447  1.00  0.00     0.201 C 
BRANCH  26  27
HETATM   27  C2  UNL     1      18.258   3.436  50.624  1.00  0.00     0.193 C 
BRANCH  27  28
HETATM   28  O1  UNL     1      17.816   3.895  51.842  1.00  0.00    -0.394 OA
HETATM   29  C1  UNL     1      16.465   4.160  51.905  1.00  0.00     0.201 C 
ENDBRANCH  27  28
ENDBRANCH  26  27
ENDBRANCH  25  26
ENDBRANCH   1  25
TORSDOF 11
ENDMDL
MODEL 8
REMARK VINA RESULT:      -6.7      2.758      6.305
REMARK  11 active torsions:
REMARK  status: ('A' for Active; 'I' for Inactive)
REMARK    1  A    between atoms: O1_2  and  C2_3 
REMARK    2  A    between atoms: C2_3  and  C3_4 
REMARK    3  A    between atoms: C3_4  and  O2_5 
REMARK    4  A    between atoms: O2_5  and  C4_6 
REMARK    5  A    between atoms: C8_12  and  C9_13 
REMARK    6  A    between atoms: C13_17  and  C14_18 
REMARK    7  A    between atoms: C14_18  and  N3_19 
REMARK    8  A    between atoms: C17_22  and  O3_23 
REMARK    9  A    between atoms: O3_23  and  C18_24 
REMARK   10  A    between atoms: C18_24  and  C19_25 
REMARK   11  A    between atoms: C19_25  and  O4_26 
ROOT
HETATM    1  C4  UNL     1      25.010   0.558  53.015  1.00  0.00     0.104 A 
HETATM    2  C5  UNL     1      24.180  -0.238  53.812  1.00  0.00     0.072 A 
HETATM    3  C6  UNL     1      22.804  -0.341  53.581  1.00  0.00     0.073 A 
HETATM    4  N1  UNL     1      21.981  -1.080  54.308  1.00  0.00    -0.241 NA
HETATM    5  C7  UNL     1      20.660  -1.082  53.964  1.00  0.00     0.234 A 
HETATM    6  N2  UNL     1      20.174  -0.358  52.911  1.00  0.00    -0.245 NA
HETATM    7  C8  UNL     1      21.018   0.409  52.156  1.00  0.00     0.060 A 
HETATM    8  C15 UNL     1      22.348   0.403  52.512  1.00  0.00     0.021 A 
HETATM    9  C16 UNL     1      23.125   1.189  51.713  1.00  0.00     0.055 A 
HETATM   10  C17 UNL     1      24.478   1.287  51.944  1.00  0.00     0.103 A 
ENDROOT
BRANCH   7  11
HETATM   11  C9  UNL     1      20.295   1.093  51.089  1.00  0.00     0.092 A 
HETATM   12  C10 UNL     1      19.093   0.346  50.629  1.00  0.00    -0.011 A 
HETATM   13  C11 UNL     1      18.013   1.048  50.940  1.00  0.00    -0.003 A 
HETATM   14  C12 UNL     1      18.358   2.285  51.611  1.00  0.00     0.005 A 
HETATM   15  C13 UNL     1      19.680   2.324  51.704  1.00  0.00    -0.039 A 
BRANCH  15  16
HETATM   16  C14 UNL     1      20.524   3.392  52.314  1.00  0.00     0.302 C 
BRANCH  16  17
HETATM   17  N3  UNL     1      20.870   4.375  51.300  1.00  0.00     0.082 N 
HETATM   18  H16 UNL     1      21.604   5.040  51.624  1.00  0.00     0.313 HD
HETATM   19  H17 UNL     1      21.092   3.928  50.402  1.00  0.00     0.313 HD
ENDBRANCH  16  17
ENDBRANCH  15  16
ENDBRANCH   7  11
BRANCH  10  20
HETATM   20  O3  UNL     1      25.360   2.028  51.231  1.00  0.00    -0.346 OA
BRANCH  20  21
HETATM   21  C18 UNL     1      25.262   3.408  50.950  1.00  0.00     0.201 C 
BRANCH  21  22
HETATM   22  C19 UNL     1      24.703   3.506  49.549  1.00  0.00     0.193 C 
BRANCH  22  23
HETATM   23  O4  UNL     1      23.377   3.805  49.461  1.00  0.00    -0.394 OA
HETATM   24  C20 UNL     1      22.732   3.225  48.383  1.00  0.00     0.201 C 
ENDBRANCH  22  23
ENDBRANCH  21  22
ENDBRANCH  20  21
ENDBRANCH  10  20
BRANCH   1  25
HETATM   25  O2  UNL     1      26.385   0.616  53.301  1.00  0.00    -0.346 OA
BRANCH  25  26
HETATM   26  C3  UNL     1      26.751   0.294  54.630  1.00  0.00     0.201 C 
BRANCH  26  27
HETATM   27  C2  UNL     1      28.230   0.105  54.699  1.00  0.00     0.193 C 
BRANCH  27  28
HETATM   28  O1  UNL     1      28.624  -1.019  54.015  1.00  0.00    -0.394 OA
HETATM   29  C1  UNL     1      29.967  -1.070  53.708  1.00  0.00     0.201 C 
ENDBRANCH  27  28
ENDBRANCH  26  27
ENDBRANCH  25  26
ENDBRANCH   1  25
TORSDOF 11
ENDMDL
MODEL 9
REMARK VINA RESULT:      -6.5      3.743      6.911
REMARK  11 active torsions:
REMARK  status: ('A' for Active; 'I' for Inactive)
REMARK    1  A    between atoms: O1_2  and  C2_3 
REMARK    2  A    between atoms: C2_3  and  C3_4 
REMARK    3  A    between atoms: C3_4  and  O2_5 
REMARK    4  A    between atoms: O2_5  and  C4_6 
REMARK    5  A    between atoms: C8_12  and  C9_13 
REMARK    6  A    between atoms: C13_17  and  C14_18 
REMARK    7  A    between atoms: C14_18  and  N3_19 
REMARK    8  A    between atoms: C17_22  and  O3_23 
REMARK    9  A    between atoms: O3_23  and  C18_24 
REMARK   10  A    between atoms: C18_24  and  C19_25 
REMARK   11  A    between atoms: C19_25  and  O4_26 
ROOT
HETATM    1  C4  UNL     1      23.381   2.744  50.733  1.00  0.00     0.104 A 
HETATM    2  C5  UNL     1      22.931   1.871  51.729  1.00  0.00     0.072 A 
HETATM    3  C6  UNL     1      23.810   1.066  52.463  1.00  0.00     0.073 A 
HETATM    4  N1  UNL     1      23.432   0.226  53.413  1.00  0.00    -0.241 NA
HETATM    5  C7  UNL     1      24.404  -0.496  54.044  1.00  0.00     0.234 A 
HETATM    6  N2  UNL     1      25.728  -0.378  53.728  1.00  0.00    -0.245 NA
HETATM    7  C8  UNL     1      26.127   0.488  52.747  1.00  0.00     0.060 A 
HETATM    8  C15 UNL     1      25.139   1.211  52.118  1.00  0.00     0.021 A 
HETATM    9  C16 UNL     1      25.613   2.051  51.154  1.00  0.00     0.055 A 
HETATM   10  C17 UNL     1      24.746   2.840  50.435  1.00  0.00     0.103 A 
ENDROOT
BRANCH   7  11
HETATM   11  C9  UNL     1      27.576   0.458  52.575  1.00  0.00     0.092 A 
HETATM   12  C10 UNL     1      28.282   1.460  53.419  1.00  0.00    -0.011 A 
HETATM   13  C11 UNL     1      29.017   0.818  54.315  1.00  0.00    -0.003 A 
HETATM   14  C12 UNL     1      28.889  -0.619  54.176  1.00  0.00     0.005 A 
HETATM   15  C13 UNL     1      28.055  -0.842  53.169  1.00  0.00    -0.039 A 
BRANCH  15  16
HETATM   16  C14 UNL     1      27.598  -2.157  52.633  1.00  0.00     0.302 C 
BRANCH  16  17
HETATM   17  N3  UNL     1      28.469  -3.211  53.127  1.00  0.00     0.082 N 
HETATM   18  H16 UNL     1      29.468  -2.914  53.170  1.00  0.00     0.313 HD
HETATM   19  H17 UNL     1      28.122  -3.604  54.011  1.00  0.00     0.313 HD
ENDBRANCH  16  17
ENDBRANCH  15  16
ENDBRANCH   7  11
BRANCH  10  20
HETATM   20  O3  UNL     1      25.082   3.713  49.456  1.00  0.00    -0.346 OA
BRANCH  20  21
HETATM   21  C18 UNL     1      26.324   4.370  49.307  1.00  0.00     0.201 C 
BRANCH  21  22
HETATM   22  C19 UNL     1      26.013   5.848  49.313  1.00  0.00     0.193 C 
BRANCH  22  23
HETATM   23  O4  UNL     1      26.800   6.622  48.515  1.00  0.00    -0.394 OA
HETATM   24  C20 UNL     1      28.071   6.116  48.304  1.00  0.00     0.201 C 
ENDBRANCH  22  23
ENDBRANCH  21  22
ENDBRANCH  20  21
ENDBRANCH  10  20
BRANCH   1  25
HETATM   25  O2  UNL     1      22.444   3.526  50.034  1.00  0.00    -0.346 OA
BRANCH  25  26
HETATM   26  C3  UNL     1      21.853   2.913  48.902  1.00  0.00     0.201 C 
BRANCH  26  27
HETATM   27  C2  UNL     1      21.456   3.969  47.925  1.00  0.00     0.193 C 
BRANCH  27  28
HETATM   28  O1  UNL     1      22.341   4.040  46.876  1.00  0.00    -0.394 OA
HETATM   29  C1  UNL     1      21.791   3.794  45.636  1.00  0.00     0.201 C 
ENDBRANCH  27  28
ENDBRANCH  26  27
ENDBRANCH  25  26
ENDBRANCH   1  25
TORSDOF 11
ENDMDL
