MODEL 1
REMARK VINA RESULT:      -7.9      0.000      0.000
REMARK  4 active torsions:
REMARK  status: ('A' for Active; 'I' for Inactive)
REMARK    1  A    between atoms: N1_2  and  C2_3 
REMARK    2  A    between atoms: N1_2  and  C12_15 
REMARK    3  A    between atoms: C6_7  and  N2_8 
REMARK    4  A    between atoms: N2_8  and  C7_9 
ROOT
HETATM    1  C2  UNL     1      22.895   2.294  51.867  1.00  0.00     0.032 A 
HETATM    2  C3  UNL     1      23.311   2.657  50.609  1.00  0.00     0.029 A 
HETATM    3  C4  UNL     1      24.570   2.973  50.213  1.00  0.00     0.004 A 
HETATM    4  C5  UNL     1      25.592   2.942  51.138  1.00  0.00     0.029 A 
HETATM    5  C6  UNL     1      25.249   2.581  52.437  1.00  0.00     0.030 A 
HETATM    6  C11 UNL     1      23.945   2.275  52.763  1.00  0.00     0.058 A 
ENDROOT
BRANCH   1   7
HETATM    7  N1  UNL     1      21.592   2.026  52.307  1.00  0.00    -0.372 N 
HETATM    8  C1  UNL     1      20.597   3.103  52.343  1.00  0.00     0.151 C 
BRANCH   7   9
HETATM    9  C12 UNL     1      21.005   0.784  52.752  1.00  0.00     0.050 A 
HETATM   10  C13 UNL     1      19.865   0.381  51.803  1.00  0.00     0.043 C 
HETATM   11  C14 UNL     1      21.971  -0.374  52.583  1.00  0.00     0.004 A 
HETATM   12  C15 UNL     1      22.565  -1.377  53.207  1.00  0.00    -0.002 A 
HETATM   13  C16 UNL     1      22.144  -1.402  54.627  1.00  0.00    -0.004 A 
HETATM   14  C17 UNL     1      21.307  -0.408  54.845  1.00  0.00    -0.024 A 
HETATM   15  C18 UNL     1      20.632   0.728  54.198  1.00  0.00     0.062 A 
ENDBRANCH   7   9
ENDBRANCH   1   7
BRANCH   5  16
HETATM   16  N2  UNL     1      26.330   2.561  53.361  1.00  0.00    -0.377 N 
HETATM   17  H7  UNL     1      26.263   3.097  54.268  1.00  0.00     0.160 HD
BRANCH  16  18
HETATM   18  C7  UNL     1      27.534   1.809  53.074  1.00  0.00     0.147 A 
HETATM   19  C8  UNL     1      27.509   0.508  53.825  1.00  0.00     0.022 A 
HETATM   20  C9  UNL     1      28.502   0.460  54.721  1.00  0.00     0.114 A 
HETATM   21  N3  UNL     1      29.220   1.689  54.621  1.00  0.00    -0.275 NA
HETATM   22  C10 UNL     1      28.715   2.455  53.724  1.00  0.00     0.118 A 
ENDBRANCH  16  18
ENDBRANCH   5  16
TORSDOF 4
ENDMDL
MODEL 2
REMARK VINA RESULT:      -7.7      2.285      6.932
REMARK  4 active torsions:
REMARK  status: ('A' for Active; 'I' for Inactive)
REMARK    1  A    between atoms: N1_2  and  C2_3 
REMARK    2  A    between atoms: N1_2  and  C12_15 
REMARK    3  A    between atoms: C6_7  and  N2_8 
REMARK    4  A    between atoms: N2_8  and  C7_9 
ROOT
HETATM    1  C2  UNL     1      24.555  -0.495  54.085  1.00  0.00     0.032 A 
HETATM    2  C3  UNL     1      24.032  -1.171  55.160  1.00  0.00     0.029 A 
HETATM    3  C4  UNL     1      22.738  -1.522  55.367  1.00  0.00     0.004 A 
HETATM    4  C5  UNL     1      21.792  -1.188  54.420  1.00  0.00     0.029 A 
HETATM    5  C6  UNL     1      22.246  -0.501  53.299  1.00  0.00     0.030 A 
HETATM    6  C11 UNL     1      23.579  -0.179  53.161  1.00  0.00     0.058 A 
ENDROOT
BRANCH   1   7
HETATM    7  N1  UNL     1      25.875  -0.070  53.883  1.00  0.00    -0.372 N 
HETATM    8  C1  UNL     1      26.450   0.963  54.752  1.00  0.00     0.151 C 
BRANCH   7   9
HETATM    9  C12 UNL     1      26.848  -0.507  52.911  1.00  0.00     0.050 A 
HETATM   10  C13 UNL     1      26.822   0.433  51.694  1.00  0.00     0.043 C 
HETATM   11  C14 UNL     1      28.263  -0.311  53.421  1.00  0.00     0.004 A 
HETATM   12  C15 UNL     1      29.419  -0.915  53.641  1.00  0.00    -0.002 A 
HETATM   13  C16 UNL     1      29.321  -2.340  53.248  1.00  0.00    -0.004 A 
HETATM   14  C17 UNL     1      28.105  -2.581  52.803  1.00  0.00    -0.024 A 
HETATM   15  C18 UNL     1      26.796  -1.956  52.552  1.00  0.00     0.062 A 
ENDBRANCH   7   9
ENDBRANCH   1   7
BRANCH   5  16
HETATM   16  N2  UNL     1      21.241  -0.175  52.346  1.00  0.00    -0.377 N 
HETATM   17  H7  UNL     1      21.370  -0.430  51.331  1.00  0.00     0.160 HD
BRANCH  16  18
HETATM   18  C7  UNL     1      20.031   0.508  52.753  1.00  0.00     0.147 A 
HETATM   19  C8  UNL     1      19.130   0.692  51.565  1.00  0.00     0.022 A 
HETATM   20  C9  UNL     1      18.968   1.992  51.292  1.00  0.00     0.114 A 
HETATM   21  N3  UNL     1      19.729   2.724  52.252  1.00  0.00    -0.275 NA
HETATM   22  C10 UNL     1      20.326   1.938  53.072  1.00  0.00     0.118 A 
ENDBRANCH  16  18
ENDBRANCH   5  16
TORSDOF 4
ENDMDL
MODEL 3
REMARK VINA RESULT:      -7.5      2.066      5.017
REMARK  4 active torsions:
REMARK  status: ('A' for Active; 'I' for Inactive)
REMARK    1  A    between atoms: N1_2  and  C2_3 
REMARK    2  A    between atoms: N1_2  and  C12_15 
REMARK    3  A    between atoms: C6_7  and  N2_8 
REMARK    4  A    between atoms: N2_8  and  C7_9 
ROOT
HETATM    1  C2  UNL     1      23.901   2.398  51.955  1.00  0.00     0.032 A 
HETATM    2  C3  UNL     1      22.809   1.576  52.089  1.00  0.00     0.029 A 
HETATM    3  C4  UNL     1      22.714   0.438  52.822  1.00  0.00     0.004 A 
HETATM    4  C5  UNL     1      23.812   0.008  53.537  1.00  0.00     0.029 A 
HETATM    5  C6  UNL     1      24.959   0.790  53.452  1.00  0.00     0.030 A 
HETATM    6  C11 UNL     1      24.977   1.934  52.684  1.00  0.00     0.058 A 
ENDROOT
BRANCH   1   7
HETATM    7  N1  UNL     1      24.036   3.541  51.155  1.00  0.00    -0.372 N 
HETATM    8  C1  UNL     1      23.590   4.843  51.661  1.00  0.00     0.151 C 
BRANCH   7   9
HETATM    9  C12 UNL     1      24.588   3.680  49.829  1.00  0.00     0.050 A 
HETATM   10  C13 UNL     1      23.603   3.110  48.795  1.00  0.00     0.043 C 
HETATM   11  C14 UNL     1      24.662   5.137  49.412  1.00  0.00     0.004 A 
HETATM   12  C15 UNL     1      25.465   6.086  48.962  1.00  0.00    -0.002 A 
HETATM   13  C16 UNL     1      26.833   5.543  48.788  1.00  0.00    -0.004 A 
HETATM   14  C17 UNL     1      26.840   4.274  49.145  1.00  0.00    -0.024 A 
HETATM   15  C18 UNL     1      25.989   3.189  49.658  1.00  0.00     0.062 A 
ENDBRANCH   7   9
ENDBRANCH   1   7
BRANCH   5  16
HETATM   16  N2  UNL     1      26.069   0.313  54.204  1.00  0.00    -0.377 N 
HETATM   17  H7  UNL     1      25.913  -0.188  55.120  1.00  0.00     0.160 HD
BRANCH  16  18
HETATM   18  C7  UNL     1      27.422   0.506  53.727  1.00  0.00     0.147 A 
HETATM   19  C8  UNL     1      27.807  -0.631  52.824  1.00  0.00     0.022 A 
HETATM   20  C9  UNL     1      28.814  -1.336  53.355  1.00  0.00     0.114 A 
HETATM   21  N3  UNL     1      29.144  -0.727  54.602  1.00  0.00    -0.275 NA
HETATM   22  C10 UNL     1      28.398   0.290  54.838  1.00  0.00     0.118 A 
ENDBRANCH  16  18
ENDBRANCH   5  16
TORSDOF 4
ENDMDL
MODEL 4
REMARK VINA RESULT:      -7.4      2.053      4.077
REMARK  4 active torsions:
REMARK  status: ('A' for Active; 'I' for Inactive)
REMARK    1  A    between atoms: N1_2  and  C2_3 
REMARK    2  A    between atoms: N1_2  and  C12_15 
REMARK    3  A    between atoms: C6_7  and  N2_8 
REMARK    4  A    between atoms: N2_8  and  C7_9 
ROOT
HETATM    1  C2  UNL     1      21.771   1.400  52.723  1.00  0.00     0.032 A 
HETATM    2  C3  UNL     1      20.987   0.706  53.610  1.00  0.00     0.029 A 
HETATM    3  C4  UNL     1      21.348  -0.350  54.384  1.00  0.00     0.004 A 
HETATM    4  C5  UNL     1      22.641  -0.822  54.313  1.00  0.00     0.029 A 
HETATM    5  C6  UNL     1      23.498  -0.168  53.434  1.00  0.00     0.030 A 
HETATM    6  C11 UNL     1      23.056   0.898  52.680  1.00  0.00     0.058 A 
ENDROOT
BRANCH   1   7
HETATM    7  N1  UNL     1      21.400   2.450  51.871  1.00  0.00    -0.372 N 
HETATM    8  C1  UNL     1      21.538   3.839  52.323  1.00  0.00     0.151 C 
BRANCH   7   9
HETATM    9  C12 UNL     1      20.881   2.408  50.525  1.00  0.00     0.050 A 
HETATM   10  C13 UNL     1      19.532   3.143  50.468  1.00  0.00     0.043 C 
HETATM   11  C14 UNL     1      21.727   3.243  49.582  1.00  0.00     0.004 A 
HETATM   12  C15 UNL     1      22.407   3.226  48.449  1.00  0.00    -0.002 A 
HETATM   13  C16 UNL     1      22.334   1.876  47.843  1.00  0.00    -0.004 A 
HETATM   14  C17 UNL     1      21.617   1.093  48.623  1.00  0.00    -0.024 A 
HETATM   15  C18 UNL     1      20.859   1.059  49.884  1.00  0.00     0.062 A 
ENDBRANCH   7   9
ENDBRANCH   1   7
BRANCH   5  16
HETATM   16  N2  UNL     1      24.823  -0.685  53.390  1.00  0.00    -0.377 N 
HETATM   17  H7  UNL     1      24.985  -1.726  53.330  1.00  0.00     0.160 HD
BRANCH  16  18
HETATM   18  C7  UNL     1      25.965   0.204  53.426  1.00  0.00     0.147 A 
HETATM   19  C8  UNL     1      27.088  -0.381  52.617  1.00  0.00     0.022 A 
HETATM   20  C9  UNL     1      28.136  -0.664  53.400  1.00  0.00     0.114 A 
HETATM   21  N3  UNL     1      27.781  -0.295  54.732  1.00  0.00    -0.275 NA
HETATM   22  C10 UNL     1      26.592   0.187  54.782  1.00  0.00     0.118 A 
ENDBRANCH  16  18
ENDBRANCH   5  16
TORSDOF 4
ENDMDL
MODEL 5
REMARK VINA RESULT:      -7.3      1.781      4.440
REMARK  4 active torsions:
REMARK  status: ('A' for Active; 'I' for Inactive)
REMARK    1  A    between atoms: N1_2  and  C2_3 
REMARK    2  A    between atoms: N1_2  and  C12_15 
REMARK    3  A    between atoms: C6_7  and  N2_8 
REMARK    4  A    between atoms: N2_8  and  C7_9 
ROOT
HETATM    1  C2  UNL     1      23.571   0.688  52.676  1.00  0.00     0.032 A 
HETATM    2  C3  UNL     1      22.718   0.057  53.548  1.00  0.00     0.029 A 
HETATM    3  C4  UNL     1      23.039  -0.824  54.530  1.00  0.00     0.004 A 
HETATM    4  C5  UNL     1      24.362  -1.162  54.720  1.00  0.00     0.029 A 
HETATM    5  C6  UNL     1      25.289  -0.562  53.874  1.00  0.00     0.030 A 
HETATM    6  C11 UNL     1      24.884   0.324  52.898  1.00  0.00     0.058 A 
ENDROOT
BRANCH   1   7
HETATM    7  N1  UNL     1      23.252   1.550  51.619  1.00  0.00    -0.372 N 
HETATM    8  C1  UNL     1      22.165   1.205  50.697  1.00  0.00     0.151 C 
BRANCH   7   9
HETATM    9  C12 UNL     1      23.835   2.819  51.254  1.00  0.00     0.050 A 
HETATM   10  C13 UNL     1      23.382   3.902  52.247  1.00  0.00     0.043 C 
HETATM   11  C14 UNL     1      25.338   2.816  51.466  1.00  0.00     0.004 A 
HETATM   12  C15 UNL     1      26.505   3.038  50.885  1.00  0.00    -0.002 A 
HETATM   13  C16 UNL     1      26.293   3.448  49.477  1.00  0.00    -0.004 A 
HETATM   14  C17 UNL     1      25.000   3.461  49.223  1.00  0.00    -0.024 A 
HETATM   15  C18 UNL     1      23.679   3.214  49.822  1.00  0.00     0.062 A 
ENDBRANCH   7   9
ENDBRANCH   1   7
BRANCH   5  16
HETATM   16  N2  UNL     1      26.643  -0.936  54.102  1.00  0.00    -0.377 N 
HETATM   17  H7  UNL     1      26.898  -1.514  54.947  1.00  0.00     0.160 HD
BRANCH  16  18
HETATM   18  C7  UNL     1      27.687  -0.532  53.183  1.00  0.00     0.147 A 
HETATM   19  C8  UNL     1      28.835  -1.498  53.267  1.00  0.00     0.022 A 
HETATM   20  C9  UNL     1      29.934  -0.885  53.724  1.00  0.00     0.114 A 
HETATM   21  N3  UNL     1      29.589   0.478  53.965  1.00  0.00    -0.275 NA
HETATM   22  C10 UNL     1      28.359   0.707  53.677  1.00  0.00     0.118 A 
ENDBRANCH  16  18
ENDBRANCH   5  16
TORSDOF 4
ENDMDL
MODEL 6
REMARK VINA RESULT:      -7.3      1.733      4.081
REMARK  4 active torsions:
REMARK  status: ('A' for Active; 'I' for Inactive)
REMARK    1  A    between atoms: N1_2  and  C2_3 
REMARK    2  A    between atoms: N1_2  and  C12_15 
REMARK    3  A    between atoms: C6_7  and  N2_8 
REMARK    4  A    between atoms: N2_8  and  C7_9 
ROOT
HETATM    1  C2  UNL     1      22.643   0.138  53.014  1.00  0.00     0.032 A 
HETATM    2  C3  UNL     1      21.862  -0.454  53.975  1.00  0.00     0.029 A 
HETATM    3  C4  UNL     1      22.275  -1.148  55.066  1.00  0.00     0.004 A 
HETATM    4  C5  UNL     1      23.628  -1.308  55.286  1.00  0.00     0.029 A 
HETATM    5  C6  UNL     1      24.485  -0.734  54.353  1.00  0.00     0.030 A 
HETATM    6  C11 UNL     1      23.987  -0.043  53.269  1.00  0.00     0.058 A 
ENDROOT
BRANCH   1   7
HETATM    7  N1  UNL     1      22.234   0.804  51.850  1.00  0.00    -0.372 N 
HETATM    8  C1  UNL     1      21.156   0.244  51.029  1.00  0.00     0.151 C 
BRANCH   7   9
HETATM    9  C12 UNL     1      22.709   2.042  51.279  1.00  0.00     0.050 A 
HETATM   10  C13 UNL     1      22.516   2.015  49.754  1.00  0.00     0.043 C 
HETATM   11  C14 UNL     1      21.827   3.209  51.680  1.00  0.00     0.004 A 
HETATM   12  C15 UNL     1      21.821   4.412  52.228  1.00  0.00    -0.002 A 
HETATM   13  C16 UNL     1      23.200   4.795  52.610  1.00  0.00    -0.004 A 
HETATM   14  C17 UNL     1      24.021   3.813  52.295  1.00  0.00    -0.024 A 
HETATM   15  C18 UNL     1      24.077   2.466  51.704  1.00  0.00     0.062 A 
ENDBRANCH   7   9
ENDBRANCH   1   7
BRANCH   5  16
HETATM   16  N2  UNL     1      25.871  -0.921  54.615  1.00  0.00    -0.377 N 
HETATM   17  H7  UNL     1      26.185  -1.632  55.329  1.00  0.00     0.160 HD
BRANCH  16  18
HETATM   18  C7  UNL     1      26.868  -0.142  53.911  1.00  0.00     0.147 A 
HETATM   19  C8  UNL     1      27.648  -1.036  52.989  1.00  0.00     0.022 A 
HETATM   20  C9  UNL     1      28.933  -1.093  53.361  1.00  0.00     0.114 A 
HETATM   21  N3  UNL     1      29.075  -0.267  54.517  1.00  0.00    -0.275 NA
HETATM   22  C10 UNL     1      27.957   0.272  54.846  1.00  0.00     0.118 A 
ENDBRANCH  16  18
ENDBRANCH   5  16
TORSDOF 4
ENDMDL
MODEL 7
REMARK VINA RESULT:      -7.2      1.996      6.366
REMARK  4 active torsions:
REMARK  status: ('A' for Active; 'I' for Inactive)
REMARK    1  A    between atoms: N1_2  and  C2_3 
REMARK    2  A    between atoms: N1_2  and  C12_15 
REMARK    3  A    between atoms: C6_7  and  N2_8 
REMARK    4  A    between atoms: N2_8  and  C7_9 
ROOT
HETATM    1  C2  UNL     1      24.435   0.128  53.411  1.00  0.00     0.032 A 
HETATM    2  C3  UNL     1      23.526  -0.900  53.458  1.00  0.00     0.029 A 
HETATM    3  C4  UNL     1      22.195  -0.841  53.197  1.00  0.00     0.004 A 
HETATM    4  C5  UNL     1      21.635   0.367  52.836  1.00  0.00     0.029 A 
HETATM    5  C6  UNL     1      22.495   1.458  52.767  1.00  0.00     0.030 A 
HETATM    6  C11 UNL     1      23.837   1.318  53.048  1.00  0.00     0.058 A 
ENDROOT
BRANCH   1   7
HETATM    7  N1  UNL     1      25.798   0.099  53.738  1.00  0.00    -0.372 N 
HETATM    8  C1  UNL     1      26.218   0.273  55.132  1.00  0.00     0.151 C 
BRANCH   7   9
HETATM    9  C12 UNL     1      26.946  -0.101  52.887  1.00  0.00     0.050 A 
HETATM   10  C13 UNL     1      26.715   0.591  51.534  1.00  0.00     0.043 C 
HETATM   11  C14 UNL     1      28.158   0.647  53.412  1.00  0.00     0.004 A 
HETATM   12  C15 UNL     1      29.424   0.523  53.772  1.00  0.00    -0.002 A 
HETATM   13  C16 UNL     1      29.853  -0.886  53.613  1.00  0.00    -0.004 A 
HETATM   14  C17 UNL     1      28.838  -1.597  53.166  1.00  0.00    -0.024 A 
HETATM   15  C18 UNL     1      27.424  -1.511  52.767  1.00  0.00     0.062 A 
ENDBRANCH   7   9
ENDBRANCH   1   7
BRANCH   5  16
HETATM   16  N2  UNL     1      21.880   2.686  52.392  1.00  0.00    -0.377 N 
HETATM   17  H7  UNL     1      21.030   3.033  52.911  1.00  0.00     0.160 HD
BRANCH  16  18
HETATM   18  C7  UNL     1      22.408   3.473  51.297  1.00  0.00     0.147 A 
HETATM   19  C8  UNL     1      22.949   4.772  51.824  1.00  0.00     0.022 A 
HETATM   20  C9  UNL     1      22.250   5.806  51.340  1.00  0.00     0.114 A 
HETATM   21  N3  UNL     1      21.235   5.269  50.492  1.00  0.00    -0.275 NA
HETATM   22  C10 UNL     1      21.294   3.988  50.445  1.00  0.00     0.118 A 
ENDBRANCH  16  18
ENDBRANCH   5  16
TORSDOF 4
ENDMDL
MODEL 8
REMARK VINA RESULT:      -7.2      1.937      6.778
REMARK  4 active torsions:
REMARK  status: ('A' for Active; 'I' for Inactive)
REMARK    1  A    between atoms: N1_2  and  C2_3 
REMARK    2  A    between atoms: N1_2  and  C12_15 
REMARK    3  A    between atoms: C6_7  and  N2_8 
REMARK    4  A    between atoms: N2_8  and  C7_9 
ROOT
HETATM    1  C2  UNL     1      24.751   1.236  53.215  1.00  0.00     0.032 A 
HETATM    2  C3  UNL     1      24.661   2.604  53.142  1.00  0.00     0.029 A 
HETATM    3  C4  UNL     1      23.598   3.343  52.731  1.00  0.00     0.004 A 
HETATM    4  C5  UNL     1      22.448   2.697  52.329  1.00  0.00     0.029 A 
HETATM    5  C6  UNL     1      22.463   1.307  52.376  1.00  0.00     0.030 A 
HETATM    6  C11 UNL     1      23.582   0.627  52.805  1.00  0.00     0.058 A 
ENDROOT
BRANCH   1   7
HETATM    7  N1  UNL     1      25.859   0.456  53.576  1.00  0.00    -0.372 N 
HETATM    8  C1  UNL     1      25.929  -0.134  54.917  1.00  0.00     0.151 C 
BRANCH   7   9
HETATM    9  C12 UNL     1      27.023   0.091  52.805  1.00  0.00     0.050 A 
HETATM   10  C13 UNL     1      26.923   0.702  51.398  1.00  0.00     0.043 C 
HETATM   11  C14 UNL     1      28.273   0.762  53.343  1.00  0.00     0.004 A 
HETATM   12  C15 UNL     1      29.503   0.549  53.779  1.00  0.00    -0.002 A 
HETATM   13  C16 UNL     1      29.804  -0.901  53.739  1.00  0.00    -0.004 A 
HETATM   14  C17 UNL     1      28.748  -1.547  53.287  1.00  0.00    -0.024 A 
HETATM   15  C18 UNL     1      27.369  -1.362  52.807  1.00  0.00     0.062 A 
ENDBRANCH   7   9
ENDBRANCH   1   7
BRANCH   5  16
HETATM   16  N2  UNL     1      21.258   0.678  51.954  1.00  0.00    -0.377 N 
HETATM   17  H7  UNL     1      21.254   0.058  51.100  1.00  0.00     0.160 HD
BRANCH  16  18
HETATM   18  C7  UNL     1      20.024   0.877  52.686  1.00  0.00     0.147 A 
HETATM   19  C8  UNL     1      19.513  -0.444  53.184  1.00  0.00     0.022 A 
HETATM   20  C9  UNL     1      18.338  -0.740  52.616  1.00  0.00     0.114 A 
HETATM   21  N3  UNL     1      18.012   0.333  51.734  1.00  0.00    -0.275 NA
HETATM   22  C10 UNL     1      18.919   1.241  51.749  1.00  0.00     0.118 A 
ENDBRANCH  16  18
ENDBRANCH   5  16
TORSDOF 4
ENDMDL
MODEL 9
REMARK VINA RESULT:      -7.1      1.916      3.702
REMARK  4 active torsions:
REMARK  status: ('A' for Active; 'I' for Inactive)
REMARK    1  A    between atoms: N1_2  and  C2_3 
REMARK    2  A    between atoms: N1_2  and  C12_15 
REMARK    3  A    between atoms: C6_7  and  N2_8 
REMARK    4  A    between atoms: N2_8  and  C7_9 
ROOT
HETATM    1  C2  UNL     1      22.304   0.771  53.082  1.00  0.00     0.032 A 
HETATM    2  C3  UNL     1      21.489   0.095  53.957  1.00  0.00     0.029 A 
HETATM    3  C4  UNL     1      21.849  -0.850  54.862  1.00  0.00     0.004 A 
HETATM    4  C5  UNL     1      23.176  -1.213  54.959  1.00  0.00     0.029 A 
HETATM    5  C6  UNL     1      24.065  -0.570  54.104  1.00  0.00     0.030 A 
HETATM    6  C11 UNL     1      23.621   0.380  53.210  1.00  0.00     0.058 A 
ENDROOT
BRANCH   1   7
HETATM    7  N1  UNL     1      21.941   1.703  52.100  1.00  0.00    -0.372 N 
HETATM    8  C1  UNL     1      22.599   3.013  52.059  1.00  0.00     0.151 C 
BRANCH   7   9
HETATM    9  C12 UNL     1      20.975   1.593  51.034  1.00  0.00     0.050 A 
HETATM   10  C13 UNL     1      21.686   1.190  49.731  1.00  0.00     0.043 C 
HETATM   11  C14 UNL     1      20.045   0.414  51.253  1.00  0.00     0.004 A 
HETATM   12  C15 UNL     1      18.777   0.048  51.339  1.00  0.00    -0.002 A 
HETATM   13  C16 UNL     1      17.902   1.229  51.156  1.00  0.00    -0.004 A 
HETATM   14  C17 UNL     1      18.653   2.295  50.970  1.00  0.00    -0.024 A 
HETATM   15  C18 UNL     1      20.048   2.754  50.879  1.00  0.00     0.062 A 
ENDBRANCH   7   9
ENDBRANCH   1   7
BRANCH   5  16
HETATM   16  N2  UNL     1      25.424  -0.972  54.236  1.00  0.00    -0.377 N 
HETATM   17  H7  UNL     1      25.663  -1.888  54.702  1.00  0.00     0.160 HD
BRANCH  16  18
HETATM   18  C7  UNL     1      26.494  -0.136  53.735  1.00  0.00     0.147 A 
HETATM   19  C8  UNL     1      27.379  -0.939  52.824  1.00  0.00     0.022 A 
HETATM   20  C9  UNL     1      28.611  -1.045  53.336  1.00  0.00     0.114 A 
HETATM   21  N3  UNL     1      28.615  -0.342  54.577  1.00  0.00    -0.275 NA
HETATM   22  C10 UNL     1      27.466   0.172  54.827  1.00  0.00     0.118 A 
ENDBRANCH  16  18
ENDBRANCH   5  16
TORSDOF 4
ENDMDL
