MODEL 1
REMARK VINA RESULT:      -7.6      0.000      0.000
REMARK  8 active torsions:
REMARK  status: ('A' for Active; 'I' for Inactive)
REMARK    1  A    between atoms: C1_2  and  C2_3 
REMARK    2  A    between atoms: C2_3  and  N1_4 
REMARK    3  A    between atoms: N1_4  and  C3_5 
REMARK    4  A    between atoms: C6_10  and  N4_11 
REMARK    5  A    between atoms: N4_11  and  C7_12 
REMARK    6  A    between atoms: C10_16  and  O2_17 
REMARK    7  A    between atoms: O2_17  and  C11_18 
REMARK    8  A    between atoms: C11_18  and  C12_19 
ROOT
HETATM    1  C7  UNL     1      23.111   3.418  52.381  1.00  0.00     0.134 A 
HETATM    2  C8  UNL     1      22.860   1.976  52.402  1.00  0.00     0.029 A 
HETATM    3  C9  UNL     1      23.899   1.337  52.965  1.00  0.00     0.065 A 
HETATM    4 CL1  UNL     1      23.772  -0.409  53.075  1.00  0.00    -0.082 Cl
HETATM    5  C10 UNL     1      24.899   2.332  53.347  1.00  0.00     0.089 A 
HETATM    6  C18 UNL     1      24.456   3.533  53.016  1.00  0.00     0.040 A 
ENDROOT
BRANCH   1   7
HETATM    7  N4  UNL     1      23.239   3.988  51.056  1.00  0.00    -0.360 N 
HETATM    8  H7  UNL     1      23.497   3.311  50.331  1.00  0.00     0.162 HD
BRANCH   7   9
HETATM    9  C6  UNL     1      23.015   5.386  50.833  1.00  0.00     0.173 A 
HETATM   10  C3  UNL     1      24.095   6.204  50.596  1.00  0.00     0.077 A 
HETATM   11  C4  UNL     1      23.738   7.522  50.398  1.00  0.00     0.054 A 
HETATM   12  C5  UNL     1      22.441   7.989  50.431  1.00  0.00     0.143 A 
HETATM   13  N2  UNL     1      21.445   7.115  50.670  1.00  0.00    -0.161 NA
HETATM   14  N3  UNL     1      21.751   5.843  50.864  1.00  0.00    -0.130 NA
BRANCH  10  15
HETATM   15  N1  UNL     1      25.430   5.780  50.551  1.00  0.00    -0.380 N 
HETATM   16  H4  UNL     1      26.058   5.838  51.367  1.00  0.00     0.160 HD
BRANCH  15  17
HETATM   17  C2  UNL     1      26.008   5.231  49.340  1.00  0.00     0.189 C 
BRANCH  17  18
HETATM   18  C1  UNL     1      26.665   3.916  49.588  1.00  0.00     0.250 C 
HETATM   19  O1  UNL     1      25.827   3.022  49.764  1.00  0.00    -0.305 OA
ENDBRANCH  17  18
ENDBRANCH  15  17
ENDBRANCH  10  15
ENDBRANCH   7   9
ENDBRANCH   1   7
BRANCH   5  20
HETATM   20  O2  UNL     1      26.027   1.783  53.944  1.00  0.00    -0.345 OA
BRANCH  20  21
HETATM   21  C11 UNL     1      27.342   1.952  53.507  1.00  0.00     0.214 C 
BRANCH  21  22
HETATM   22  C12 UNL     1      27.923   0.568  53.373  1.00  0.00    -0.031 A 
HETATM   23  C13 UNL     1      29.258   0.496  53.751  1.00  0.00     0.009 A 
HETATM   24  C14 UNL     1      29.978  -0.682  53.704  1.00  0.00     0.004 A 
HETATM   25  C15 UNL     1      29.285  -1.809  53.252  1.00  0.00     0.042 A 
HETATM   26  C16 UNL     1      27.976  -1.736  52.882  1.00  0.00     0.117 A 
HETATM   27  F1  UNL     1      27.286  -2.826  52.439  1.00  0.00    -0.206 F 
HETATM   28  C17 UNL     1      27.265  -0.555  52.933  1.00  0.00     0.051 A 
ENDBRANCH  21  22
ENDBRANCH  20  21
ENDBRANCH   5  20
TORSDOF 8
ENDMDL
MODEL 2
REMARK VINA RESULT:      -7.6      3.691      7.321
REMARK  8 active torsions:
REMARK  status: ('A' for Active; 'I' for Inactive)
REMARK    1  A    between atoms: C1_2  and  C2_3 
REMARK    2  A    between atoms: C2_3  and  N1_4 
REMARK    3  A    between atoms: N1_4  and  C3_5 
REMARK    4  A    between atoms: C6_10  and  N4_11 
REMARK    5  A    between atoms: N4_11  and  C7_12 
REMARK    6  A    between atoms: C10_16  and  O2_17 
REMARK    7  A    between atoms: O2_17  and  C11_18 
REMARK    8  A    between atoms: C11_18  and  C12_19 
ROOT
HETATM    1  C7  UNL     1      25.018  -0.149  52.958  1.00  0.00     0.134 A 
HETATM    2  C8  UNL     1      23.700  -0.401  53.546  1.00  0.00     0.029 A 
HETATM    3  C9  UNL     1      22.912   0.674  53.385  1.00  0.00     0.065 A 
HETATM    4 CL1  UNL     1      21.287   0.551  54.032  1.00  0.00    -0.082 Cl
HETATM    5  C10 UNL     1      23.673   1.701  52.676  1.00  0.00     0.089 A 
HETATM    6  C18 UNL     1      24.886   1.238  52.425  1.00  0.00     0.040 A 
ENDROOT
BRANCH   1   7
HETATM    7  N4  UNL     1      26.107  -0.114  53.912  1.00  0.00    -0.360 N 
HETATM    8  H7  UNL     1      25.945   0.505  54.712  1.00  0.00     0.162 HD
BRANCH   7   9
HETATM    9  C6  UNL     1      27.288  -0.898  53.705  1.00  0.00     0.173 A 
HETATM   10  C3  UNL     1      28.479  -0.462  54.238  1.00  0.00     0.077 A 
HETATM   11  C4  UNL     1      29.533  -1.309  53.964  1.00  0.00     0.054 A 
HETATM   12  C5  UNL     1      29.424  -2.476  53.236  1.00  0.00     0.143 A 
HETATM   13  N2  UNL     1      28.217  -2.826  52.753  1.00  0.00    -0.161 NA
HETATM   14  N3  UNL     1      27.184  -2.036  52.996  1.00  0.00    -0.130 NA
BRANCH  10  15
HETATM   15  N1  UNL     1      28.643   0.713  54.985  1.00  0.00    -0.380 N 
HETATM   16  H4  UNL     1      28.273   0.817  55.942  1.00  0.00     0.160 HD
BRANCH  15  17
HETATM   17  C2  UNL     1      29.345   1.859  54.445  1.00  0.00     0.189 C 
BRANCH  17  18
HETATM   18  C1  UNL     1      28.496   2.632  53.495  1.00  0.00     0.250 C 
HETATM   19  O1  UNL     1      27.348   2.776  53.935  1.00  0.00    -0.305 OA
ENDBRANCH  17  18
ENDBRANCH  15  17
ENDBRANCH  10  15
ENDBRANCH   7   9
ENDBRANCH   1   7
BRANCH   5  20
HETATM   20  O2  UNL     1      22.953   2.868  52.450  1.00  0.00    -0.345 OA
BRANCH  20  21
HETATM   21  C11 UNL     1      22.548   3.346  51.203  1.00  0.00     0.214 C 
BRANCH  21  22
HETATM   22  C12 UNL     1      23.634   4.279  50.735  1.00  0.00    -0.031 A 
HETATM   23  C13 UNL     1      23.531   5.555  51.277  1.00  0.00     0.009 A 
HETATM   24  C14 UNL     1      24.429   6.561  50.976  1.00  0.00     0.004 A 
HETATM   25  C15 UNL     1      25.457   6.224  50.092  1.00  0.00     0.042 A 
HETATM   26  C16 UNL     1      25.557   4.973  49.562  1.00  0.00     0.117 A 
HETATM   27  F1  UNL     1      26.554   4.629  48.697  1.00  0.00    -0.206 F 
HETATM   28  C17 UNL     1      24.655   3.975  49.868  1.00  0.00     0.051 A 
ENDBRANCH  21  22
ENDBRANCH  20  21
ENDBRANCH   5  20
TORSDOF 8
ENDMDL
MODEL 3
REMARK VINA RESULT:      -7.5      3.869      5.925
REMARK  8 active torsions:
REMARK  status: ('A' for Active; 'I' for Inactive)
REMARK    1  A    between atoms: C1_2  and  C2_3 
REMARK    2  A    between atoms: C2_3  and  N1_4 
REMARK    3  A    between atoms: N1_4  and  C3_5 
REMARK    4  A    between atoms: C6_10  and  N4_11 
REMARK    5  A    between atoms: N4_11  and  C7_12 
REMARK    6  A    between atoms: C10_16  and  O2_17 
REMARK    7  A    between atoms: O2_17  and  C11_18 
REMARK    8  A    between atoms: C11_18  and  C12_19 
ROOT
HETATM    1  C7  UNL     1      22.003   0.933  51.270  1.00  0.00     0.134 A 
HETATM    2  C8  UNL     1      22.201   1.840  50.138  1.00  0.00     0.029 A 
HETATM    3  C9  UNL     1      23.370   2.489  50.269  1.00  0.00     0.065 A 
HETATM    4 CL1  UNL     1      23.775   3.625  48.996  1.00  0.00    -0.082 Cl
HETATM    5  C10 UNL     1      24.009   2.042  51.505  1.00  0.00     0.089 A 
HETATM    6  C18 UNL     1      23.230   1.146  52.089  1.00  0.00     0.040 A 
ENDROOT
BRANCH   1   7
HETATM    7  N4  UNL     1      20.883   1.271  52.124  1.00  0.00    -0.360 N 
HETATM    8  H7  UNL     1      21.050   2.074  52.738  1.00  0.00     0.162 HD
BRANCH   7   9
HETATM    9  C6  UNL     1      19.667   0.514  52.074  1.00  0.00     0.173 A 
HETATM   10  C3  UNL     1      19.364  -0.329  53.118  1.00  0.00     0.077 A 
HETATM   11  C4  UNL     1      18.168  -0.994  52.942  1.00  0.00     0.054 A 
HETATM   12  C5  UNL     1      17.349  -0.843  51.843  1.00  0.00     0.143 A 
HETATM   13  N2  UNL     1      17.725   0.006  50.868  1.00  0.00    -0.161 NA
HETATM   14  N3  UNL     1      18.866   0.660  51.004  1.00  0.00    -0.130 NA
BRANCH  10  15
HETATM   15  N1  UNL     1      20.161  -0.517  54.255  1.00  0.00    -0.380 N 
HETATM   16  H4  UNL     1      20.105   0.100  55.080  1.00  0.00     0.160 HD
BRANCH  15  17
HETATM   17  C2  UNL     1      21.119  -1.601  54.336  1.00  0.00     0.189 C 
BRANCH  17  18
HETATM   18  C1  UNL     1      22.437  -1.137  54.855  1.00  0.00     0.250 C 
HETATM   19  O1  UNL     1      22.849  -1.877  55.758  1.00  0.00    -0.305 OA
ENDBRANCH  17  18
ENDBRANCH  15  17
ENDBRANCH  10  15
ENDBRANCH   7   9
ENDBRANCH   1   7
BRANCH   5  20
HETATM   20  O2  UNL     1      25.233   2.651  51.747  1.00  0.00    -0.345 OA
BRANCH  20  21
HETATM   21  C11 UNL     1      26.452   2.286  51.172  1.00  0.00     0.214 C 
BRANCH  21  22
HETATM   22  C12 UNL     1      27.257   1.634  52.265  1.00  0.00    -0.031 A 
HETATM   23  C13 UNL     1      27.024   0.269  52.377  1.00  0.00     0.009 A 
HETATM   24  C14 UNL     1      27.662  -0.516  53.318  1.00  0.00     0.004 A 
HETATM   25  C15 UNL     1      28.565   0.142  54.158  1.00  0.00     0.042 A 
HETATM   26  C16 UNL     1      28.792   1.480  54.047  1.00  0.00     0.117 A 
HETATM   27  F1  UNL     1      29.670   2.137  54.859  1.00  0.00    -0.206 F 
HETATM   28  C17 UNL     1      28.150   2.256  53.104  1.00  0.00     0.051 A 
ENDBRANCH  21  22
ENDBRANCH  20  21
ENDBRANCH   5  20
TORSDOF 8
ENDMDL
MODEL 4
REMARK VINA RESULT:      -7.4      1.703      2.045
REMARK  8 active torsions:
REMARK  status: ('A' for Active; 'I' for Inactive)
REMARK    1  A    between atoms: C1_2  and  C2_3 
REMARK    2  A    between atoms: C2_3  and  N1_4 
REMARK    3  A    between atoms: N1_4  and  C3_5 
REMARK    4  A    between atoms: C6_10  and  N4_11 
REMARK    5  A    between atoms: N4_11  and  C7_12 
REMARK    6  A    between atoms: C10_16  and  O2_17 
REMARK    7  A    between atoms: O2_17  and  C11_18 
REMARK    8  A    between atoms: C11_18  and  C12_19 
ROOT
HETATM    1  C7  UNL     1      23.691   3.168  52.155  1.00  0.00     0.134 A 
HETATM    2  C8  UNL     1      22.641   2.171  52.370  1.00  0.00     0.029 A 
HETATM    3  C9  UNL     1      23.187   0.952  52.510  1.00  0.00     0.065 A 
HETATM    4 CL1  UNL     1      22.070  -0.374  52.777  1.00  0.00    -0.082 Cl
HETATM    5  C10 UNL     1      24.638   1.081  52.393  1.00  0.00     0.089 A 
HETATM    6  C18 UNL     1      24.939   2.353  52.188  1.00  0.00     0.040 A 
ENDROOT
BRANCH   1   7
HETATM    7  N4  UNL     1      23.659   3.806  50.855  1.00  0.00    -0.360 N 
HETATM    8  H7  UNL     1      23.673   3.152  50.066  1.00  0.00     0.162 HD
BRANCH   7   9
HETATM    9  C6  UNL     1      23.614   5.233  50.738  1.00  0.00     0.173 A 
HETATM   10  C3  UNL     1      24.779   5.918  50.478  1.00  0.00     0.077 A 
HETATM   11  C4  UNL     1      24.592   7.282  50.391  1.00  0.00     0.054 A 
HETATM   12  C5  UNL     1      23.375   7.912  50.545  1.00  0.00     0.143 A 
HETATM   13  N2  UNL     1      22.286   7.161  50.797  1.00  0.00    -0.161 NA
HETATM   14  N3  UNL     1      22.428   5.850  50.887  1.00  0.00    -0.130 NA
BRANCH  10  15
HETATM   15  N1  UNL     1      26.038   5.326  50.313  1.00  0.00    -0.380 N 
HETATM   16  H4  UNL     1      26.688   5.175  51.100  1.00  0.00     0.160 HD
BRANCH  15  17
HETATM   17  C2  UNL     1      26.503   4.891  49.011  1.00  0.00     0.189 C 
BRANCH  17  18
HETATM   18  C1  UNL     1      27.751   5.597  48.604  1.00  0.00     0.250 C 
HETATM   19  O1  UNL     1      28.668   4.796  48.383  1.00  0.00    -0.305 OA
ENDBRANCH  17  18
ENDBRANCH  15  17
ENDBRANCH  10  15
ENDBRANCH   7   9
ENDBRANCH   1   7
BRANCH   5  20
HETATM   20  O2  UNL     1      25.314  -0.125  52.523  1.00  0.00    -0.345 OA
BRANCH  20  21
HETATM   21  C11 UNL     1      25.806  -0.659  53.715  1.00  0.00     0.214 C 
BRANCH  21  22
HETATM   22  C12 UNL     1      27.273  -0.321  53.756  1.00  0.00    -0.031 A 
HETATM   23  C13 UNL     1      28.084  -1.342  53.277  1.00  0.00     0.009 A 
HETATM   24  C14 UNL     1      29.460  -1.233  53.229  1.00  0.00     0.004 A 
HETATM   25  C15 UNL     1      29.999  -0.029  53.691  1.00  0.00     0.042 A 
HETATM   26  C16 UNL     1      29.201   0.971  54.160  1.00  0.00     0.117 A 
HETATM   27  F1  UNL     1      29.711   2.152  54.615  1.00  0.00    -0.206 F 
HETATM   28  C17 UNL     1      27.828   0.853  54.205  1.00  0.00     0.051 A 
ENDBRANCH  21  22
ENDBRANCH  20  21
ENDBRANCH   5  20
TORSDOF 8
ENDMDL
MODEL 5
REMARK VINA RESULT:      -7.4      3.934      7.136
REMARK  8 active torsions:
REMARK  status: ('A' for Active; 'I' for Inactive)
REMARK    1  A    between atoms: C1_2  and  C2_3 
REMARK    2  A    between atoms: C2_3  and  N1_4 
REMARK    3  A    between atoms: N1_4  and  C3_5 
REMARK    4  A    between atoms: C6_10  and  N4_11 
REMARK    5  A    between atoms: N4_11  and  C7_12 
REMARK    6  A    between atoms: C10_16  and  O2_17 
REMARK    7  A    between atoms: O2_17  and  C11_18 
REMARK    8  A    between atoms: C11_18  and  C12_19 
ROOT
HETATM    1  C7  UNL     1      24.403   0.078  53.145  1.00  0.00     0.134 A 
HETATM    2  C8  UNL     1      23.522  -0.823  53.890  1.00  0.00     0.029 A 
HETATM    3  C9  UNL     1      22.238  -0.533  53.625  1.00  0.00     0.065 A 
HETATM    4 CL1  UNL     1      21.034  -1.518  54.434  1.00  0.00    -0.082 Cl
HETATM    5  C10 UNL     1      22.204   0.584  52.683  1.00  0.00     0.089 A 
HETATM    6  C18 UNL     1      23.445   0.944  52.401  1.00  0.00     0.040 A 
ENDROOT
BRANCH   1   7
HETATM    7  N4  UNL     1      25.193   0.967  53.972  1.00  0.00    -0.360 N 
HETATM    8  H7  UNL     1      24.643   1.656  54.494  1.00  0.00     0.162 HD
BRANCH   7   9
HETATM    9  C6  UNL     1      26.621   0.850  54.020  1.00  0.00     0.173 A 
HETATM   10  C3  UNL     1      27.384   1.677  53.229  1.00  0.00     0.077 A 
HETATM   11  C4  UNL     1      28.738   1.460  53.372  1.00  0.00     0.054 A 
HETATM   12  C5  UNL     1      29.289   0.516  54.214  1.00  0.00     0.143 A 
HETATM   13  N2  UNL     1      28.465  -0.251  54.953  1.00  0.00    -0.161 NA
HETATM   14  N3  UNL     1      27.160  -0.069  54.840  1.00  0.00    -0.130 NA
BRANCH  10  15
HETATM   15  N1  UNL     1      26.874   2.651  52.359  1.00  0.00    -0.380 N 
HETATM   16  H4  UNL     1      26.679   3.618  52.661  1.00  0.00     0.160 HD
BRANCH  15  17
HETATM   17  C2  UNL     1      26.588   2.348  50.971  1.00  0.00     0.189 C 
BRANCH  17  18
HETATM   18  C1  UNL     1      26.289   3.579  50.186  1.00  0.00     0.250 C 
HETATM   19  O1  UNL     1      27.239   3.886  49.454  1.00  0.00    -0.305 OA
ENDBRANCH  17  18
ENDBRANCH  15  17
ENDBRANCH  10  15
ENDBRANCH   7   9
ENDBRANCH   1   7
BRANCH   5  20
HETATM   20  O2  UNL     1      20.917   0.975  52.333  1.00  0.00    -0.345 OA
BRANCH  20  21
HETATM   21  C11 UNL     1      20.119   0.369  51.361  1.00  0.00     0.214 C 
BRANCH  21  22
HETATM   22  C12 UNL     1      20.380   1.113  50.077  1.00  0.00    -0.031 A 
HETATM   23  C13 UNL     1      19.357   1.989  49.734  1.00  0.00     0.009 A 
HETATM   24  C14 UNL     1      19.401   2.766  48.593  1.00  0.00     0.004 A 
HETATM   25  C15 UNL     1      20.540   2.625  47.795  1.00  0.00     0.042 A 
HETATM   26  C16 UNL     1      21.541   1.766  48.133  1.00  0.00     0.117 A 
HETATM   27  F1  UNL     1      22.659   1.616  47.365  1.00  0.00    -0.206 F 
HETATM   28  C17 UNL     1      21.489   0.993  49.275  1.00  0.00     0.051 A 
ENDBRANCH  21  22
ENDBRANCH  20  21
ENDBRANCH   5  20
TORSDOF 8
ENDMDL
MODEL 6
REMARK VINA RESULT:      -7.4      4.210      5.950
REMARK  8 active torsions:
REMARK  status: ('A' for Active; 'I' for Inactive)
REMARK    1  A    between atoms: C1_2  and  C2_3 
REMARK    2  A    between atoms: C2_3  and  N1_4 
REMARK    3  A    between atoms: N1_4  and  C3_5 
REMARK    4  A    between atoms: C6_10  and  N4_11 
REMARK    5  A    between atoms: N4_11  and  C7_12 
REMARK    6  A    between atoms: C10_16  and  O2_17 
REMARK    7  A    between atoms: O2_17  and  C11_18 
REMARK    8  A    between atoms: C11_18  and  C12_19 
ROOT
HETATM    1  C7  UNL     1      21.587   0.123  51.952  1.00  0.00     0.134 A 
HETATM    2  C8  UNL     1      22.373   1.198  51.344  1.00  0.00     0.029 A 
HETATM    3  C9  UNL     1      23.610   1.214  51.866  1.00  0.00     0.065 A 
HETATM    4 CL1  UNL     1      24.698   2.445  51.252  1.00  0.00    -0.082 Cl
HETATM    5  C10 UNL     1      23.706   0.143  52.855  1.00  0.00     0.089 A 
HETATM    6  C18 UNL     1      22.547  -0.492  52.913  1.00  0.00     0.040 A 
ENDROOT
BRANCH   1   7
HETATM    7  N4  UNL     1      20.459   0.574  52.739  1.00  0.00    -0.360 N 
HETATM    8  H7  UNL     1      20.652   1.397  53.318  1.00  0.00     0.162 HD
BRANCH   7   9
HETATM    9  C6  UNL     1      19.201  -0.110  52.678  1.00  0.00     0.173 A 
HETATM   10  C3  UNL     1      18.240   0.338  51.802  1.00  0.00     0.077 A 
HETATM   11  C4  UNL     1      17.081  -0.410  51.845  1.00  0.00     0.054 A 
HETATM   12  C5  UNL     1      16.887  -1.495  52.673  1.00  0.00     0.143 A 
HETATM   13  N2  UNL     1      17.884  -1.864  53.500  1.00  0.00    -0.161 NA
HETATM   14  N3  UNL     1      19.009  -1.170  53.484  1.00  0.00    -0.130 NA
BRANCH  10  15
HETATM   15  N1  UNL     1      18.388   1.433  50.940  1.00  0.00    -0.380 N 
HETATM   16  H4  UNL     1      18.794   1.345  49.995  1.00  0.00     0.160 HD
BRANCH  15  17
HETATM   17  C2  UNL     1      17.975   2.765  51.333  1.00  0.00     0.189 C 
BRANCH  17  18
HETATM   18  C1  UNL     1      19.136   3.693  51.448  1.00  0.00     0.250 C 
HETATM   19  O1  UNL     1      19.826   3.427  52.441  1.00  0.00    -0.305 OA
ENDBRANCH  17  18
ENDBRANCH  15  17
ENDBRANCH  10  15
ENDBRANCH   7   9
ENDBRANCH   1   7
BRANCH   5  20
HETATM   20  O2  UNL     1      24.951   0.062  53.467  1.00  0.00    -0.345 OA
BRANCH  20  21
HETATM   21  C11 UNL     1      25.909  -0.927  53.237  1.00  0.00     0.214 C 
BRANCH  21  22
HETATM   22  C12 UNL     1      27.251  -0.259  53.390  1.00  0.00    -0.031 A 
HETATM   23  C13 UNL     1      28.313  -1.153  53.368  1.00  0.00     0.009 A 
HETATM   24  C14 UNL     1      29.627  -0.745  53.493  1.00  0.00     0.004 A 
HETATM   25  C15 UNL     1      29.833   0.629  53.643  1.00  0.00     0.042 A 
HETATM   26  C16 UNL     1      28.789   1.505  53.663  1.00  0.00     0.117 A 
HETATM   27  F1  UNL     1      28.973   2.849  53.808  1.00  0.00    -0.206 F 
HETATM   28  C17 UNL     1      27.480   1.088  53.537  1.00  0.00     0.051 A 
ENDBRANCH  21  22
ENDBRANCH  20  21
ENDBRANCH   5  20
TORSDOF 8
ENDMDL
MODEL 7
REMARK VINA RESULT:      -7.4      3.624      6.951
REMARK  8 active torsions:
REMARK  status: ('A' for Active; 'I' for Inactive)
REMARK    1  A    between atoms: C1_2  and  C2_3 
REMARK    2  A    between atoms: C2_3  and  N1_4 
REMARK    3  A    between atoms: N1_4  and  C3_5 
REMARK    4  A    between atoms: C6_10  and  N4_11 
REMARK    5  A    between atoms: N4_11  and  C7_12 
REMARK    6  A    between atoms: C10_16  and  O2_17 
REMARK    7  A    between atoms: O2_17  and  C11_18 
REMARK    8  A    between atoms: C11_18  and  C12_19 
ROOT
HETATM    1  C7  UNL     1      25.703   2.757  51.460  1.00  0.00     0.134 A 
HETATM    2  C8  UNL     1      25.225   3.110  50.122  1.00  0.00     0.029 A 
HETATM    3  C9  UNL     1      23.911   2.851  50.021  1.00  0.00     0.065 A 
HETATM    4 CL1  UNL     1      23.163   3.216  48.477  1.00  0.00    -0.082 Cl
HETATM    5  C10 UNL     1      23.449   2.308  51.296  1.00  0.00     0.089 A 
HETATM    6  C18 UNL     1      24.473   2.249  52.132  1.00  0.00     0.040 A 
ENDROOT
BRANCH   1   7
HETATM    7  N4  UNL     1      26.659   1.669  51.489  1.00  0.00    -0.360 N 
HETATM    8  H7  UNL     1      26.631   1.062  50.663  1.00  0.00     0.162 HD
BRANCH   7   9
HETATM    9  C6  UNL     1      27.545   1.500  52.603  1.00  0.00     0.173 A 
HETATM   10  C3  UNL     1      27.625   0.267  53.209  1.00  0.00     0.077 A 
HETATM   11  C4  UNL     1      28.513   0.244  54.264  1.00  0.00     0.054 A 
HETATM   12  C5  UNL     1      29.252   1.332  54.683  1.00  0.00     0.143 A 
HETATM   13  N2  UNL     1      29.110   2.500  54.029  1.00  0.00    -0.161 NA
HETATM   14  N3  UNL     1      28.266   2.558  53.012  1.00  0.00    -0.130 NA
BRANCH  10  15
HETATM   15  N1  UNL     1      26.898  -0.867  52.823  1.00  0.00    -0.380 N 
HETATM   16  H4  UNL     1      27.316  -1.632  52.272  1.00  0.00     0.160 HD
BRANCH  15  17
HETATM   17  C2  UNL     1      25.503  -1.027  53.179  1.00  0.00     0.189 C 
BRANCH  17  18
HETATM   18  C1  UNL     1      25.219  -0.515  54.550  1.00  0.00     0.250 C 
HETATM   19  O1  UNL     1      25.360  -1.405  55.399  1.00  0.00    -0.305 OA
ENDBRANCH  17  18
ENDBRANCH  15  17
ENDBRANCH  10  15
ENDBRANCH   7   9
ENDBRANCH   1   7
BRANCH   5  20
HETATM   20  O2  UNL     1      22.095   2.000  51.310  1.00  0.00    -0.345 OA
BRANCH  20  21
HETATM   21  C11 UNL     1      21.210   2.267  52.357  1.00  0.00     0.214 C 
BRANCH  21  22
HETATM   22  C12 UNL     1      20.928   0.944  53.020  1.00  0.00    -0.031 A 
HETATM   23  C13 UNL     1      19.704   0.398  52.655  1.00  0.00     0.009 A 
HETATM   24  C14 UNL     1      19.256  -0.811  53.151  1.00  0.00     0.004 A 
HETATM   25  C15 UNL     1      20.108  -1.462  54.047  1.00  0.00     0.042 A 
HETATM   26  C16 UNL     1      21.308  -0.925  54.404  1.00  0.00     0.117 A 
HETATM   27  F1  UNL     1      22.151  -1.548  55.278  1.00  0.00    -0.206 F 
HETATM   28  C17 UNL     1      21.747   0.284  53.903  1.00  0.00     0.051 A 
ENDBRANCH  21  22
ENDBRANCH  20  21
ENDBRANCH   5  20
TORSDOF 8
ENDMDL
MODEL 8
REMARK VINA RESULT:      -7.4      4.552      7.716
REMARK  8 active torsions:
REMARK  status: ('A' for Active; 'I' for Inactive)
REMARK    1  A    between atoms: C1_2  and  C2_3 
REMARK    2  A    between atoms: C2_3  and  N1_4 
REMARK    3  A    between atoms: N1_4  and  C3_5 
REMARK    4  A    between atoms: C6_10  and  N4_11 
REMARK    5  A    between atoms: N4_11  and  C7_12 
REMARK    6  A    between atoms: C10_16  and  O2_17 
REMARK    7  A    between atoms: O2_17  and  C11_18 
REMARK    8  A    between atoms: C11_18  and  C12_19 
ROOT
HETATM    1  C7  UNL     1      24.357   0.170  53.038  1.00  0.00     0.134 A 
HETATM    2  C8  UNL     1      23.529  -0.768  53.798  1.00  0.00     0.029 A 
HETATM    3  C9  UNL     1      22.228  -0.498  53.601  1.00  0.00     0.065 A 
HETATM    4 CL1  UNL     1      21.084  -1.528  54.439  1.00  0.00    -0.082 Cl
HETATM    5  C10 UNL     1      22.129   0.643  52.692  1.00  0.00     0.089 A 
HETATM    6  C18 UNL     1      23.348   1.035  52.362  1.00  0.00     0.040 A 
ENDROOT
BRANCH   1   7
HETATM    7  N4  UNL     1      25.168   1.053  53.850  1.00  0.00    -0.360 N 
HETATM    8  H7  UNL     1      24.637   1.780  54.340  1.00  0.00     0.162 HD
BRANCH   7   9
HETATM    9  C6  UNL     1      26.588   0.881  53.927  1.00  0.00     0.173 A 
HETATM   10  C3  UNL     1      27.400   1.676  53.150  1.00  0.00     0.077 A 
HETATM   11  C4  UNL     1      28.741   1.406  53.323  1.00  0.00     0.054 A 
HETATM   12  C5  UNL     1      29.238   0.445  54.179  1.00  0.00     0.143 A 
HETATM   13  N2  UNL     1      28.369  -0.287  54.902  1.00  0.00    -0.161 NA
HETATM   14  N3  UNL     1      27.075  -0.054  54.762  1.00  0.00    -0.130 NA
BRANCH  10  15
HETATM   15  N1  UNL     1      26.946   2.665  52.267  1.00  0.00    -0.380 N 
HETATM   16  H4  UNL     1      26.843   3.653  52.546  1.00  0.00     0.160 HD
BRANCH  15  17
HETATM   17  C2  UNL     1      26.590   2.350  50.898  1.00  0.00     0.189 C 
BRANCH  17  18
HETATM   18  C1  UNL     1      26.310   3.578  50.102  1.00  0.00     0.250 C 
HETATM   19  O1  UNL     1      27.306   3.932  49.458  1.00  0.00    -0.305 OA
ENDBRANCH  17  18
ENDBRANCH  15  17
ENDBRANCH  10  15
ENDBRANCH   7   9
ENDBRANCH   1   7
BRANCH   5  20
HETATM   20  O2  UNL     1      20.820   1.016  52.413  1.00  0.00    -0.345 OA
BRANCH  20  21
HETATM   21  C11 UNL     1      20.242   1.071  51.143  1.00  0.00     0.214 C 
BRANCH  21  22
HETATM   22  C12 UNL     1      18.916   0.365  51.252  1.00  0.00    -0.031 A 
HETATM   23  C13 UNL     1      18.104   0.550  50.139  1.00  0.00     0.009 A 
HETATM   24  C14 UNL     1      16.847  -0.012  50.039  1.00  0.00     0.004 A 
HETATM   25  C15 UNL     1      16.430  -0.786  51.126  1.00  0.00     0.042 A 
HETATM   26  C16 UNL     1      17.227  -0.966  52.216  1.00  0.00     0.117 A 
HETATM   27  F1  UNL     1      16.835  -1.718  53.285  1.00  0.00    -0.206 F 
HETATM   28  C17 UNL     1      18.482  -0.400  52.307  1.00  0.00     0.051 A 
ENDBRANCH  21  22
ENDBRANCH  20  21
ENDBRANCH   5  20
TORSDOF 8
ENDMDL
MODEL 9
REMARK VINA RESULT:      -7.3      2.727      4.407
REMARK  8 active torsions:
REMARK  status: ('A' for Active; 'I' for Inactive)
REMARK    1  A    between atoms: C1_2  and  C2_3 
REMARK    2  A    between atoms: C2_3  and  N1_4 
REMARK    3  A    between atoms: N1_4  and  C3_5 
REMARK    4  A    between atoms: C6_10  and  N4_11 
REMARK    5  A    between atoms: N4_11  and  C7_12 
REMARK    6  A    between atoms: C10_16  and  O2_17 
REMARK    7  A    between atoms: O2_17  and  C11_18 
REMARK    8  A    between atoms: C11_18  and  C12_19 
ROOT
HETATM    1  C7  UNL     1      23.618   2.276  51.132  1.00  0.00     0.134 A 
HETATM    2  C8  UNL     1      24.263   3.218  50.215  1.00  0.00     0.029 A 
HETATM    3  C9  UNL     1      25.589   3.228  50.424  1.00  0.00     0.065 A 
HETATM    4 CL1  UNL     1      26.529   4.306  49.409  1.00  0.00    -0.082 Cl
HETATM    5  C10 UNL     1      25.893   2.285  51.499  1.00  0.00     0.089 A 
HETATM    6  C18 UNL     1      24.766   1.732  51.914  1.00  0.00     0.040 A 
ENDROOT
BRANCH   1   7
HETATM    7  N4  UNL     1      22.726   2.888  52.096  1.00  0.00    -0.360 N 
HETATM    8  H7  UNL     1      23.204   3.357  52.872  1.00  0.00     0.162 HD
BRANCH   7   9
HETATM    9  C6  UNL     1      21.305   2.813  51.930  1.00  0.00     0.173 A 
HETATM   10  C3  UNL     1      20.666   1.621  52.184  1.00  0.00     0.077 A 
HETATM   11  C4  UNL     1      19.303   1.688  51.986  1.00  0.00     0.054 A 
HETATM   12  C5  UNL     1      18.631   2.822  51.578  1.00  0.00     0.143 A 
HETATM   13  N2  UNL     1      19.338   3.946  51.354  1.00  0.00    -0.161 NA
HETATM   14  N3  UNL     1      20.648   3.917  51.533  1.00  0.00    -0.130 NA
BRANCH  10  15
HETATM   15  N1  UNL     1      21.301   0.442  52.600  1.00  0.00    -0.380 N 
HETATM   16  H4  UNL     1      21.678  -0.250  51.935  1.00  0.00     0.160 HD
BRANCH  15  17
HETATM   17  C2  UNL     1      21.463   0.128  54.006  1.00  0.00     0.189 C 
BRANCH  17  18
HETATM   18  C1  UNL     1      22.151  -1.179  54.205  1.00  0.00     0.250 C 
HETATM   19  O1  UNL     1      21.941  -1.627  55.340  1.00  0.00    -0.305 OA
ENDBRANCH  17  18
ENDBRANCH  15  17
ENDBRANCH  10  15
ENDBRANCH   7   9
ENDBRANCH   1   7
BRANCH   5  20
HETATM   20  O2  UNL     1      27.246   2.210  51.804  1.00  0.00    -0.345 OA
BRANCH  20  21
HETATM   21  C11 UNL     1      27.783   1.995  53.075  1.00  0.00     0.214 C 
BRANCH  21  22
HETATM   22  C12 UNL     1      28.194   0.546  53.120  1.00  0.00    -0.031 A 
HETATM   23  C13 UNL     1      29.481   0.357  53.609  1.00  0.00     0.009 A 
HETATM   24  C14 UNL     1      30.049  -0.896  53.731  1.00  0.00     0.004 A 
HETATM   25  C15 UNL     1      29.254  -1.974  53.334  1.00  0.00     0.042 A 
HETATM   26  C16 UNL     1      27.992  -1.787  52.856  1.00  0.00     0.117 A 
HETATM   27  F1  UNL     1      27.202  -2.829  52.464  1.00  0.00    -0.206 F 
HETATM   28  C17 UNL     1      27.433  -0.531  52.737  1.00  0.00     0.051 A 
ENDBRANCH  21  22
ENDBRANCH  20  21
ENDBRANCH   5  20
TORSDOF 8
ENDMDL
