MODEL 1
REMARK VINA RESULT:      -7.0      0.000      0.000
REMARK  8 active torsions:
REMARK  status: ('A' for Active; 'I' for Inactive)
REMARK    1  A    between atoms: O1_2  and  C2_3 
REMARK    2  A    between atoms: C2_3  and  C3_4 
REMARK    3  A    between atoms: C3_4  and  C14_20 
REMARK    4  A    between atoms: C4_5  and  C5_6 
REMARK    5  A    between atoms: C7_10  and  N3_11 
REMARK    6  A    between atoms: N3_11  and  N4_12 
REMARK    7  A    between atoms: N4_12  and  C8_13 
REMARK    8  A    between atoms: C14_20  and  O2_21 
ROOT
HETATM    1  C5  UNL     1      26.956   1.458  54.034  1.00  0.00     0.076 A 
HETATM    2  N1  UNL     1      28.161   1.858  54.292  1.00  0.00    -0.243 NA
HETATM    3  C6  UNL     1      28.989   0.696  54.493  1.00  0.00     0.229 A 
HETATM    4  N2  UNL     1      28.297  -0.370  54.361  1.00  0.00    -0.255 NA
HETATM    5  C7  UNL     1      26.938  -0.026  54.061  1.00  0.00     0.251 A 
ENDROOT
BRANCH   5   6
HETATM    6  N3  UNL     1      26.032  -0.368  55.148  1.00  0.00    -0.209 NA
HETATM    7  H9  UNL     1      26.593  -0.726  55.957  1.00  0.00     0.149 HD
BRANCH   6   8
HETATM    8  N4  UNL     1      25.051  -1.274  54.742  1.00  0.00    -0.319 N 
HETATM    9  H10 UNL     1      25.376  -2.277  54.798  1.00  0.00     0.181 HD
BRANCH   8  10
HETATM   10  C8  UNL     1      23.748  -0.897  54.296  1.00  0.00     0.044 A 
HETATM   11  C9  UNL     1      22.677  -1.116  55.176  1.00  0.00     0.030 A 
HETATM   12  C10 UNL     1      21.374  -0.789  54.867  1.00  0.00     0.004 A 
HETATM   13  C11 UNL     1      21.161  -0.223  53.622  1.00  0.00     0.019 A 
HETATM   14  C12 UNL     1      22.169   0.025  52.697  1.00  0.00     0.013 A 
HETATM   15 BR1  UNL     1      21.829   0.811  50.993  1.00  0.00    -0.051 Br
HETATM   16  C13 UNL     1      23.460  -0.329  53.075  1.00  0.00     0.049 A 
ENDBRANCH   8  10
ENDBRANCH   6   8
ENDBRANCH   5   6
BRANCH   1  17
HETATM   17  C4  UNL     1      25.788   2.287  53.765  1.00  0.00     0.038 C 
HETATM   18  C3  UNL     1      25.256   2.689  52.621  1.00  0.00    -0.031 C 
BRANCH  18  19
HETATM   19  C2  UNL     1      24.025   3.556  52.614  1.00  0.00     0.203 C 
BRANCH  19  20
HETATM   20  O1  UNL     1      23.730   3.863  51.290  1.00  0.00    -0.392 OA
HETATM   21  C1  UNL     1      22.552   4.621  51.218  1.00  0.00     0.201 C 
ENDBRANCH  19  20
ENDBRANCH  18  19
BRANCH  18  22
HETATM   22  C14 UNL     1      25.578   2.501  51.197  1.00  0.00     0.203 C 
BRANCH  22  23
HETATM   23  O2  UNL     1      26.841   2.936  50.829  1.00  0.00    -0.392 OA
HETATM   24  C15 UNL     1      26.715   3.667  49.649  1.00  0.00     0.201 C 
ENDBRANCH  22  23
ENDBRANCH  18  22
ENDBRANCH   1  17
TORSDOF 8
ENDMDL
MODEL 2
REMARK VINA RESULT:      -6.6      3.574      7.286
REMARK  8 active torsions:
REMARK  status: ('A' for Active; 'I' for Inactive)
REMARK    1  A    between atoms: O1_2  and  C2_3 
REMARK    2  A    between atoms: C2_3  and  C3_4 
REMARK    3  A    between atoms: C3_4  and  C14_20 
REMARK    4  A    between atoms: C4_5  and  C5_6 
REMARK    5  A    between atoms: C7_10  and  N3_11 
REMARK    6  A    between atoms: N3_11  and  N4_12 
REMARK    7  A    between atoms: N4_12  and  C8_13 
REMARK    8  A    between atoms: C14_20  and  O2_21 
ROOT
HETATM    1  C5  UNL     1      25.755   2.484  52.803  1.00  0.00     0.076 A 
HETATM    2  N1  UNL     1      24.722   3.073  53.318  1.00  0.00    -0.243 NA
HETATM    3  C6  UNL     1      23.878   3.525  52.241  1.00  0.00     0.229 A 
HETATM    4  N2  UNL     1      24.393   3.216  51.113  1.00  0.00    -0.255 NA
HETATM    5  C7  UNL     1      25.634   2.528  51.325  1.00  0.00     0.251 A 
ENDROOT
BRANCH   5   6
HETATM    6  N3  UNL     1      26.778   3.312  50.880  1.00  0.00    -0.209 NA
HETATM    7  H9  UNL     1      26.840   4.180  51.462  1.00  0.00     0.149 HD
BRANCH   6   8
HETATM    8  N4  UNL     1      26.718   3.592  49.515  1.00  0.00    -0.319 N 
HETATM    9  H10 UNL     1      26.468   2.744  48.937  1.00  0.00     0.181 HD
BRANCH   8  10
HETATM   10  C8  UNL     1      26.968   4.878  48.949  1.00  0.00     0.044 A 
HETATM   11  C9  UNL     1      28.265   5.135  48.481  1.00  0.00     0.030 A 
HETATM   12  C10 UNL     1      28.631   6.335  47.908  1.00  0.00     0.004 A 
HETATM   13  C11 UNL     1      27.642   7.298  47.813  1.00  0.00     0.019 A 
HETATM   14  C12 UNL     1      26.336   7.118  48.254  1.00  0.00     0.013 A 
HETATM   15 BR1  UNL     1      25.004   8.474  48.098  1.00  0.00    -0.051 Br
HETATM   16  C13 UNL     1      26.036   5.885  48.820  1.00  0.00     0.049 A 
ENDBRANCH   8  10
ENDBRANCH   6   8
ENDBRANCH   5   6
BRANCH   1  17
HETATM   17  C4  UNL     1      26.870   1.873  53.516  1.00  0.00     0.038 C 
HETATM   18  C3  UNL     1      26.956   0.727  54.173  1.00  0.00    -0.031 C 
BRANCH  18  19
HETATM   19  C2  UNL     1      28.246   0.320  54.833  1.00  0.00     0.203 C 
BRANCH  19  20
HETATM   20  O1  UNL     1      28.636  -0.899  54.286  1.00  0.00    -0.392 OA
HETATM   21  C1  UNL     1      29.835  -0.748  53.574  1.00  0.00     0.201 C 
ENDBRANCH  19  20
ENDBRANCH  18  19
BRANCH  18  22
HETATM   22  C14 UNL     1      26.030  -0.379  54.467  1.00  0.00     0.203 C 
BRANCH  22  23
HETATM   23  O2  UNL     1      25.315  -0.840  53.372  1.00  0.00    -0.392 OA
HETATM   24  C15 UNL     1      23.966  -0.577  53.601  1.00  0.00     0.201 C 
ENDBRANCH  22  23
ENDBRANCH  18  22
ENDBRANCH   1  17
TORSDOF 8
ENDMDL
MODEL 3
REMARK VINA RESULT:      -6.4      2.986      4.595
REMARK  8 active torsions:
REMARK  status: ('A' for Active; 'I' for Inactive)
REMARK    1  A    between atoms: O1_2  and  C2_3 
REMARK    2  A    between atoms: C2_3  and  C3_4 
REMARK    3  A    between atoms: C3_4  and  C14_20 
REMARK    4  A    between atoms: C4_5  and  C5_6 
REMARK    5  A    between atoms: C7_10  and  N3_11 
REMARK    6  A    between atoms: N3_11  and  N4_12 
REMARK    7  A    between atoms: N4_12  and  C8_13 
REMARK    8  A    between atoms: C14_20  and  O2_21 
ROOT
HETATM    1  C5  UNL     1      25.898   2.664  51.548  1.00  0.00     0.076 A 
HETATM    2  N1  UNL     1      26.738   2.882  50.587  1.00  0.00    -0.243 NA
HETATM    3  C6  UNL     1      26.025   3.495  49.496  1.00  0.00     0.229 A 
HETATM    4  N2  UNL     1      24.791   3.638  49.795  1.00  0.00    -0.255 NA
HETATM    5  C7  UNL     1      24.558   3.133  51.117  1.00  0.00     0.251 A 
ENDROOT
BRANCH   5   6
HETATM    6  N3  UNL     1      23.728   1.936  51.108  1.00  0.00    -0.209 NA
HETATM    7  H9  UNL     1      23.431   1.738  50.124  1.00  0.00     0.149 HD
BRANCH   6   8
HETATM    8  N4  UNL     1      22.643   2.048  51.978  1.00  0.00    -0.319 N 
HETATM    9  H10 UNL     1      22.305   3.043  52.078  1.00  0.00     0.181 HD
BRANCH   8  10
HETATM   10  C8  UNL     1      22.049   0.947  52.664  1.00  0.00     0.044 A 
HETATM   11  C9  UNL     1      22.878   0.188  53.504  1.00  0.00     0.030 A 
HETATM   12  C10 UNL     1      22.424  -0.895  54.227  1.00  0.00     0.004 A 
HETATM   13  C11 UNL     1      21.084  -1.210  54.084  1.00  0.00     0.019 A 
HETATM   14  C12 UNL     1      20.201  -0.508  53.273  1.00  0.00     0.013 A 
HETATM   15 BR1  UNL     1      18.360  -0.978  53.110  1.00  0.00    -0.051 Br
HETATM   16  C13 UNL     1      20.726   0.573  52.573  1.00  0.00     0.049 A 
ENDBRANCH   8  10
ENDBRANCH   6   8
ENDBRANCH   5   6
BRANCH   1  17
HETATM   17  C4  UNL     1      26.176   2.059  52.845  1.00  0.00     0.038 C 
HETATM   18  C3  UNL     1      26.410   0.801  53.182  1.00  0.00    -0.031 C 
BRANCH  18  19
HETATM   19  C2  UNL     1      26.674   0.431  54.618  1.00  0.00     0.203 C 
BRANCH  19  20
HETATM   20  O1  UNL     1      27.811   1.118  55.031  1.00  0.00    -0.392 OA
HETATM   21  C1  UNL     1      28.944   0.301  54.904  1.00  0.00     0.201 C 
ENDBRANCH  19  20
ENDBRANCH  18  19
BRANCH  18  22
HETATM   22  C14 UNL     1      26.489  -0.477  52.456  1.00  0.00     0.203 C 
BRANCH  22  23
HETATM   23  O2  UNL     1      26.624  -1.594  53.266  1.00  0.00    -0.392 OA
HETATM   24  C15 UNL     1      27.444  -2.506  52.603  1.00  0.00     0.201 C 
ENDBRANCH  22  23
ENDBRANCH  18  22
ENDBRANCH   1  17
TORSDOF 8
ENDMDL
MODEL 4
REMARK VINA RESULT:      -6.2      2.917      6.026
REMARK  8 active torsions:
REMARK  status: ('A' for Active; 'I' for Inactive)
REMARK    1  A    between atoms: O1_2  and  C2_3 
REMARK    2  A    between atoms: C2_3  and  C3_4 
REMARK    3  A    between atoms: C3_4  and  C14_20 
REMARK    4  A    between atoms: C4_5  and  C5_6 
REMARK    5  A    between atoms: C7_10  and  N3_11 
REMARK    6  A    between atoms: N3_11  and  N4_12 
REMARK    7  A    between atoms: N4_12  and  C8_13 
REMARK    8  A    between atoms: C14_20  and  O2_21 
ROOT
HETATM    1  C5  UNL     1      23.838  -0.489  53.503  1.00  0.00     0.076 A 
HETATM    2  N1  UNL     1      23.163  -0.810  54.561  1.00  0.00    -0.243 NA
HETATM    3  C6  UNL     1      21.864  -0.194  54.472  1.00  0.00     0.229 A 
HETATM    4  N2  UNL     1      21.765   0.479  53.390  1.00  0.00    -0.255 NA
HETATM    5  C7  UNL     1      22.990   0.380  52.651  1.00  0.00     0.251 A 
ENDROOT
BRANCH   5   6
HETATM    6  N3  UNL     1      23.699   1.651  52.591  1.00  0.00    -0.209 NA
HETATM    7  H9  UNL     1      23.490   2.196  53.461  1.00  0.00     0.149 HD
BRANCH   6   8
HETATM    8  N4  UNL     1      23.391   2.365  51.432  1.00  0.00    -0.319 N 
HETATM    9  H10 UNL     1      22.477   2.062  50.999  1.00  0.00     0.181 HD
BRANCH   8  10
HETATM   10  C8  UNL     1      24.216   3.391  50.881  1.00  0.00     0.044 A 
HETATM   11  C9  UNL     1      25.389   2.990  50.222  1.00  0.00     0.030 A 
HETATM   12  C10 UNL     1      26.265   3.884  49.641  1.00  0.00     0.004 A 
HETATM   13  C11 UNL     1      25.932   5.223  49.740  1.00  0.00     0.019 A 
HETATM   14  C12 UNL     1      24.790   5.697  50.376  1.00  0.00     0.013 A 
HETATM   15 BR1  UNL     1      24.370   7.554  50.484  1.00  0.00    -0.051 Br
HETATM   16  C13 UNL     1      23.951   4.742  50.939  1.00  0.00     0.049 A 
ENDBRANCH   8  10
ENDBRANCH   6   8
ENDBRANCH   5   6
BRANCH   1  17
HETATM   17  C4  UNL     1      25.200  -0.886  53.169  1.00  0.00     0.038 C 
HETATM   18  C3  UNL     1      26.365  -0.456  53.628  1.00  0.00    -0.031 C 
BRANCH  18  19
HETATM   19  C2  UNL     1      27.652  -1.040  53.110  1.00  0.00     0.203 C 
BRANCH  19  20
HETATM   20  O1  UNL     1      28.585  -0.991  54.140  1.00  0.00    -0.392 OA
HETATM   21  C1  UNL     1      29.884  -0.923  53.616  1.00  0.00     0.201 C 
ENDBRANCH  19  20
ENDBRANCH  18  19
BRANCH  18  22
HETATM   22  C14 UNL     1      26.791   0.550  54.614  1.00  0.00     0.203 C 
BRANCH  22  23
HETATM   23  O2  UNL     1      26.447   1.854  54.293  1.00  0.00    -0.392 OA
HETATM   24  C15 UNL     1      27.413   2.347  53.418  1.00  0.00     0.201 C 
ENDBRANCH  22  23
ENDBRANCH  18  22
ENDBRANCH   1  17
TORSDOF 8
ENDMDL
MODEL 5
REMARK VINA RESULT:      -6.1      2.933      4.708
REMARK  8 active torsions:
REMARK  status: ('A' for Active; 'I' for Inactive)
REMARK    1  A    between atoms: O1_2  and  C2_3 
REMARK    2  A    between atoms: C2_3  and  C3_4 
REMARK    3  A    between atoms: C3_4  and  C14_20 
REMARK    4  A    between atoms: C4_5  and  C5_6 
REMARK    5  A    between atoms: C7_10  and  N3_11 
REMARK    6  A    between atoms: N3_11  and  N4_12 
REMARK    7  A    between atoms: N4_12  and  C8_13 
REMARK    8  A    between atoms: C14_20  and  O2_21 
ROOT
HETATM    1  C5  UNL     1      25.713   5.064  49.647  1.00  0.00     0.076 A 
HETATM    2  N1  UNL     1      26.369   6.029  49.085  1.00  0.00    -0.243 NA
HETATM    3  C6  UNL     1      27.602   5.494  48.566  1.00  0.00     0.229 A 
HETATM    4  N2  UNL     1      27.683   4.243  48.814  1.00  0.00    -0.255 NA
HETATM    5  C7  UNL     1      26.511   3.819  49.524  1.00  0.00     0.251 A 
ENDROOT
BRANCH   5   6
HETATM    6  N3  UNL     1      26.811   3.431  50.895  1.00  0.00    -0.209 NA
HETATM    7  H9  UNL     1      27.734   3.843  51.169  1.00  0.00     0.149 HD
BRANCH   6   8
HETATM    8  N4  UNL     1      26.778   2.046  51.063  1.00  0.00    -0.319 N 
HETATM    9  H10 UNL     1      27.590   1.560  50.594  1.00  0.00     0.181 HD
BRANCH   8  10
HETATM   10  C8  UNL     1      25.761   1.351  51.784  1.00  0.00     0.044 A 
HETATM   11  C9  UNL     1      26.152   0.226  52.527  1.00  0.00     0.030 A 
HETATM   12  C10 UNL     1      25.267  -0.525  53.272  1.00  0.00     0.004 A 
HETATM   13  C11 UNL     1      23.945  -0.114  53.253  1.00  0.00     0.019 A 
HETATM   14  C12 UNL     1      23.482   0.987  52.543  1.00  0.00     0.013 A 
HETATM   15 BR1  UNL     1      21.651   1.518  52.551  1.00  0.00    -0.051 Br
HETATM   16  C13 UNL     1      24.428   1.700  51.815  1.00  0.00     0.049 A 
ENDBRANCH   8  10
ENDBRANCH   6   8
ENDBRANCH   5   6
BRANCH   1  17
HETATM   17  C4  UNL     1      24.415   5.143  50.305  1.00  0.00     0.038 C 
HETATM   18  C3  UNL     1      23.221   4.717  49.921  1.00  0.00    -0.031 C 
BRANCH  18  19
HETATM   19  C2  UNL     1      22.016   4.926  50.799  1.00  0.00     0.203 C 
BRANCH  19  20
HETATM   20  O1  UNL     1      22.099   6.207  51.335  1.00  0.00    -0.392 OA
HETATM   21  C1  UNL     1      21.368   7.110  50.549  1.00  0.00     0.201 C 
ENDBRANCH  19  20
ENDBRANCH  18  19
BRANCH  18  22
HETATM   22  C14 UNL     1      22.693   4.021  48.736  1.00  0.00     0.203 C 
BRANCH  22  23
HETATM   23  O2  UNL     1      23.203   2.747  48.540  1.00  0.00    -0.392 OA
HETATM   24  C15 UNL     1      22.157   1.840  48.698  1.00  0.00     0.201 C 
ENDBRANCH  22  23
ENDBRANCH  18  22
ENDBRANCH   1  17
TORSDOF 8
ENDMDL
MODEL 6
REMARK VINA RESULT:      -6.1      3.125      4.666
REMARK  8 active torsions:
REMARK  status: ('A' for Active; 'I' for Inactive)
REMARK    1  A    between atoms: O1_2  and  C2_3 
REMARK    2  A    between atoms: C2_3  and  C3_4 
REMARK    3  A    between atoms: C3_4  and  C14_20 
REMARK    4  A    between atoms: C4_5  and  C5_6 
REMARK    5  A    between atoms: C7_10  and  N3_11 
REMARK    6  A    between atoms: N3_11  and  N4_12 
REMARK    7  A    between atoms: N4_12  and  C8_13 
REMARK    8  A    between atoms: C14_20  and  O2_21 
ROOT
HETATM    1  C5  UNL     1      26.019   2.153  51.154  1.00  0.00     0.076 A 
HETATM    2  N1  UNL     1      26.800   2.800  50.348  1.00  0.00    -0.243 NA
HETATM    3  C6  UNL     1      26.144   4.025  49.971  1.00  0.00     0.229 A 
HETATM    4  N2  UNL     1      25.000   4.108  50.533  1.00  0.00    -0.255 NA
HETATM    5  C7  UNL     1      24.778   2.944  51.342  1.00  0.00     0.251 A 
ENDROOT
BRANCH   5   6
HETATM    6  N3  UNL     1      23.714   2.103  50.812  1.00  0.00    -0.209 NA
HETATM    7  H9  UNL     1      23.536   2.370  49.815  1.00  0.00     0.149 HD
BRANCH   6   8
HETATM    8  N4  UNL     1      22.559   2.170  51.592  1.00  0.00    -0.319 N 
HETATM    9  H10 UNL     1      22.051   3.089  51.487  1.00  0.00     0.181 HD
BRANCH   8  10
HETATM   10  C8  UNL     1      22.108   1.119  52.447  1.00  0.00     0.044 A 
HETATM   11  C9  UNL     1      20.779   0.693  52.298  1.00  0.00     0.030 A 
HETATM   12  C10 UNL     1      20.226  -0.317  53.057  1.00  0.00     0.004 A 
HETATM   13  C11 UNL     1      21.056  -0.906  53.994  1.00  0.00     0.019 A 
HETATM   14  C12 UNL     1      22.381  -0.540  54.200  1.00  0.00     0.013 A 
HETATM   15 BR1  UNL     1      23.490  -1.383  55.503  1.00  0.00    -0.051 Br
HETATM   16  C13 UNL     1      22.874   0.485  53.400  1.00  0.00     0.049 A 
ENDBRANCH   8  10
ENDBRANCH   6   8
ENDBRANCH   5   6
BRANCH   1  17
HETATM   17  C4  UNL     1      26.271   0.863  51.785  1.00  0.00     0.038 C 
HETATM   18  C3  UNL     1      26.579   0.556  53.036  1.00  0.00    -0.031 C 
BRANCH  18  19
HETATM   19  C2  UNL     1      26.793  -0.879  53.439  1.00  0.00     0.203 C 
BRANCH  19  20
HETATM   20  O1  UNL     1      27.798  -1.401  52.631  1.00  0.00    -0.392 OA
HETATM   21  C1  UNL     1      28.980  -1.561  53.369  1.00  0.00     0.201 C 
ENDBRANCH  19  20
ENDBRANCH  18  19
BRANCH  18  22
HETATM   22  C14 UNL     1      26.795   1.320  54.275  1.00  0.00     0.203 C 
BRANCH  22  23
HETATM   23  O2  UNL     1      28.124   1.460  54.642  1.00  0.00    -0.392 OA
HETATM   24  C15 UNL     1      28.708   2.392  53.786  1.00  0.00     0.201 C 
ENDBRANCH  22  23
ENDBRANCH  18  22
ENDBRANCH   1  17
TORSDOF 8
ENDMDL
MODEL 7
REMARK VINA RESULT:      -6.0      1.556      2.274
REMARK  8 active torsions:
REMARK  status: ('A' for Active; 'I' for Inactive)
REMARK    1  A    between atoms: O1_2  and  C2_3 
REMARK    2  A    between atoms: C2_3  and  C3_4 
REMARK    3  A    between atoms: C3_4  and  C14_20 
REMARK    4  A    between atoms: C4_5  and  C5_6 
REMARK    5  A    between atoms: C7_10  and  N3_11 
REMARK    6  A    between atoms: N3_11  and  N4_12 
REMARK    7  A    between atoms: N4_12  and  C8_13 
REMARK    8  A    between atoms: C14_20  and  O2_21 
ROOT
HETATM    1  C5  UNL     1      26.993   1.911  51.966  1.00  0.00     0.076 A 
HETATM    2  N1  UNL     1      28.029   2.504  52.469  1.00  0.00    -0.243 NA
HETATM    3  C6  UNL     1      28.488   1.731  53.595  1.00  0.00     0.229 A 
HETATM    4  N2  UNL     1      27.746   0.705  53.763  1.00  0.00    -0.255 NA
HETATM    5  C7  UNL     1      26.715   0.692  52.765  1.00  0.00     0.251 A 
ENDROOT
BRANCH   5   6
HETATM    6  N3  UNL     1      25.394   0.914  53.338  1.00  0.00    -0.209 NA
HETATM    7  H9  UNL     1      25.496   1.481  54.213  1.00  0.00     0.149 HD
BRANCH   6   8
HETATM    8  N4  UNL     1      24.715  -0.285  53.559  1.00  0.00    -0.319 N 
HETATM    9  H10 UNL     1      25.368  -1.094  53.741  1.00  0.00     0.181 HD
BRANCH   8  10
HETATM   10  C8  UNL     1      23.294  -0.414  53.541  1.00  0.00     0.044 A 
HETATM   11  C9  UNL     1      22.693  -1.080  54.621  1.00  0.00     0.030 A 
HETATM   12  C10 UNL     1      21.330  -1.264  54.724  1.00  0.00     0.004 A 
HETATM   13  C11 UNL     1      20.562  -0.753  53.693  1.00  0.00     0.019 A 
HETATM   14  C12 UNL     1      21.082  -0.083  52.592  1.00  0.00     0.013 A 
HETATM   15 BR1  UNL     1      19.982   0.608  51.196  1.00  0.00    -0.051 Br
HETATM   16  C13 UNL     1      22.464   0.068  52.553  1.00  0.00     0.049 A 
ENDBRANCH   8  10
ENDBRANCH   6   8
ENDBRANCH   5   6
BRANCH   1  17
HETATM   17  C4  UNL     1      26.202   2.336  50.818  1.00  0.00     0.038 C 
HETATM   18  C3  UNL     1      25.174   3.166  50.733  1.00  0.00    -0.031 C 
BRANCH  18  19
HETATM   19  C2  UNL     1      24.521   3.440  49.404  1.00  0.00     0.203 C 
BRANCH  19  20
HETATM   20  O1  UNL     1      24.567   4.813  49.185  1.00  0.00    -0.392 OA
HETATM   21  C1  UNL     1      23.498   5.210  48.369  1.00  0.00     0.201 C 
ENDBRANCH  19  20
ENDBRANCH  18  19
BRANCH  18  22
HETATM   22  C14 UNL     1      24.408   3.981  51.691  1.00  0.00     0.203 C 
BRANCH  22  23
HETATM   23  O2  UNL     1      23.496   3.269  52.454  1.00  0.00    -0.392 OA
HETATM   24  C15 UNL     1      22.237   3.831  52.249  1.00  0.00     0.201 C 
ENDBRANCH  22  23
ENDBRANCH  18  22
ENDBRANCH   1  17
TORSDOF 8
ENDMDL
MODEL 8
REMARK VINA RESULT:      -6.0      2.538      4.826
REMARK  8 active torsions:
REMARK  status: ('A' for Active; 'I' for Inactive)
REMARK    1  A    between atoms: O1_2  and  C2_3 
REMARK    2  A    between atoms: C2_3  and  C3_4 
REMARK    3  A    between atoms: C3_4  and  C14_20 
REMARK    4  A    between atoms: C4_5  and  C5_6 
REMARK    5  A    between atoms: C7_10  and  N3_11 
REMARK    6  A    between atoms: N3_11  and  N4_12 
REMARK    7  A    between atoms: N4_12  and  C8_13 
REMARK    8  A    between atoms: C14_20  and  O2_21 
ROOT
HETATM    1  C5  UNL     1      25.047   0.640  53.417  1.00  0.00     0.076 A 
HETATM    2  N1  UNL     1      25.845  -0.250  53.918  1.00  0.00    -0.243 NA
HETATM    3  C6  UNL     1      26.937   0.434  54.561  1.00  0.00     0.229 A 
HETATM    4  N2  UNL     1      26.798   1.699  54.447  1.00  0.00    -0.255 NA
HETATM    5  C7  UNL     1      25.598   1.985  53.714  1.00  0.00     0.251 A 
ENDROOT
BRANCH   5   6
HETATM    6  N3  UNL     1      25.879   2.569  52.410  1.00  0.00    -0.209 NA
HETATM    7  H9  UNL     1      26.893   2.827  52.366  1.00  0.00     0.149 HD
BRANCH   6   8
HETATM    8  N4  UNL     1      25.044   3.653  52.135  1.00  0.00    -0.319 N 
HETATM    9  H10 UNL     1      25.423   4.564  52.511  1.00  0.00     0.181 HD
BRANCH   8  10
HETATM   10  C8  UNL     1      23.808   3.552  51.427  1.00  0.00     0.044 A 
HETATM   11  C9  UNL     1      22.655   4.025  52.073  1.00  0.00     0.030 A 
HETATM   12  C10 UNL     1      21.404   3.990  51.494  1.00  0.00     0.004 A 
HETATM   13  C11 UNL     1      21.332   3.456  50.219  1.00  0.00     0.019 A 
HETATM   14  C12 UNL     1      22.427   2.968  49.516  1.00  0.00     0.013 A 
HETATM   15 BR1  UNL     1      22.280   2.244  47.758  1.00  0.00    -0.051 Br
HETATM   16  C13 UNL     1      23.658   3.035  50.159  1.00  0.00     0.049 A 
ENDBRANCH   8  10
ENDBRANCH   6   8
ENDBRANCH   5   6
BRANCH   1  17
HETATM   17  C4  UNL     1      23.814   0.405  52.678  1.00  0.00     0.038 C 
HETATM   18  C3  UNL     1      22.590   0.123  53.099  1.00  0.00    -0.031 C 
BRANCH  18  19
HETATM   19  C2  UNL     1      21.470  -0.078  52.113  1.00  0.00     0.203 C 
BRANCH  19  20
HETATM   20  O1  UNL     1      20.434   0.781  52.469  1.00  0.00    -0.392 OA
HETATM   21  C1  UNL     1      19.237   0.372  51.865  1.00  0.00     0.201 C 
ENDBRANCH  19  20
ENDBRANCH  18  19
BRANCH  18  22
HETATM   22  C14 UNL     1      21.959  -0.073  54.414  1.00  0.00     0.203 C 
BRANCH  22  23
HETATM   23  O2  UNL     1      21.956  -1.384  54.863  1.00  0.00    -0.392 OA
HETATM   24  C15 UNL     1      23.107  -1.578  55.625  1.00  0.00     0.201 C 
ENDBRANCH  22  23
ENDBRANCH  18  22
ENDBRANCH   1  17
TORSDOF 8
ENDMDL
MODEL 9
REMARK VINA RESULT:      -5.9      3.070      4.629
REMARK  8 active torsions:
REMARK  status: ('A' for Active; 'I' for Inactive)
REMARK    1  A    between atoms: O1_2  and  C2_3 
REMARK    2  A    between atoms: C2_3  and  C3_4 
REMARK    3  A    between atoms: C3_4  and  C14_20 
REMARK    4  A    between atoms: C4_5  and  C5_6 
REMARK    5  A    between atoms: C7_10  and  N3_11 
REMARK    6  A    between atoms: N3_11  and  N4_12 
REMARK    7  A    between atoms: N4_12  and  C8_13 
REMARK    8  A    between atoms: C14_20  and  O2_21 
ROOT
HETATM    1  C5  UNL     1      23.685   3.684  52.130  1.00  0.00     0.076 A 
HETATM    2  N1  UNL     1      23.897   4.899  51.733  1.00  0.00    -0.243 NA
HETATM    3  C6  UNL     1      22.853   5.261  50.809  1.00  0.00     0.229 A 
HETATM    4  N2  UNL     1      22.040   4.288  50.654  1.00  0.00    -0.255 NA
HETATM    5  C7  UNL     1      22.461   3.178  51.460  1.00  0.00     0.251 A 
ENDROOT
BRANCH   5   6
HETATM    6  N3  UNL     1      22.915   2.055  50.652  1.00  0.00    -0.209 NA
HETATM    7  H9  UNL     1      23.065   2.384  49.669  1.00  0.00     0.149 HD
BRANCH   6   8
HETATM    8  N4  UNL     1      22.034   0.975  50.721  1.00  0.00    -0.319 N 
HETATM    9  H10 UNL     1      21.674   0.683  49.773  1.00  0.00     0.181 HD
BRANCH   8  10
HETATM   10  C8  UNL     1      21.651   0.330  51.936  1.00  0.00     0.044 A 
HETATM   11  C9  UNL     1      20.279   0.140  52.160  1.00  0.00     0.030 A 
HETATM   12  C10 UNL     1      19.782  -0.476  53.290  1.00  0.00     0.004 A 
HETATM   13  C11 UNL     1      20.716  -0.906  54.216  1.00  0.00     0.019 A 
HETATM   14  C12 UNL     1      22.089  -0.754  54.065  1.00  0.00     0.013 A 
HETATM   15 BR1  UNL     1      23.340  -1.368  55.367  1.00  0.00    -0.051 Br
HETATM   16  C13 UNL     1      22.521  -0.126  52.902  1.00  0.00     0.049 A 
ENDBRANCH   8  10
ENDBRANCH   6   8
ENDBRANCH   5   6
BRANCH   1  17
HETATM   17  C4  UNL     1      24.487   2.907  53.066  1.00  0.00     0.038 C 
HETATM   18  C3  UNL     1      25.580   2.183  52.878  1.00  0.00    -0.031 C 
BRANCH  18  19
HETATM   19  C2  UNL     1      26.227   1.464  54.031  1.00  0.00     0.203 C 
BRANCH  19  20
HETATM   20  O1  UNL     1      27.538   1.174  53.668  1.00  0.00    -0.392 OA
HETATM   21  C1  UNL     1      28.105   0.269  54.577  1.00  0.00     0.201 C 
ENDBRANCH  19  20
ENDBRANCH  18  19
BRANCH  18  22
HETATM   22  C14 UNL     1      26.426   1.852  51.720  1.00  0.00     0.203 C 
BRANCH  22  23
HETATM   23  O2  UNL     1      27.047   2.942  51.129  1.00  0.00    -0.392 OA
HETATM   24  C15 UNL     1      26.490   3.116  49.863  1.00  0.00     0.201 C 
ENDBRANCH  22  23
ENDBRANCH  18  22
ENDBRANCH   1  17
TORSDOF 8
ENDMDL
