MODEL 1
REMARK VINA RESULT:      -8.1      0.000      0.000
REMARK  4 active torsions:
REMARK  status: ('A' for Active; 'I' for Inactive)
REMARK    1  A    between atoms: C3_3  and  N1_4 
REMARK    2  A    between atoms: C11_15  and  C12_16 
REMARK    3  A    between atoms: C11_15  and  O2_18 
REMARK    4  A    between atoms: O2_18  and  C13_19 
ROOT
HETATM    1  N1  UNL     1      27.184   0.546  53.296  1.00  0.00    -0.347 N 
HETATM    2  C4  UNL     1      26.492  -0.154  54.352  1.00  0.00     0.381 C 
HETATM    3  N2  UNL     1      25.564  -0.729  54.983  1.00  0.00    -0.368 NA
HETATM    4  C5  UNL     1      24.273  -0.801  54.295  1.00  0.00     0.192 C 
HETATM    5  N3  UNL     1      23.361  -0.201  53.652  1.00  0.00    -0.273 NA
HETATM    6  C6  UNL     1      23.198   1.111  53.243  1.00  0.00     0.181 C 
HETATM    7  C7  UNL     1      24.212   1.788  52.408  1.00  0.00    -0.034 C 
HETATM    8  C8  UNL     1      25.483   1.694  51.962  1.00  0.00     0.011 C 
HETATM    9 BR1  UNL     1      26.533   2.852  50.822  1.00  0.00    -0.054 Br
HETATM   10  C9  UNL     1      26.159   0.381  52.321  1.00  0.00     0.175 C 
HETATM   11  C10 UNL     1      23.084   2.769  52.122  1.00  0.00     0.086 C 
HETATM   12  C11 UNL     1      22.189   1.500  52.212  1.00  0.00     0.150 C 
ENDROOT
BRANCH  12  13
HETATM   13  C12 UNL     1      22.273   0.782  50.932  1.00  0.00     0.272 C 
HETATM   14  O1  UNL     1      21.931   0.737  49.761  1.00  0.00    -0.303 OA
ENDBRANCH  12  13
BRANCH  12  15
HETATM   15  O2  UNL     1      20.919   1.784  52.689  1.00  0.00    -0.330 OA
BRANCH  15  16
HETATM   16  C13 UNL     1      19.862   0.944  52.524  1.00  0.00     0.070 A 
HETATM   17  C14 UNL     1      18.853   1.076  51.596  1.00  0.00     0.040 A 
HETATM   18  C15 UNL     1      17.789   0.204  51.461  1.00  0.00     0.045 A 
HETATM   19  C16 UNL     1      17.709  -0.881  52.305  1.00  0.00     0.116 A 
HETATM   20  F1  UNL     1      16.638  -1.683  52.104  1.00  0.00    -0.206 F 
HETATM   21  C17 UNL     1      18.683  -1.072  53.252  1.00  0.00     0.045 A 
HETATM   22  C18 UNL     1      19.736  -0.174  53.354  1.00  0.00     0.040 A 
ENDBRANCH  15  16
ENDBRANCH  12  15
BRANCH   1  23
HETATM   23  C3  UNL     1      28.200   0.715  54.246  1.00  0.00     0.088 C 
HETATM   24  C2  UNL     1      29.098  -0.241  54.062  1.00  0.00    -0.014 C 
HETATM   25  C1  UNL     1      29.306  -1.387  53.163  1.00  0.00     0.037 C 
ENDBRANCH   1  23
TORSDOF 4
ENDMDL
MODEL 2
REMARK VINA RESULT:      -7.9      3.473      7.298
REMARK  4 active torsions:
REMARK  status: ('A' for Active; 'I' for Inactive)
REMARK    1  A    between atoms: C3_3  and  N1_4 
REMARK    2  A    between atoms: C11_15  and  C12_16 
REMARK    3  A    between atoms: C11_15  and  O2_18 
REMARK    4  A    between atoms: O2_18  and  C13_19 
ROOT
HETATM    1  N1  UNL     1      19.586  -0.073  53.533  1.00  0.00    -0.347 N 
HETATM    2  C4  UNL     1      20.487  -1.124  53.947  1.00  0.00     0.381 C 
HETATM    3  N2  UNL     1      21.557  -1.712  54.262  1.00  0.00    -0.368 NA
HETATM    4  C5  UNL     1      22.771  -0.893  54.220  1.00  0.00     0.192 C 
HETATM    5  N3  UNL     1      23.498  -0.077  53.579  1.00  0.00    -0.273 NA
HETATM    6  C6  UNL     1      23.384   0.512  52.332  1.00  0.00     0.181 C 
HETATM    7  C7  UNL     1      22.193   1.305  51.962  1.00  0.00    -0.034 C 
HETATM    8  C8  UNL     1      20.924   1.585  52.328  1.00  0.00     0.011 C 
HETATM    9 BR1  UNL     1      19.583   2.735  51.540  1.00  0.00    -0.054 Br
HETATM   10  C9  UNL     1      20.531   0.984  53.668  1.00  0.00     0.175 C 
HETATM   11  C10 UNL     1      23.095   1.843  50.860  1.00  0.00     0.086 C 
HETATM   12  C11 UNL     1      24.208   1.695  51.937  1.00  0.00     0.150 C 
ENDROOT
BRANCH  12  13
HETATM   13  C12 UNL     1      24.137   2.854  52.839  1.00  0.00     0.272 C 
HETATM   14  O1  UNL     1      24.584   3.406  53.831  1.00  0.00    -0.303 OA
ENDBRANCH  12  13
BRANCH  12  15
HETATM   15  O2  UNL     1      25.444   1.409  51.381  1.00  0.00    -0.330 OA
BRANCH  15  16
HETATM   16  C13 UNL     1      26.483   0.909  52.103  1.00  0.00     0.070 A 
HETATM   17  C14 UNL     1      26.746  -0.423  52.337  1.00  0.00     0.040 A 
HETATM   18  C15 UNL     1      27.809  -0.895  53.082  1.00  0.00     0.045 A 
HETATM   19  C16 UNL     1      28.681   0.011  53.644  1.00  0.00     0.116 A 
HETATM   20  F1  UNL     1      29.693  -0.536  54.356  1.00  0.00    -0.206 F 
HETATM   21  C17 UNL     1      28.476   1.353  53.448  1.00  0.00     0.045 A 
HETATM   22  C18 UNL     1      27.398   1.787  52.692  1.00  0.00     0.040 A 
ENDBRANCH  15  16
ENDBRANCH  12  15
BRANCH   1  23
HETATM   23  C3  UNL     1      18.648  -1.106  53.397  1.00  0.00     0.088 C 
HETATM   24  C2  UNL     1      17.973  -0.903  52.277  1.00  0.00    -0.014 C 
HETATM   25  C1  UNL     1      17.944   0.078  51.180  1.00  0.00     0.037 C 
ENDBRANCH   1  23
TORSDOF 4
ENDMDL
MODEL 3
REMARK VINA RESULT:      -7.7      5.350      7.970
REMARK  4 active torsions:
REMARK  status: ('A' for Active; 'I' for Inactive)
REMARK    1  A    between atoms: C3_3  and  N1_4 
REMARK    2  A    between atoms: C11_15  and  C12_16 
REMARK    3  A    between atoms: C11_15  and  O2_18 
REMARK    4  A    between atoms: O2_18  and  C13_19 
ROOT
HETATM    1  N1  UNL     1      23.804   0.816  53.095  1.00  0.00    -0.347 N 
HETATM    2  C4  UNL     1      25.137   0.488  52.646  1.00  0.00     0.381 C 
HETATM    3  N2  UNL     1      26.290   0.628  52.154  1.00  0.00    -0.368 NA
HETATM    4  C5  UNL     1      26.626   1.975  51.688  1.00  0.00     0.192 C 
HETATM    5  N3  UNL     1      26.297   2.992  51.009  1.00  0.00    -0.273 NA
HETATM    6  C6  UNL     1      25.186   3.299  50.242  1.00  0.00     0.181 C 
HETATM    7  C7  UNL     1      23.823   3.256  50.812  1.00  0.00    -0.034 C 
HETATM    8  C8  UNL     1      23.106   2.816  51.868  1.00  0.00     0.011 C 
HETATM    9 BR1  UNL     1      21.221   2.946  52.285  1.00  0.00    -0.054 Br
HETATM   10  C9  UNL     1      23.959   2.227  52.980  1.00  0.00     0.175 C 
HETATM   11  C10 UNL     1      23.465   4.099  49.596  1.00  0.00     0.086 C 
HETATM   12  C11 UNL     1      24.885   4.697  49.807  1.00  0.00     0.150 C 
ENDROOT
BRANCH  12  13
HETATM   13  C12 UNL     1      24.811   5.699  50.881  1.00  0.00     0.272 C 
HETATM   14  O1  UNL     1      24.376   6.781  51.240  1.00  0.00    -0.303 OA
ENDBRANCH  12  13
BRANCH  12  15
HETATM   15  O2  UNL     1      25.471   5.096  48.617  1.00  0.00    -0.330 OA
BRANCH  15  16
HETATM   16  C13 UNL     1      26.652   5.769  48.562  1.00  0.00     0.070 A 
HETATM   17  C14 UNL     1      26.812   7.137  48.576  1.00  0.00     0.040 A 
HETATM   18  C15 UNL     1      28.029   7.787  48.513  1.00  0.00     0.045 A 
HETATM   19  C16 UNL     1      29.180   7.035  48.427  1.00  0.00     0.116 A 
HETATM   20  F1  UNL     1      30.327   7.750  48.371  1.00  0.00    -0.206 F 
HETATM   21  C17 UNL     1      29.091   5.666  48.410  1.00  0.00     0.045 A 
HETATM   22  C18 UNL     1      27.849   5.052  48.477  1.00  0.00     0.040 A 
ENDBRANCH  15  16
ENDBRANCH  12  15
BRANCH   1  23
HETATM   23  C3  UNL     1      23.640  -0.571  53.211  1.00  0.00     0.088 C 
HETATM   24  C2  UNL     1      22.525  -0.797  53.889  1.00  0.00    -0.014 C 
HETATM   25  C1  UNL     1      21.455  -0.014  54.527  1.00  0.00     0.037 C 
ENDBRANCH   1  23
TORSDOF 4
ENDMDL
MODEL 4
REMARK VINA RESULT:      -7.5      4.364      7.949
REMARK  4 active torsions:
REMARK  status: ('A' for Active; 'I' for Inactive)
REMARK    1  A    between atoms: C3_3  and  N1_4 
REMARK    2  A    between atoms: C11_15  and  C12_16 
REMARK    3  A    between atoms: C11_15  and  O2_18 
REMARK    4  A    between atoms: O2_18  and  C13_19 
ROOT
HETATM    1  N1  UNL     1      20.783   4.429  49.659  1.00  0.00    -0.347 N 
HETATM    2  C4  UNL     1      21.128   5.488  50.578  1.00  0.00     0.381 C 
HETATM    3  N2  UNL     1      21.809   6.197  51.368  1.00  0.00    -0.368 NA
HETATM    4  C5  UNL     1      23.191   5.763  51.584  1.00  0.00     0.192 C 
HETATM    5  N3  UNL     1      23.994   4.822  51.858  1.00  0.00    -0.273 NA
HETATM    6  C6  UNL     1      23.816   3.476  52.129  1.00  0.00     0.181 C 
HETATM    7  C7  UNL     1      23.119   2.586  51.177  1.00  0.00    -0.034 C 
HETATM    8  C8  UNL     1      22.329   2.579  50.082  1.00  0.00     0.011 C 
HETATM    9 BR1  UNL     1      21.560   1.128  49.061  1.00  0.00    -0.054 Br
HETATM   10  C9  UNL     1      22.115   3.958  49.479  1.00  0.00     0.175 C 
HETATM   11  C10 UNL     1      23.791   1.477  51.976  1.00  0.00     0.086 C 
HETATM   12  C11 UNL     1      24.952   2.505  52.099  1.00  0.00     0.150 C 
ENDROOT
BRANCH  12  13
HETATM   13  C12 UNL     1      25.733   2.473  50.854  1.00  0.00     0.272 C 
HETATM   14  O1  UNL     1      26.703   2.894  50.245  1.00  0.00    -0.303 OA
ENDBRANCH  12  13
BRANCH  12  15
HETATM   15  O2  UNL     1      25.656   2.365  53.284  1.00  0.00    -0.330 OA
BRANCH  15  16
HETATM   16  C13 UNL     1      26.773   1.597  53.394  1.00  0.00     0.070 A 
HETATM   17  C14 UNL     1      26.830   0.223  53.310  1.00  0.00     0.040 A 
HETATM   18  C15 UNL     1      27.985  -0.525  53.433  1.00  0.00     0.045 A 
HETATM   19  C16 UNL     1      29.177   0.126  53.658  1.00  0.00     0.116 A 
HETATM   20  F1  UNL     1      30.258  -0.681  53.765  1.00  0.00    -0.206 F 
HETATM   21  C17 UNL     1      29.191   1.495  53.752  1.00  0.00     0.045 A 
HETATM   22  C18 UNL     1      28.009   2.210  53.621  1.00  0.00     0.040 A 
ENDBRANCH  15  16
ENDBRANCH  12  15
BRANCH   1  23
HETATM   23  C3  UNL     1      19.468   4.884  49.828  1.00  0.00     0.088 C 
HETATM   24  C2  UNL     1      18.872   4.099  50.712  1.00  0.00    -0.014 C 
HETATM   25  C1  UNL     1      19.207   2.924  51.532  1.00  0.00     0.037 C 
ENDBRANCH   1  23
TORSDOF 4
ENDMDL
MODEL 5
REMARK VINA RESULT:      -7.2      3.610      7.631
REMARK  4 active torsions:
REMARK  status: ('A' for Active; 'I' for Inactive)
REMARK    1  A    between atoms: C3_3  and  N1_4 
REMARK    2  A    between atoms: C11_15  and  C12_16 
REMARK    3  A    between atoms: C11_15  and  O2_18 
REMARK    4  A    between atoms: O2_18  and  C13_19 
ROOT
HETATM    1  N1  UNL     1      18.885   2.083  51.717  1.00  0.00    -0.347 N 
HETATM    2  C4  UNL     1      19.242   0.760  52.174  1.00  0.00     0.381 C 
HETATM    3  N2  UNL     1      19.934  -0.188  52.636  1.00  0.00    -0.368 NA
HETATM    4  C5  UNL     1      21.320   0.141  52.976  1.00  0.00     0.192 C 
HETATM    5  N3  UNL     1      22.417   0.670  52.628  1.00  0.00    -0.273 NA
HETATM    6  C6  UNL     1      22.832   1.320  51.478  1.00  0.00     0.181 C 
HETATM    7  C7  UNL     1      22.113   2.504  50.964  1.00  0.00    -0.034 C 
HETATM    8  C8  UNL     1      20.964   3.205  51.074  1.00  0.00     0.011 C 
HETATM    9 BR1  UNL     1      20.337   4.796  50.171  1.00  0.00    -0.054 Br
HETATM   10  C9  UNL     1      20.063   2.722  52.200  1.00  0.00     0.175 C 
HETATM   11  C10 UNL     1      23.394   2.734  50.173  1.00  0.00     0.086 C 
HETATM   12  C11 UNL     1      24.077   2.144  51.440  1.00  0.00     0.150 C 
ENDROOT
BRANCH  12  13
HETATM   13  C12 UNL     1      24.173   3.207  52.452  1.00  0.00     0.272 C 
HETATM   14  O1  UNL     1      24.228   3.487  53.638  1.00  0.00    -0.303 OA
ENDBRANCH  12  13
BRANCH  12  15
HETATM   15  O2  UNL     1      25.243   1.460  51.138  1.00  0.00    -0.330 OA
BRANCH  15  16
HETATM   16  C13 UNL     1      26.164   1.116  52.079  1.00  0.00     0.070 A 
HETATM   17  C14 UNL     1      27.371   1.741  52.305  1.00  0.00     0.040 A 
HETATM   18  C15 UNL     1      28.285   1.359  53.268  1.00  0.00     0.045 A 
HETATM   19  C16 UNL     1      27.993   0.278  54.070  1.00  0.00     0.116 A 
HETATM   20  F1  UNL     1      28.941  -0.027  54.986  1.00  0.00    -0.206 F 
HETATM   21  C17 UNL     1      26.806  -0.388  53.897  1.00  0.00     0.045 A 
HETATM   22  C18 UNL     1      25.914   0.028  52.920  1.00  0.00     0.040 A 
ENDBRANCH  15  16
ENDBRANCH  12  15
BRANCH   1  23
HETATM   23  C3  UNL     1      17.722   1.465  51.238  1.00  0.00     0.088 C 
HETATM   24  C2  UNL     1      16.731   2.338  51.317  1.00  0.00    -0.014 C 
HETATM   25  C1  UNL     1      16.530   3.728  51.755  1.00  0.00     0.037 C 
ENDBRANCH   1  23
TORSDOF 4
ENDMDL
MODEL 6
REMARK VINA RESULT:      -6.8      3.969      5.205
REMARK  4 active torsions:
REMARK  status: ('A' for Active; 'I' for Inactive)
REMARK    1  A    between atoms: C3_3  and  N1_4 
REMARK    2  A    between atoms: C11_15  and  C12_16 
REMARK    3  A    between atoms: C11_15  and  O2_18 
REMARK    4  A    between atoms: O2_18  and  C13_19 
ROOT
HETATM    1  N1  UNL     1      26.029   0.525  52.701  1.00  0.00    -0.347 N 
HETATM    2  C4  UNL     1      26.621   1.444  51.757  1.00  0.00     0.381 C 
HETATM    3  N2  UNL     1      26.743   2.428  50.979  1.00  0.00    -0.368 NA
HETATM    4  C5  UNL     1      25.575   3.305  50.871  1.00  0.00     0.192 C 
HETATM    5  N3  UNL     1      24.326   3.417  50.692  1.00  0.00    -0.273 NA
HETATM    6  C6  UNL     1      23.315   2.497  50.474  1.00  0.00     0.181 C 
HETATM    7  C7  UNL     1      23.067   1.390  51.421  1.00  0.00    -0.034 C 
HETATM    8  C8  UNL     1      23.601   0.717  52.463  1.00  0.00     0.011 C 
HETATM    9 BR1  UNL     1      22.943  -0.776  53.501  1.00  0.00    -0.054 Br
HETATM   10  C9  UNL     1      24.890   1.330  52.986  1.00  0.00     0.175 C 
HETATM   11  C10 UNL     1      21.717   1.311  50.720  1.00  0.00     0.086 C 
HETATM   12  C11 UNL     1      21.872   2.856  50.621  1.00  0.00     0.150 C 
ENDROOT
BRANCH  12  13
HETATM   13  C12 UNL     1      21.487   3.443  51.914  1.00  0.00     0.272 C 
HETATM   14  O1  UNL     1      20.579   3.720  52.680  1.00  0.00    -0.303 OA
ENDBRANCH  12  13
BRANCH  12  15
HETATM   15  O2  UNL     1      21.262   3.375  49.491  1.00  0.00    -0.330 OA
BRANCH  15  16
HETATM   16  C13 UNL     1      21.008   4.702  49.331  1.00  0.00     0.070 A 
HETATM   17  C14 UNL     1      21.942   5.687  49.095  1.00  0.00     0.040 A 
HETATM   18  C15 UNL     1      21.647   7.029  48.943  1.00  0.00     0.045 A 
HETATM   19  C16 UNL     1      20.334   7.434  49.032  1.00  0.00     0.116 A 
HETATM   20  F1  UNL     1      20.134   8.763  48.870  1.00  0.00    -0.206 F 
HETATM   21  C17 UNL     1      19.355   6.502  49.264  1.00  0.00     0.045 A 
HETATM   22  C18 UNL     1      19.692   5.165  49.409  1.00  0.00     0.040 A 
ENDBRANCH  15  16
ENDBRANCH  12  15
BRANCH   1  23
HETATM   23  C3  UNL     1      27.146  -0.276  52.428  1.00  0.00     0.088 C 
HETATM   24  C2  UNL     1      27.891  -0.329  53.521  1.00  0.00    -0.014 C 
HETATM   25  C1  UNL     1      27.861   0.206  54.892  1.00  0.00     0.037 C 
ENDBRANCH   1  23
TORSDOF 4
ENDMDL
MODEL 7
REMARK VINA RESULT:      -6.8      2.567      3.659
REMARK  4 active torsions:
REMARK  status: ('A' for Active; 'I' for Inactive)
REMARK    1  A    between atoms: C3_3  and  N1_4 
REMARK    2  A    between atoms: C11_15  and  C12_16 
REMARK    3  A    between atoms: C11_15  and  O2_18 
REMARK    4  A    between atoms: O2_18  and  C13_19 
ROOT
HETATM    1  N1  UNL     1      23.924   0.017  53.044  1.00  0.00    -0.347 N 
HETATM    2  C4  UNL     1      22.845  -0.627  53.756  1.00  0.00     0.381 C 
HETATM    3  N2  UNL     1      21.674  -0.969  54.077  1.00  0.00    -0.368 NA
HETATM    4  C5  UNL     1      20.598  -0.401  53.263  1.00  0.00     0.192 C 
HETATM    5  N3  UNL     1      20.071   0.625  52.737  1.00  0.00    -0.273 NA
HETATM    6  C6  UNL     1      20.414   1.966  52.732  1.00  0.00     0.181 C 
HETATM    7  C7  UNL     1      21.738   2.419  52.258  1.00  0.00    -0.034 C 
HETATM    8  C8  UNL     1      22.980   1.991  51.946  1.00  0.00     0.011 C 
HETATM    9 BR1  UNL     1      24.551   2.940  51.333  1.00  0.00    -0.054 Br
HETATM   10  C9  UNL     1      23.123   0.477  51.960  1.00  0.00     0.175 C 
HETATM   11  C10 UNL     1      21.057   3.778  52.163  1.00  0.00     0.086 C 
HETATM   12  C11 UNL     1      19.813   2.933  51.765  1.00  0.00     0.150 C 
ENDROOT
BRANCH  12  13
HETATM   13  C12 UNL     1      19.933   2.574  50.343  1.00  0.00     0.272 C 
HETATM   14  O1  UNL     1      19.696   1.752  49.474  1.00  0.00    -0.303 OA
ENDBRANCH  12  13
BRANCH  12  15
HETATM   15  O2  UNL     1      18.626   3.525  52.163  1.00  0.00    -0.330 OA
BRANCH  15  16
HETATM   16  C13 UNL     1      17.430   3.258  51.570  1.00  0.00     0.070 A 
HETATM   17  C14 UNL     1      16.791   2.038  51.537  1.00  0.00     0.040 A 
HETATM   18  C15 UNL     1      15.578   1.803  50.919  1.00  0.00     0.045 A 
HETATM   19  C16 UNL     1      14.944   2.847  50.282  1.00  0.00     0.116 A 
HETATM   20  F1  UNL     1      13.762   2.530  49.704  1.00  0.00    -0.206 F 
HETATM   21  C17 UNL     1      15.527   4.089  50.279  1.00  0.00     0.045 A 
HETATM   22  C18 UNL     1      16.745   4.284  50.912  1.00  0.00     0.040 A 
ENDBRANCH  15  16
ENDBRANCH  12  15
BRANCH   1  23
HETATM   23  C3  UNL     1      24.721  -0.430  54.106  1.00  0.00     0.088 C 
HETATM   24  C2  UNL     1      25.936  -0.666  53.637  1.00  0.00    -0.014 C 
HETATM   25  C1  UNL     1      26.646  -0.586  52.350  1.00  0.00     0.037 C 
ENDBRANCH   1  23
TORSDOF 4
ENDMDL
MODEL 8
REMARK VINA RESULT:      -6.7      4.144      8.257
REMARK  4 active torsions:
REMARK  status: ('A' for Active; 'I' for Inactive)
REMARK    1  A    between atoms: C3_3  and  N1_4 
REMARK    2  A    between atoms: C11_15  and  C12_16 
REMARK    3  A    between atoms: C11_15  and  O2_18 
REMARK    4  A    between atoms: O2_18  and  C13_19 
ROOT
HETATM    1  N1  UNL     1      16.511   1.957  51.691  1.00  0.00    -0.347 N 
HETATM    2  C4  UNL     1      17.029   3.306  51.681  1.00  0.00     0.381 C 
HETATM    3  N2  UNL     1      17.849   4.260  51.594  1.00  0.00    -0.368 NA
HETATM    4  C5  UNL     1      19.238   3.884  51.324  1.00  0.00     0.192 C 
HETATM    5  N3  UNL     1      20.234   3.157  51.617  1.00  0.00    -0.273 NA
HETATM    6  C6  UNL     1      20.436   2.168  52.564  1.00  0.00     0.181 C 
HETATM    7  C7  UNL     1      19.565   0.977  52.629  1.00  0.00    -0.034 C 
HETATM    8  C8  UNL     1      18.389   0.471  52.196  1.00  0.00     0.011 C 
HETATM    9 BR1  UNL     1      17.524  -1.228  52.521  1.00  0.00    -0.054 Br
HETATM   10  C9  UNL     1      17.690   1.350  51.171  1.00  0.00     0.175 C 
HETATM   11  C10 UNL     1      20.705   0.390  53.450  1.00  0.00     0.086 C 
HETATM   12  C11 UNL     1      21.597   1.230  52.492  1.00  0.00     0.150 C 
ENDROOT
BRANCH  12  13
HETATM   13  C12 UNL     1      21.746   0.490  51.230  1.00  0.00     0.272 C 
HETATM   14  O1  UNL     1      21.463   0.424  50.045  1.00  0.00    -0.303 OA
ENDBRANCH  12  13
BRANCH  12  15
HETATM   15  O2  UNL     1      22.762   1.665  53.104  1.00  0.00    -0.330 OA
BRANCH  15  16
HETATM   16  C13 UNL     1      23.968   1.069  52.906  1.00  0.00     0.070 A 
HETATM   17  C14 UNL     1      24.966   1.509  52.065  1.00  0.00     0.040 A 
HETATM   18  C15 UNL     1      26.180   0.874  51.884  1.00  0.00     0.045 A 
HETATM   19  C16 UNL     1      26.432  -0.287  52.582  1.00  0.00     0.116 A 
HETATM   20  F1  UNL     1      27.643  -0.843  52.347  1.00  0.00    -0.206 F 
HETATM   21  C17 UNL     1      25.480  -0.779  53.437  1.00  0.00     0.045 A 
HETATM   22  C18 UNL     1      24.275  -0.110  53.592  1.00  0.00     0.040 A 
ENDBRANCH  15  16
ENDBRANCH  12  15
BRANCH   1  23
HETATM   23  C3  UNL     1      15.346   2.544  52.202  1.00  0.00     0.088 C 
HETATM   24  C2  UNL     1      14.355   1.678  52.063  1.00  0.00    -0.014 C 
HETATM   25  C1  UNL     1      14.156   0.319  51.536  1.00  0.00     0.037 C 
ENDBRANCH   1  23
TORSDOF 4
ENDMDL
MODEL 9
REMARK VINA RESULT:      -6.7      2.293      2.807
REMARK  4 active torsions:
REMARK  status: ('A' for Active; 'I' for Inactive)
REMARK    1  A    between atoms: C3_3  and  N1_4 
REMARK    2  A    between atoms: C11_15  and  C12_16 
REMARK    3  A    between atoms: C11_15  and  O2_18 
REMARK    4  A    between atoms: O2_18  and  C13_19 
ROOT
HETATM    1  N1  UNL     1      26.314  -0.033  53.819  1.00  0.00    -0.347 N 
HETATM    2  C4  UNL     1      25.329  -0.640  54.684  1.00  0.00     0.381 C 
HETATM    3  N2  UNL     1      24.214  -1.053  55.104  1.00  0.00    -0.368 NA
HETATM    4  C5  UNL     1      23.073  -0.825  54.214  1.00  0.00     0.192 C 
HETATM    5  N3  UNL     1      22.416  -0.019  53.491  1.00  0.00    -0.273 NA
HETATM    6  C6  UNL     1      22.576   1.321  53.182  1.00  0.00     0.181 C 
HETATM    7  C7  UNL     1      23.828   1.828  52.584  1.00  0.00    -0.034 C 
HETATM    8  C8  UNL     1      25.117   1.508  52.340  1.00  0.00     0.011 C 
HETATM    9 BR1  UNL     1      26.548   2.495  51.492  1.00  0.00    -0.054 Br
HETATM   10  C9  UNL     1      25.461   0.067  52.682  1.00  0.00     0.175 C 
HETATM   11  C10 UNL     1      22.972   3.030  52.212  1.00  0.00     0.086 C 
HETATM   12  C11 UNL     1      21.853   1.963  52.043  1.00  0.00     0.150 C 
ENDROOT
BRANCH  12  13
HETATM   13  C12 UNL     1      22.023   1.318  50.732  1.00  0.00     0.272 C 
HETATM   14  O1  UNL     1      21.564   0.547  49.905  1.00  0.00    -0.303 OA
ENDBRANCH  12  13
BRANCH  12  15
HETATM   15  O2  UNL     1      20.596   2.467  52.334  1.00  0.00    -0.330 OA
BRANCH  15  16
HETATM   16  C13 UNL     1      19.821   3.100  51.413  1.00  0.00     0.070 A 
HETATM   17  C14 UNL     1      20.032   4.361  50.898  1.00  0.00     0.040 A 
HETATM   18  C15 UNL     1      19.219   4.976  49.966  1.00  0.00     0.045 A 
HETATM   19  C16 UNL     1      18.110   4.302  49.505  1.00  0.00     0.116 A 
HETATM   20  F1  UNL     1      17.370   4.976  48.594  1.00  0.00    -0.206 F 
HETATM   21  C17 UNL     1      17.842   3.042  49.977  1.00  0.00     0.045 A 
HETATM   22  C18 UNL     1      18.685   2.459  50.911  1.00  0.00     0.040 A 
ENDBRANCH  15  16
ENDBRANCH  12  15
BRANCH   1  23
HETATM   23  C3  UNL     1      27.162  -0.126  54.931  1.00  0.00     0.088 C 
HETATM   24  C2  UNL     1      28.409   0.016  54.510  1.00  0.00    -0.014 C 
HETATM   25  C1  UNL     1      29.115   0.237  53.238  1.00  0.00     0.037 C 
ENDBRANCH   1  23
TORSDOF 4
ENDMDL
