MODEL 1
REMARK VINA RESULT:      -8.1      0.000      0.000
REMARK  3 active torsions:
REMARK  status: ('A' for Active; 'I' for Inactive)
REMARK    1  A    between atoms: C3_3  and  C5_5 
REMARK    2  A    between atoms: C5_5  and  N1_6 
REMARK    3  A    between atoms: N1_6  and  C6_7 
ROOT
HETATM    1  C6  UNL     1      25.561   2.700  51.316  1.00  0.00     0.132 C 
HETATM    2  N2  UNL     1      24.330   2.272  51.062  1.00  0.00    -0.232 NA
HETATM    3  C7  UNL     1      23.359   2.888  51.967  1.00  0.00     0.057 C 
HETATM    4  C8  UNL     1      23.960   3.742  52.814  1.00  0.00     0.010 C 
HETATM    5  C9  UNL     1      24.915   2.769  53.466  1.00  0.00     0.073 C 
HETATM    6  C10 UNL     1      25.315   1.729  52.427  1.00  0.00     0.009 C 
HETATM    7  C11 UNL     1      25.440   0.405  52.510  1.00  0.00     0.127 C 
HETATM    8  N3  UNL     1      25.050  -0.076  53.830  1.00  0.00    -0.274 NA
HETATM    9  C12 UNL     1      23.819  -0.561  53.939  1.00  0.00     0.127 C 
HETATM   10  C13 UNL     1      22.589  -1.166  54.522  1.00  0.00     0.228 C 
HETATM   11  F1  UNL     1      22.876  -1.561  55.859  1.00  0.00    -0.242 F 
HETATM   12  C14 UNL     1      21.449  -0.206  54.621  1.00  0.00     0.162 C 
HETATM   13  N4  UNL     1      21.050   0.443  53.406  1.00  0.00    -0.396 N 
HETATM   14  C15 UNL     1      21.781   1.407  52.664  1.00  0.00     0.085 C 
HETATM   15  C16 UNL     1      22.061   2.236  51.669  1.00  0.00     0.048 C 
HETATM   16  H19 UNL     1      20.136   0.279  52.899  1.00  0.00     0.159 HD
ENDROOT
BRANCH   1  17
HETATM   17  N1  UNL     1      26.513   3.576  50.804  1.00  0.00    -0.370 N 
HETATM   18  H10 UNL     1      27.107   3.722  51.662  1.00  0.00     0.161 HD
BRANCH  17  19
HETATM   19  C5  UNL     1      26.237   3.836  49.432  1.00  0.00     0.154 C 
BRANCH  19  20
HETATM   20  C3  UNL     1      26.808   5.083  48.877  1.00  0.00    -0.070 C 
HETATM   21  C2  UNL     1      28.120   5.034  48.522  1.00  0.00    -0.027 C 
HETATM   22  C1  UNL     1      28.759   6.270  47.963  1.00  0.00     0.036 C 
HETATM   23  C4  UNL     1      26.134   6.387  48.669  1.00  0.00     0.044 C 
ENDBRANCH  19  20
ENDBRANCH  17  19
ENDBRANCH   1  17
TORSDOF 3
ENDMDL
MODEL 2
REMARK VINA RESULT:      -7.8      1.585      3.080
REMARK  3 active torsions:
REMARK  status: ('A' for Active; 'I' for Inactive)
REMARK    1  A    between atoms: C3_3  and  C5_5 
REMARK    2  A    between atoms: C5_5  and  N1_6 
REMARK    3  A    between atoms: N1_6  and  C6_7 
ROOT
HETATM    1  C6  UNL     1      26.314   2.300  52.260  1.00  0.00     0.132 C 
HETATM    2  N2  UNL     1      26.334   1.948  53.540  1.00  0.00    -0.232 NA
HETATM    3  C7  UNL     1      26.757   0.556  53.700  1.00  0.00     0.057 C 
HETATM    4  C8  UNL     1      27.032  -0.007  52.510  1.00  0.00     0.010 C 
HETATM    5  C9  UNL     1      25.680   0.182  51.861  1.00  0.00     0.073 C 
HETATM    6  C10 UNL     1      25.074   1.473  52.394  1.00  0.00     0.009 C 
HETATM    7  C11 UNL     1      23.838   1.764  52.800  1.00  0.00     0.127 C 
HETATM    8  N3  UNL     1      22.983   0.583  52.763  1.00  0.00    -0.274 NA
HETATM    9  C12 UNL     1      22.810  -0.053  53.916  1.00  0.00     0.127 C 
HETATM   10  C13 UNL     1      22.341  -1.049  54.919  1.00  0.00     0.228 C 
HETATM   11  F1  UNL     1      21.392  -1.904  54.290  1.00  0.00    -0.242 F 
HETATM   12  C14 UNL     1      23.429  -1.947  55.410  1.00  0.00     0.162 C 
HETATM   13  N4  UNL     1      24.582  -1.309  55.974  1.00  0.00    -0.396 N 
HETATM   14  C15 UNL     1      25.552  -0.526  55.296  1.00  0.00     0.085 C 
HETATM   15  C16 UNL     1      26.613   0.254  55.144  1.00  0.00     0.048 C 
HETATM   16  H19 UNL     1      24.860  -1.343  56.995  1.00  0.00     0.159 HD
ENDROOT
BRANCH   1  17
HETATM   17  N1  UNL     1      27.061   3.030  51.342  1.00  0.00    -0.370 N 
HETATM   18  H10 UNL     1      27.909   3.249  51.929  1.00  0.00     0.161 HD
BRANCH  17  19
HETATM   19  C5  UNL     1      26.353   3.121  50.111  1.00  0.00     0.154 C 
BRANCH  19  20
HETATM   20  C3  UNL     1      26.535   4.373  49.345  1.00  0.00    -0.070 C 
HETATM   21  C2  UNL     1      25.457   5.199  49.283  1.00  0.00    -0.027 C 
HETATM   22  C1  UNL     1      25.576   6.479  48.511  1.00  0.00     0.036 C 
HETATM   23  C4  UNL     1      27.744   4.839  48.623  1.00  0.00     0.044 C 
ENDBRANCH  19  20
ENDBRANCH  17  19
ENDBRANCH   1  17
TORSDOF 3
ENDMDL
MODEL 3
REMARK VINA RESULT:      -7.6      3.155      5.532
REMARK  3 active torsions:
REMARK  status: ('A' for Active; 'I' for Inactive)
REMARK    1  A    between atoms: C3_3  and  C5_5 
REMARK    2  A    between atoms: C5_5  and  N1_6 
REMARK    3  A    between atoms: N1_6  and  C6_7 
ROOT
HETATM    1  C6  UNL     1      24.833   2.145  52.998  1.00  0.00     0.132 C 
HETATM    2  N2  UNL     1      25.954   2.276  53.699  1.00  0.00    -0.232 NA
HETATM    3  C7  UNL     1      27.103   2.497  52.821  1.00  0.00     0.057 C 
HETATM    4  C8  UNL     1      26.729   2.526  51.530  1.00  0.00     0.010 C 
HETATM    5  C9  UNL     1      26.116   1.146  51.448  1.00  0.00     0.073 C 
HETATM    6  C10 UNL     1      25.501   0.820  52.803  1.00  0.00     0.009 C 
HETATM    7  C11 UNL     1      25.524  -0.294  53.534  1.00  0.00     0.127 C 
HETATM    8  N3  UNL     1      26.350  -1.317  52.905  1.00  0.00    -0.274 NA
HETATM    9  C12 UNL     1      27.590  -1.436  53.366  1.00  0.00     0.127 C 
HETATM   10  C13 UNL     1      28.989  -1.918  53.539  1.00  0.00     0.228 C 
HETATM   11  F1  UNL     1      29.174  -3.060  52.710  1.00  0.00    -0.242 F 
HETATM   12  C14 UNL     1      30.014  -0.926  53.094  1.00  0.00     0.162 C 
HETATM   13  N4  UNL     1      29.951   0.374  53.695  1.00  0.00    -0.396 N 
HETATM   14  C15 UNL     1      28.943   1.357  53.518  1.00  0.00     0.085 C 
HETATM   15  C16 UNL     1      28.292   2.496  53.707  1.00  0.00     0.048 C 
HETATM   16  H19 UNL     1      30.669   0.773  54.362  1.00  0.00     0.159 HD
ENDROOT
BRANCH   1  17
HETATM   17  N1  UNL     1      23.696   2.870  52.657  1.00  0.00    -0.370 N 
HETATM   18  H10 UNL     1      24.010   3.839  52.928  1.00  0.00     0.161 HD
BRANCH  17  19
HETATM   19  C5  UNL     1      22.707   1.993  52.131  1.00  0.00     0.154 C 
BRANCH  19  20
HETATM   20  C3  UNL     1      22.558   1.987  50.659  1.00  0.00    -0.070 C 
HETATM   21  C2  UNL     1      21.656   1.103  50.153  1.00  0.00    -0.027 C 
HETATM   22  C1  UNL     1      21.468   1.041  48.667  1.00  0.00     0.036 C 
HETATM   23  C4  UNL     1      23.276   2.815  49.661  1.00  0.00     0.044 C 
ENDBRANCH  19  20
ENDBRANCH  17  19
ENDBRANCH   1  17
TORSDOF 3
ENDMDL
MODEL 4
REMARK VINA RESULT:      -7.4      3.040      6.258
REMARK  3 active torsions:
REMARK  status: ('A' for Active; 'I' for Inactive)
REMARK    1  A    between atoms: C3_3  and  C5_5 
REMARK    2  A    between atoms: C5_5  and  N1_6 
REMARK    3  A    between atoms: N1_6  and  C6_7 
ROOT
HETATM    1  C6  UNL     1      24.217   1.317  52.504  1.00  0.00     0.132 C 
HETATM    2  N2  UNL     1      24.208   2.571  52.941  1.00  0.00    -0.232 NA
HETATM    3  C7  UNL     1      23.120   3.336  52.331  1.00  0.00     0.057 C 
HETATM    4  C8  UNL     1      22.398   2.570  51.495  1.00  0.00     0.010 C 
HETATM    5  C9  UNL     1      23.508   2.169  50.551  1.00  0.00     0.073 C 
HETATM    6  C10 UNL     1      24.799   2.072  51.351  1.00  0.00     0.009 C 
HETATM    7  C11 UNL     1      26.037   2.488  51.080  1.00  0.00     0.127 C 
HETATM    8  N3  UNL     1      26.081   3.209  49.814  1.00  0.00    -0.274 NA
HETATM    9  C12 UNL     1      26.055   4.534  49.892  1.00  0.00     0.127 C 
HETATM   10  C13 UNL     1      26.047   5.969  49.493  1.00  0.00     0.228 C 
HETATM   11  F1  UNL     1      26.256   6.044  48.086  1.00  0.00    -0.242 F 
HETATM   12  C14 UNL     1      24.738   6.644  49.742  1.00  0.00     0.162 C 
HETATM   13  N4  UNL     1      24.234   6.589  51.083  1.00  0.00    -0.396 N 
HETATM   14  C15 UNL     1      23.763   5.447  51.781  1.00  0.00     0.085 C 
HETATM   15  C16 UNL     1      23.299   4.733  52.797  1.00  0.00     0.048 C 
HETATM   16  H19 UNL     1      24.148   7.417  51.737  1.00  0.00     0.159 HD
ENDROOT
BRANCH   1  17
HETATM   17  N1  UNL     1      23.862   0.039  52.923  1.00  0.00    -0.370 N 
HETATM   18  H10 UNL     1      23.066  -0.156  52.260  1.00  0.00     0.161 HD
BRANCH  17  19
HETATM   19  C5  UNL     1      24.709  -0.369  53.991  1.00  0.00     0.154 C 
BRANCH  19  20
HETATM   20  C3  UNL     1      26.153  -0.456  53.682  1.00  0.00    -0.070 C 
HETATM   21  C2  UNL     1      26.992   0.150  54.564  1.00  0.00    -0.027 C 
HETATM   22  C1  UNL     1      28.467   0.106  54.300  1.00  0.00     0.036 C 
HETATM   23  C4  UNL     1      26.804  -1.112  52.523  1.00  0.00     0.044 C 
ENDBRANCH  19  20
ENDBRANCH  17  19
ENDBRANCH   1  17
TORSDOF 3
ENDMDL
MODEL 5
REMARK VINA RESULT:      -7.1      2.524      3.912
REMARK  3 active torsions:
REMARK  status: ('A' for Active; 'I' for Inactive)
REMARK    1  A    between atoms: C3_3  and  C5_5 
REMARK    2  A    between atoms: C5_5  and  N1_6 
REMARK    3  A    between atoms: N1_6  and  C6_7 
ROOT
HETATM    1  C6  UNL     1      23.873   2.519  50.815  1.00  0.00     0.132 C 
HETATM    2  N2  UNL     1      24.009   1.294  51.308  1.00  0.00    -0.232 NA
HETATM    3  C7  UNL     1      23.792   1.279  52.755  1.00  0.00     0.057 C 
HETATM    4  C8  UNL     1      23.496   2.508  53.214  1.00  0.00     0.010 C 
HETATM    5  C9  UNL     1      24.750   3.219  52.760  1.00  0.00     0.073 C 
HETATM    6  C10 UNL     1      25.220   2.572  51.464  1.00  0.00     0.009 C 
HETATM    7  C11 UNL     1      26.436   2.219  51.046  1.00  0.00     0.127 C 
HETATM    8  N3  UNL     1      27.434   2.460  52.081  1.00  0.00    -0.274 NA
HETATM    9  C12 UNL     1      27.789   1.409  52.811  1.00  0.00     0.127 C 
HETATM   10  C13 UNL     1      28.470   0.570  53.836  1.00  0.00     0.228 C 
HETATM   11  F1  UNL     1      29.469   1.363  54.470  1.00  0.00    -0.242 F 
HETATM   12  C14 UNL     1      27.558   0.121  54.931  1.00  0.00     0.162 C 
HETATM   13  N4  UNL     1      26.382  -0.595  54.532  1.00  0.00    -0.396 N 
HETATM   14  C15 UNL     1      25.261  -0.086  53.826  1.00  0.00     0.085 C 
HETATM   15  C16 UNL     1      24.096  -0.104  53.194  1.00  0.00     0.048 C 
HETATM   16  H19 UNL     1      26.199  -1.620  54.721  1.00  0.00     0.159 HD
ENDROOT
BRANCH   1  17
HETATM   17  N1  UNL     1      22.959   3.287  50.100  1.00  0.00    -0.370 N 
HETATM   18  H10 UNL     1      22.167   3.322  50.795  1.00  0.00     0.161 HD
BRANCH  17  19
HETATM   19  C5  UNL     1      23.512   3.638  48.837  1.00  0.00     0.154 C 
BRANCH  19  20
HETATM   20  C3  UNL     1      24.120   4.983  48.742  1.00  0.00    -0.070 C 
HETATM   21  C2  UNL     1      23.311   5.974  48.280  1.00  0.00    -0.027 C 
HETATM   22  C1  UNL     1      23.873   7.358  48.151  1.00  0.00     0.036 C 
HETATM   23  C4  UNL     1      25.506   5.389  49.076  1.00  0.00     0.044 C 
ENDBRANCH  19  20
ENDBRANCH  17  19
ENDBRANCH   1  17
TORSDOF 3
ENDMDL
MODEL 6
REMARK VINA RESULT:      -7.1      2.999      3.509
REMARK  3 active torsions:
REMARK  status: ('A' for Active; 'I' for Inactive)
REMARK    1  A    between atoms: C3_3  and  C5_5 
REMARK    2  A    between atoms: C5_5  and  N1_6 
REMARK    3  A    between atoms: N1_6  and  C6_7 
ROOT
HETATM    1  C6  UNL     1      25.086   3.932  50.533  1.00  0.00     0.132 C 
HETATM    2  N2  UNL     1      23.993   4.583  50.913  1.00  0.00    -0.232 NA
HETATM    3  C7  UNL     1      23.445   4.023  52.148  1.00  0.00     0.057 C 
HETATM    4  C8  UNL     1      24.198   3.001  52.593  1.00  0.00     0.010 C 
HETATM    5  C9  UNL     1      24.089   2.106  51.379  1.00  0.00     0.073 C 
HETATM    6  C10 UNL     1      23.990   2.991  50.144  1.00  0.00     0.009 C 
HETATM    7  C11 UNL     1      23.211   2.912  49.066  1.00  0.00     0.127 C 
HETATM    8  N3  UNL     1      22.269   1.805  49.179  1.00  0.00    -0.274 NA
HETATM    9  C12 UNL     1      21.043   2.116  49.581  1.00  0.00     0.127 C 
HETATM   10  C13 UNL     1      19.613   1.982  49.979  1.00  0.00     0.228 C 
HETATM   11  F1  UNL     1      19.210   0.636  49.747  1.00  0.00    -0.242 F 
HETATM   12  C14 UNL     1      19.380   2.227  51.433  1.00  0.00     0.162 C 
HETATM   13  N4  UNL     1      19.833   3.485  51.952  1.00  0.00    -0.396 N 
HETATM   14  C15 UNL     1      21.174   3.920  52.108  1.00  0.00     0.085 C 
HETATM   15  C16 UNL     1      22.173   4.745  52.389  1.00  0.00     0.048 C 
HETATM   16  H19 UNL     1      19.205   4.265  52.293  1.00  0.00     0.159 HD
ENDROOT
BRANCH   1  17
HETATM   17  N1  UNL     1      26.469   4.081  50.528  1.00  0.00    -0.370 N 
HETATM   18  H10 UNL     1      26.649   4.157  51.564  1.00  0.00     0.161 HD
BRANCH  17  19
HETATM   19  C5  UNL     1      26.949   4.055  49.189  1.00  0.00     0.154 C 
BRANCH  19  20
HETATM   20  C3  UNL     1      27.405   5.349  48.635  1.00  0.00    -0.070 C 
HETATM   21  C2  UNL     1      28.727   5.436  48.327  1.00  0.00    -0.027 C 
HETATM   22  C1  UNL     1      29.251   6.726  47.772  1.00  0.00     0.036 C 
HETATM   23  C4  UNL     1      26.604   6.571  48.382  1.00  0.00     0.044 C 
ENDBRANCH  19  20
ENDBRANCH  17  19
ENDBRANCH   1  17
TORSDOF 3
ENDMDL
MODEL 7
REMARK VINA RESULT:      -6.9      3.879      6.006
REMARK  3 active torsions:
REMARK  status: ('A' for Active; 'I' for Inactive)
REMARK    1  A    between atoms: C3_3  and  C5_5 
REMARK    2  A    between atoms: C5_5  and  N1_6 
REMARK    3  A    between atoms: N1_6  and  C6_7 
ROOT
HETATM    1  C6  UNL     1      22.902   1.450  52.412  1.00  0.00     0.132 C 
HETATM    2  N2  UNL     1      22.237   0.874  51.417  1.00  0.00    -0.232 NA
HETATM    3  C7  UNL     1      22.377   1.636  50.177  1.00  0.00     0.057 C 
HETATM    4  C8  UNL     1      23.156   2.718  50.357  1.00  0.00     0.010 C 
HETATM    5  C9  UNL     1      22.343   3.395  51.437  1.00  0.00     0.073 C 
HETATM    6  C10 UNL     1      21.687   2.313  52.284  1.00  0.00     0.009 C 
HETATM    7  C11 UNL     1      20.452   2.209  52.776  1.00  0.00     0.127 C 
HETATM    8  N3  UNL     1      19.618   3.321  52.336  1.00  0.00    -0.274 NA
HETATM    9  C12 UNL     1      18.822   3.084  51.299  1.00  0.00     0.127 C 
HETATM   10  C13 UNL     1      17.813   3.286  50.223  1.00  0.00     0.228 C 
HETATM   11  F1  UNL     1      17.229   4.574  50.393  1.00  0.00    -0.242 F 
HETATM   12  C14 UNL     1      18.406   3.291  48.852  1.00  0.00     0.162 C 
HETATM   13  N4  UNL     1      19.175   2.139  48.482  1.00  0.00    -0.396 N 
HETATM   14  C15 UNL     1      20.429   1.734  49.009  1.00  0.00     0.085 C 
HETATM   15  C16 UNL     1      21.494   0.967  49.191  1.00  0.00     0.048 C 
HETATM   16  H19 UNL     1      18.894   1.428  47.750  1.00  0.00     0.159 HD
ENDROOT
BRANCH   1  17
HETATM   17  N1  UNL     1      24.080   1.301  53.136  1.00  0.00    -0.370 N 
HETATM   18  H10 UNL     1      24.264   2.306  53.395  1.00  0.00     0.161 HD
BRANCH  17  19
HETATM   19  C5  UNL     1      24.447  -0.074  53.176  1.00  0.00     0.154 C 
BRANCH  19  20
HETATM   20  C3  UNL     1      25.886  -0.359  53.374  1.00  0.00    -0.070 C 
HETATM   21  C2  UNL     1      26.496   0.317  54.384  1.00  0.00    -0.027 C 
HETATM   22  C1  UNL     1      27.957   0.079  54.626  1.00  0.00     0.036 C 
HETATM   23  C4  UNL     1      26.751  -1.282  52.601  1.00  0.00     0.044 C 
ENDBRANCH  19  20
ENDBRANCH  17  19
ENDBRANCH   1  17
TORSDOF 3
ENDMDL
MODEL 8
REMARK VINA RESULT:      -6.9      3.194      7.255
REMARK  3 active torsions:
REMARK  status: ('A' for Active; 'I' for Inactive)
REMARK    1  A    between atoms: C3_3  and  C5_5 
REMARK    2  A    between atoms: C5_5  and  N1_6 
REMARK    3  A    between atoms: N1_6  and  C6_7 
ROOT
HETATM    1  C6  UNL     1      22.191   2.629  51.742  1.00  0.00     0.132 C 
HETATM    2  N2  UNL     1      23.178   2.681  50.855  1.00  0.00    -0.232 NA
HETATM    3  C7  UNL     1      24.440   3.065  51.489  1.00  0.00     0.057 C 
HETATM    4  C8  UNL     1      24.281   3.251  52.811  1.00  0.00     0.010 C 
HETATM    5  C9  UNL     1      23.235   4.341  52.754  1.00  0.00     0.073 C 
HETATM    6  C10 UNL     1      22.365   4.100  51.528  1.00  0.00     0.009 C 
HETATM    7  C11 UNL     1      21.890   4.938  50.607  1.00  0.00     0.127 C 
HETATM    8  N3  UNL     1      22.377   6.294  50.832  1.00  0.00    -0.274 NA
HETATM    9  C12 UNL     1      23.418   6.674  50.100  1.00  0.00     0.127 C 
HETATM   10  C13 UNL     1      24.516   7.509  49.539  1.00  0.00     0.228 C 
HETATM   11  F1  UNL     1      24.395   8.824  50.071  1.00  0.00    -0.242 F 
HETATM   12  C14 UNL     1      25.877   7.038  49.935  1.00  0.00     0.162 C 
HETATM   13  N4  UNL     1      26.199   5.675  49.626  1.00  0.00    -0.396 N 
HETATM   14  C15 UNL     1      25.641   4.505  50.203  1.00  0.00     0.085 C 
HETATM   15  C16 UNL     1      25.418   3.211  50.384  1.00  0.00     0.048 C 
HETATM   16  H19 UNL     1      26.913   5.365  48.909  1.00  0.00     0.159 HD
ENDROOT
BRANCH   1  17
HETATM   17  N1  UNL     1      21.445   1.696  52.454  1.00  0.00    -0.370 N 
HETATM   18  H10 UNL     1      20.776   2.340  52.952  1.00  0.00     0.161 HD
BRANCH  17  19
HETATM   19  C5  UNL     1      21.924   0.386  52.176  1.00  0.00     0.154 C 
BRANCH  19  20
HETATM   20  C3  UNL     1      22.764  -0.238  53.222  1.00  0.00    -0.070 C 
HETATM   21  C2  UNL     1      22.103  -0.733  54.303  1.00  0.00    -0.027 C 
HETATM   22  C1  UNL     1      22.900  -1.367  55.403  1.00  0.00     0.036 C 
HETATM   23  C4  UNL     1      24.239  -0.382  53.249  1.00  0.00     0.044 C 
ENDBRANCH  19  20
ENDBRANCH  17  19
ENDBRANCH   1  17
TORSDOF 3
ENDMDL
MODEL 9
REMARK VINA RESULT:      -6.8      2.946      4.300
REMARK  3 active torsions:
REMARK  status: ('A' for Active; 'I' for Inactive)
REMARK    1  A    between atoms: C3_3  and  C5_5 
REMARK    2  A    between atoms: C5_5  and  N1_6 
REMARK    3  A    between atoms: N1_6  and  C6_7 
ROOT
HETATM    1  C6  UNL     1      24.150   3.058  50.713  1.00  0.00     0.132 C 
HETATM    2  N2  UNL     1      24.036   1.792  51.098  1.00  0.00    -0.232 NA
HETATM    3  C7  UNL     1      23.673   1.700  52.512  1.00  0.00     0.057 C 
HETATM    4  C8  UNL     1      23.533   2.922  53.058  1.00  0.00     0.010 C 
HETATM    5  C9  UNL     1      24.925   3.444  52.785  1.00  0.00     0.073 C 
HETATM    6  C10 UNL     1      25.414   2.832  51.480  1.00  0.00     0.009 C 
HETATM    7  C11 UNL     1      26.594   2.313  51.139  1.00  0.00     0.127 C 
HETATM    8  N3  UNL     1      27.507   2.298  52.275  1.00  0.00    -0.274 NA
HETATM    9  C12 UNL     1      27.612   1.148  52.930  1.00  0.00     0.127 C 
HETATM   10  C13 UNL     1      28.041   0.129  53.928  1.00  0.00     0.228 C 
HETATM   11  F1  UNL     1      29.085   0.689  54.718  1.00  0.00    -0.242 F 
HETATM   12  C14 UNL     1      26.963  -0.245  54.891  1.00  0.00     0.162 C 
HETATM   13  N4  UNL     1      25.733  -0.718  54.324  1.00  0.00    -0.396 N 
HETATM   14  C15 UNL     1      24.787   0.027  53.574  1.00  0.00     0.085 C 
HETATM   15  C16 UNL     1      23.705   0.255  52.843  1.00  0.00     0.048 C 
HETATM   16  H19 UNL     1      25.370  -1.709  54.398  1.00  0.00     0.159 HD
ENDROOT
BRANCH   1  17
HETATM   17  N1  UNL     1      23.449   4.023  49.997  1.00  0.00    -0.370 N 
HETATM   18  H10 UNL     1      24.121   4.831  50.074  1.00  0.00     0.161 HD
BRANCH  17  19
HETATM   19  C5  UNL     1      22.222   3.475  49.528  1.00  0.00     0.154 C 
BRANCH  19  20
HETATM   20  C3  UNL     1      22.190   3.070  48.105  1.00  0.00    -0.070 C 
HETATM   21  C2  UNL     1      21.927   4.058  47.208  1.00  0.00    -0.027 C 
HETATM   22  C1  UNL     1      21.870   3.708  45.751  1.00  0.00     0.036 C 
HETATM   23  C4  UNL     1      22.397   1.720  47.532  1.00  0.00     0.044 C 
ENDBRANCH  19  20
ENDBRANCH  17  19
ENDBRANCH   1  17
TORSDOF 3
ENDMDL
