MODEL 1
REMARK VINA RESULT:      -8.0      0.000      0.000
REMARK  10 active torsions:
REMARK  status: ('A' for Active; 'I' for Inactive)
REMARK    1  A    between atoms: C3_3  and  N1_4 
REMARK    2  A    between atoms: C3_3  and  C16_21 
REMARK    3  A    between atoms: N1_4  and  C4_5 
REMARK    4  A    between atoms: C8_11  and  C9_12 
REMARK    5  A    between atoms: C9_12  and  C10_13 
REMARK    6  A    between atoms: C10_13  and  C11_14 
REMARK    7  A    between atoms: C11_14  and  C12_15 
REMARK    8  A    between atoms: C16_21  and  C18_23 
REMARK    9  A    between atoms: C18_23  and  O2_24 
REMARK   10  A    between atoms: O2_24  and  C19_25 
ROOT
HETATM    1  C4  UNL     1      21.305   0.819  51.225  1.00  0.00     0.150 A 
HETATM    2  N2  UNL     1      19.989   0.497  51.173  1.00  0.00    -0.223 NA
HETATM    3  C5  UNL     1      19.352  -0.107  52.165  1.00  0.00     0.235 A 
HETATM    4  N3  UNL     1      19.925  -0.490  53.350  1.00  0.00    -0.245 NA
HETATM    5  C6  UNL     1      21.258  -0.199  53.488  1.00  0.00     0.054 A 
HETATM    6  C7  UNL     1      21.967  -0.663  54.726  1.00  0.00     0.072 C 
HETATM    7  C8  UNL     1      21.847   0.442  52.415  1.00  0.00     0.087 A 
ENDROOT
BRANCH   1   8
HETATM    8  N1  UNL     1      22.094   1.306  50.147  1.00  0.00    -0.343 N 
HETATM    9  H5  UNL     1      22.815   0.797  49.643  1.00  0.00     0.167 HD
BRANCH   8  10
HETATM   10  C3  UNL     1      21.726   2.698  49.823  1.00  0.00     0.012 C 
HETATM   11  C2  UNL     1      21.788   3.132  48.506  1.00  0.00    -0.006 C 
HETATM   12  C1  UNL     1      22.038   3.010  47.055  1.00  0.00     0.038 C 
BRANCH  10  13
HETATM   13  C16 UNL     1      21.359   3.837  50.662  1.00  0.00     0.055 C 
HETATM   14  C17 UNL     1      20.868   5.004  49.795  1.00  0.00     0.018 C 
BRANCH  13  15
HETATM   15  C18 UNL     1      22.494   4.369  51.572  1.00  0.00     0.186 C 
BRANCH  15  16
HETATM   16  O2  UNL     1      23.649   4.410  50.917  1.00  0.00    -0.350 OA
BRANCH  16  17
HETATM   17  C19 UNL     1      24.755   4.450  50.293  1.00  0.00     0.069 A 
HETATM   18  C20 UNL     1      25.501   3.300  50.192  1.00  0.00     0.037 A 
HETATM   19  C21 UNL     1      26.719   3.277  49.507  1.00  0.00     0.003 A 
HETATM   20  C22 UNL     1      27.154   4.420  48.931  1.00  0.00     0.007 A 
HETATM   21  C23 UNL     1      26.477   5.647  48.969  1.00  0.00    -0.059 A 
HETATM   22  C24 UNL     1      27.039   6.824  48.265  1.00  0.00     0.048 C 
HETATM   23  C25 UNL     1      25.276   5.586  49.671  1.00  0.00     0.043 A 
ENDBRANCH  16  17
ENDBRANCH  15  16
ENDBRANCH  13  15
ENDBRANCH  10  13
ENDBRANCH   8  10
ENDBRANCH   1   8
BRANCH   7  24
HETATM   24  C9  UNL     1      23.151   0.964  52.846  1.00  0.00    -0.061 C 
BRANCH  24  25
HETATM   25  C10 UNL     1      24.257   1.414  53.188  1.00  0.00    -0.099 C 
BRANCH  25  26
HETATM   26  C11 UNL     1      25.533   1.960  53.589  1.00  0.00     0.132 C 
BRANCH  26  27
HETATM   27  C12 UNL     1      26.678   1.188  53.064  1.00  0.00     0.255 C 
HETATM   28  C13 UNL     1      26.612  -0.173  53.796  1.00  0.00     0.204 C 
HETATM   29  O1  UNL     1      27.293  -0.070  55.011  1.00  0.00    -0.387 OA
HETATM   30  C14 UNL     1      28.662   0.034  54.828  1.00  0.00     0.197 C 
HETATM   31  C15 UNL     1      28.901   0.706  53.483  1.00  0.00     0.296 C 
HETATM   32  N4  UNL     1      27.941   1.787  53.381  1.00  0.00     0.093 N 
HETATM   33  H19 UNL     1      27.901   2.218  54.327  1.00  0.00     0.316 HD
ENDBRANCH  26  27
ENDBRANCH  25  26
ENDBRANCH  24  25
ENDBRANCH   7  24
TORSDOF 10
ENDMDL
MODEL 2
REMARK VINA RESULT:      -8.0      1.309      2.038
REMARK  10 active torsions:
REMARK  status: ('A' for Active; 'I' for Inactive)
REMARK    1  A    between atoms: C3_3  and  N1_4 
REMARK    2  A    between atoms: C3_3  and  C16_21 
REMARK    3  A    between atoms: N1_4  and  C4_5 
REMARK    4  A    between atoms: C8_11  and  C9_12 
REMARK    5  A    between atoms: C9_12  and  C10_13 
REMARK    6  A    between atoms: C10_13  and  C11_14 
REMARK    7  A    between atoms: C11_14  and  C12_15 
REMARK    8  A    between atoms: C16_21  and  C18_23 
REMARK    9  A    between atoms: C18_23  and  O2_24 
REMARK   10  A    between atoms: O2_24  and  C19_25 
ROOT
HETATM    1  C4  UNL     1      22.121   0.897  51.900  1.00  0.00     0.150 A 
HETATM    2  N2  UNL     1      20.796   1.032  51.643  1.00  0.00    -0.223 NA
HETATM    3  C5  UNL     1      19.861   0.353  52.290  1.00  0.00     0.235 A 
HETATM    4  N3  UNL     1      20.099  -0.565  53.280  1.00  0.00    -0.245 NA
HETATM    5  C6  UNL     1      21.416  -0.762  53.606  1.00  0.00     0.054 A 
HETATM    6  C7  UNL     1      21.753  -1.812  54.624  1.00  0.00     0.072 C 
HETATM    7  C8  UNL     1      22.330  -0.008  52.894  1.00  0.00     0.087 A 
ENDROOT
BRANCH   1   8
HETATM    8  N1  UNL     1      23.185   1.455  51.139  1.00  0.00    -0.343 N 
HETATM    9  H5  UNL     1      24.025   0.975  50.827  1.00  0.00     0.167 HD
BRANCH   8  10
HETATM   10  C3  UNL     1      22.916   2.873  50.834  1.00  0.00     0.012 C 
HETATM   11  C2  UNL     1      23.189   3.841  51.790  1.00  0.00    -0.006 C 
HETATM   12  C1  UNL     1      23.646   4.357  53.098  1.00  0.00     0.038 C 
BRANCH  10  13
HETATM   13  C16 UNL     1      22.298   3.530  49.683  1.00  0.00     0.055 C 
HETATM   14  C17 UNL     1      22.707   2.827  48.383  1.00  0.00     0.018 C 
BRANCH  13  15
HETATM   15  C18 UNL     1      22.636   5.034  49.534  1.00  0.00     0.186 C 
BRANCH  15  16
HETATM   16  O2  UNL     1      23.923   5.209  49.258  1.00  0.00    -0.350 OA
BRANCH  16  17
HETATM   17  C19 UNL     1      25.154   5.376  48.991  1.00  0.00     0.069 A 
HETATM   18  C20 UNL     1      26.026   4.335  49.201  1.00  0.00     0.037 A 
HETATM   19  C21 UNL     1      27.388   4.453  48.915  1.00  0.00     0.003 A 
HETATM   20  C22 UNL     1      27.840   5.624  48.413  1.00  0.00     0.007 A 
HETATM   21  C23 UNL     1      27.044   6.748  48.157  1.00  0.00    -0.059 A 
HETATM   22  C24 UNL     1      27.651   7.967  47.568  1.00  0.00     0.048 C 
HETATM   23  C25 UNL     1      25.702   6.550  48.472  1.00  0.00     0.043 A 
ENDBRANCH  16  17
ENDBRANCH  15  16
ENDBRANCH  13  15
ENDBRANCH  10  13
ENDBRANCH   8  10
ENDBRANCH   1   8
BRANCH   7  24
HETATM   24  C9  UNL     1      23.629  -0.089  53.576  1.00  0.00    -0.061 C 
BRANCH  24  25
HETATM   25  C10 UNL     1      24.736  -0.146  54.134  1.00  0.00    -0.099 C 
BRANCH  25  26
HETATM   26  C11 UNL     1      26.016  -0.226  54.802  1.00  0.00     0.132 C 
BRANCH  26  27
HETATM   27  C12 UNL     1      27.109   0.394  54.024  1.00  0.00     0.255 C 
HETATM   28  C13 UNL     1      27.490  -0.662  52.959  1.00  0.00     0.204 C 
HETATM   29  O1  UNL     1      28.432  -1.537  53.504  1.00  0.00    -0.387 OA
HETATM   30  C14 UNL     1      29.662  -0.926  53.683  1.00  0.00     0.197 C 
HETATM   31  C15 UNL     1      29.413   0.557  53.923  1.00  0.00     0.296 C 
HETATM   32  N4  UNL     1      28.275   0.649  54.816  1.00  0.00     0.093 N 
HETATM   33  H19 UNL     1      28.402  -0.112  55.514  1.00  0.00     0.316 HD
ENDBRANCH  26  27
ENDBRANCH  25  26
ENDBRANCH  24  25
ENDBRANCH   7  24
TORSDOF 10
ENDMDL
MODEL 3
REMARK VINA RESULT:      -7.7      1.933      2.962
REMARK  10 active torsions:
REMARK  status: ('A' for Active; 'I' for Inactive)
REMARK    1  A    between atoms: C3_3  and  N1_4 
REMARK    2  A    between atoms: C3_3  and  C16_21 
REMARK    3  A    between atoms: N1_4  and  C4_5 
REMARK    4  A    between atoms: C8_11  and  C9_12 
REMARK    5  A    between atoms: C9_12  and  C10_13 
REMARK    6  A    between atoms: C10_13  and  C11_14 
REMARK    7  A    between atoms: C11_14  and  C12_15 
REMARK    8  A    between atoms: C16_21  and  C18_23 
REMARK    9  A    between atoms: C18_23  and  O2_24 
REMARK   10  A    between atoms: O2_24  and  C19_25 
ROOT
HETATM    1  C4  UNL     1      22.483   3.579  52.314  1.00  0.00     0.150 A 
HETATM    2  N2  UNL     1      21.127   3.552  52.317  1.00  0.00    -0.223 NA
HETATM    3  C5  UNL     1      20.426   2.457  52.569  1.00  0.00     0.235 A 
HETATM    4  N3  UNL     1      20.962   1.226  52.847  1.00  0.00    -0.245 NA
HETATM    5  C6  UNL     1      22.332   1.164  52.868  1.00  0.00     0.054 A 
HETATM    6  C7  UNL     1      22.985  -0.169  53.085  1.00  0.00     0.072 C 
HETATM    7  C8  UNL     1      22.991   2.351  52.606  1.00  0.00     0.087 A 
ENDROOT
BRANCH   1   8
HETATM    8  N1  UNL     1      23.301   4.661  51.887  1.00  0.00    -0.343 N 
HETATM    9  H5  UNL     1      23.871   5.261  52.477  1.00  0.00     0.167 HD
BRANCH   8  10
HETATM   10  C3  UNL     1      23.230   4.817  50.422  1.00  0.00     0.012 C 
HETATM   11  C2  UNL     1      22.331   5.721  49.874  1.00  0.00    -0.006 C 
HETATM   12  C1  UNL     1      21.268   6.747  49.891  1.00  0.00     0.038 C 
BRANCH  10  13
HETATM   13  C16 UNL     1      23.895   4.113  49.326  1.00  0.00     0.055 C 
HETATM   14  C17 UNL     1      23.079   2.884  48.907  1.00  0.00     0.018 C 
BRANCH  13  15
HETATM   15  C18 UNL     1      25.337   3.640  49.635  1.00  0.00     0.186 C 
BRANCH  15  16
HETATM   16  O2  UNL     1      26.232   4.491  49.146  1.00  0.00    -0.350 OA
BRANCH  16  17
HETATM   17  C19 UNL     1      27.090   5.303  48.677  1.00  0.00     0.069 A 
HETATM   18  C20 UNL     1      26.694   6.581  48.366  1.00  0.00     0.037 A 
HETATM   19  C21 UNL     1      27.593   7.522  47.860  1.00  0.00     0.003 A 
HETATM   20  C22 UNL     1      28.882   7.152  47.687  1.00  0.00     0.007 A 
HETATM   21  C23 UNL     1      29.397   5.880  47.972  1.00  0.00    -0.059 A 
HETATM   22  C24 UNL     1      30.840   5.605  47.774  1.00  0.00     0.048 C 
HETATM   23  C25 UNL     1      28.437   5.001  48.468  1.00  0.00     0.043 A 
ENDBRANCH  16  17
ENDBRANCH  15  16
ENDBRANCH  13  15
ENDBRANCH  10  13
ENDBRANCH   8  10
ENDBRANCH   1   8
BRANCH   7  24
HETATM   24  C9  UNL     1      24.401   2.190  52.986  1.00  0.00    -0.061 C 
BRANCH  24  25
HETATM   25  C10 UNL     1      25.590   2.031  53.307  1.00  0.00    -0.099 C 
BRANCH  25  26
HETATM   26  C11 UNL     1      26.969   1.820  53.684  1.00  0.00     0.132 C 
BRANCH  26  27
HETATM   27  C12 UNL     1      27.270   0.406  53.991  1.00  0.00     0.255 C 
HETATM   28  C13 UNL     1      28.543   0.450  54.869  1.00  0.00     0.204 C 
HETATM   29  O1  UNL     1      29.666   0.465  54.041  1.00  0.00    -0.387 OA
HETATM   30  C14 UNL     1      29.858  -0.751  53.408  1.00  0.00     0.197 C 
HETATM   31  C15 UNL     1      28.493  -1.405  53.237  1.00  0.00     0.296 C 
HETATM   32  N4  UNL     1      27.581  -0.360  52.820  1.00  0.00     0.093 N 
HETATM   33  H19 UNL     1      28.112   0.226  52.145  1.00  0.00     0.316 HD
ENDBRANCH  26  27
ENDBRANCH  25  26
ENDBRANCH  24  25
ENDBRANCH   7  24
TORSDOF 10
ENDMDL
MODEL 4
REMARK VINA RESULT:      -7.5      1.769      2.831
REMARK  10 active torsions:
REMARK  status: ('A' for Active; 'I' for Inactive)
REMARK    1  A    between atoms: C3_3  and  N1_4 
REMARK    2  A    between atoms: C3_3  and  C16_21 
REMARK    3  A    between atoms: N1_4  and  C4_5 
REMARK    4  A    between atoms: C8_11  and  C9_12 
REMARK    5  A    between atoms: C9_12  and  C10_13 
REMARK    6  A    between atoms: C10_13  and  C11_14 
REMARK    7  A    between atoms: C11_14  and  C12_15 
REMARK    8  A    between atoms: C16_21  and  C18_23 
REMARK    9  A    between atoms: C18_23  and  O2_24 
REMARK   10  A    between atoms: O2_24  and  C19_25 
ROOT
HETATM    1  C4  UNL     1      21.903   2.120  50.817  1.00  0.00     0.150 A 
HETATM    2  N2  UNL     1      20.870   2.987  50.674  1.00  0.00    -0.223 NA
HETATM    3  C5  UNL     1      19.917   3.132  51.582  1.00  0.00     0.235 A 
HETATM    4  N3  UNL     1      19.840   2.435  52.760  1.00  0.00    -0.245 NA
HETATM    5  C6  UNL     1      20.850   1.536  52.987  1.00  0.00     0.054 A 
HETATM    6  C7  UNL     1      20.784   0.680  54.218  1.00  0.00     0.072 C 
HETATM    7  C8  UNL     1      21.812   1.451  51.998  1.00  0.00     0.087 A 
ENDROOT
BRANCH   1   8
HETATM    8  N1  UNL     1      22.861   1.784  49.821  1.00  0.00    -0.343 N 
HETATM    9  H5  UNL     1      23.049   0.858  49.447  1.00  0.00     0.167 HD
BRANCH   8  10
HETATM   10  C3  UNL     1      23.580   2.989  49.366  1.00  0.00     0.012 C 
HETATM   11  C2  UNL     1      23.006   3.803  48.400  1.00  0.00    -0.006 C 
HETATM   12  C1  UNL     1      21.970   4.229  47.435  1.00  0.00     0.038 C 
BRANCH  10  13
HETATM   13  C16 UNL     1      24.909   3.515  49.673  1.00  0.00     0.055 C 
HETATM   14  C17 UNL     1      25.448   2.888  50.965  1.00  0.00     0.018 C 
BRANCH  13  15
HETATM   15  C18 UNL     1      24.981   5.054  49.828  1.00  0.00     0.186 C 
BRANCH  15  16
HETATM   16  O2  UNL     1      26.033   5.549  49.185  1.00  0.00    -0.350 OA
BRANCH  16  17
HETATM   17  C19 UNL     1      27.038   6.025  48.570  1.00  0.00     0.069 A 
HETATM   18  C20 UNL     1      26.909   7.229  47.921  1.00  0.00     0.037 A 
HETATM   19  C21 UNL     1      27.981   7.810  47.239  1.00  0.00     0.003 A 
HETATM   20  C22 UNL     1      29.167   7.161  47.234  1.00  0.00     0.007 A 
HETATM   21  C23 UNL     1      29.413   5.932  47.862  1.00  0.00    -0.059 A 
HETATM   22  C24 UNL     1      30.770   5.336  47.818  1.00  0.00     0.048 C 
HETATM   23  C25 UNL     1      28.295   5.420  48.516  1.00  0.00     0.043 A 
ENDBRANCH  16  17
ENDBRANCH  15  16
ENDBRANCH  13  15
ENDBRANCH  10  13
ENDBRANCH   8  10
ENDBRANCH   1   8
BRANCH   7  24
HETATM   24  C9  UNL     1      22.963   0.710  52.534  1.00  0.00    -0.061 C 
BRANCH  24  25
HETATM   25  C10 UNL     1      23.931   0.096  53.008  1.00  0.00    -0.099 C 
BRANCH  25  26
HETATM   26  C11 UNL     1      25.045  -0.642  53.560  1.00  0.00     0.132 C 
BRANCH  26  27
HETATM   27  C12 UNL     1      26.212   0.216  53.853  1.00  0.00     0.255 C 
HETATM   28  C13 UNL     1      27.127   0.083  52.614  1.00  0.00     0.204 C 
HETATM   29  O1  UNL     1      27.956  -1.028  52.778  1.00  0.00    -0.387 OA
HETATM   30  C14 UNL     1      28.913  -0.818  53.757  1.00  0.00     0.197 C 
HETATM   31  C15 UNL     1      28.334   0.161  54.769  1.00  0.00     0.296 C 
HETATM   32  N4  UNL     1      26.958  -0.235  54.991  1.00  0.00     0.093 N 
HETATM   33  H19 UNL     1      26.964  -1.275  55.019  1.00  0.00     0.316 HD
ENDBRANCH  26  27
ENDBRANCH  25  26
ENDBRANCH  24  25
ENDBRANCH   7  24
TORSDOF 10
ENDMDL
MODEL 5
REMARK VINA RESULT:      -7.2      2.111      3.319
REMARK  10 active torsions:
REMARK  status: ('A' for Active; 'I' for Inactive)
REMARK    1  A    between atoms: C3_3  and  N1_4 
REMARK    2  A    between atoms: C3_3  and  C16_21 
REMARK    3  A    between atoms: N1_4  and  C4_5 
REMARK    4  A    between atoms: C8_11  and  C9_12 
REMARK    5  A    between atoms: C9_12  and  C10_13 
REMARK    6  A    between atoms: C10_13  and  C11_14 
REMARK    7  A    between atoms: C11_14  and  C12_15 
REMARK    8  A    between atoms: C16_21  and  C18_23 
REMARK    9  A    between atoms: C18_23  and  O2_24 
REMARK   10  A    between atoms: O2_24  and  C19_25 
ROOT
HETATM    1  C4  UNL     1      21.916   0.928  51.671  1.00  0.00     0.150 A 
HETATM    2  N2  UNL     1      20.614   1.194  51.398  1.00  0.00    -0.223 NA
HETATM    3  C5  UNL     1      19.609   0.640  52.058  1.00  0.00     0.235 A 
HETATM    4  N3  UNL     1      19.742  -0.265  53.080  1.00  0.00    -0.245 NA
HETATM    5  C6  UNL     1      21.030  -0.588  53.424  1.00  0.00     0.054 A 
HETATM    6  C7  UNL     1      21.248  -1.633  54.479  1.00  0.00     0.072 C 
HETATM    7  C8  UNL     1      22.022   0.040  52.696  1.00  0.00     0.087 A 
ENDROOT
BRANCH   1   8
HETATM    8  N1  UNL     1      23.038   1.345  50.902  1.00  0.00    -0.343 N 
HETATM    9  H5  UNL     1      23.781   0.752  50.542  1.00  0.00     0.167 HD
BRANCH   8  10
HETATM   10  C3  UNL     1      22.995   2.801  50.669  1.00  0.00     0.012 C 
HETATM   11  C2  UNL     1      22.699   3.281  49.401  1.00  0.00    -0.006 C 
HETATM   12  C1  UNL     1      22.361   3.185  47.966  1.00  0.00     0.038 C 
BRANCH  10  13
HETATM   13  C16 UNL     1      23.300   3.943  51.530  1.00  0.00     0.055 C 
HETATM   14  C17 UNL     1      24.024   3.478  52.799  1.00  0.00     0.018 C 
BRANCH  13  15
HETATM   15  C18 UNL     1      22.070   4.777  51.965  1.00  0.00     0.186 C 
BRANCH  15  16
HETATM   16  O2  UNL     1      21.984   5.902  51.264  1.00  0.00    -0.350 OA
BRANCH  16  17
HETATM   17  C19 UNL     1      21.905   6.979  50.594  1.00  0.00     0.069 A 
HETATM   18  C20 UNL     1      23.026   7.442  49.948  1.00  0.00     0.037 A 
HETATM   19  C21 UNL     1      22.998   8.612  49.185  1.00  0.00     0.003 A 
HETATM   20  C22 UNL     1      21.831   9.287  49.085  1.00  0.00     0.007 A 
HETATM   21  C23 UNL     1      20.629   8.908  49.698  1.00  0.00    -0.059 A 
HETATM   22  C24 UNL     1      19.402   9.712  49.484  1.00  0.00     0.048 C 
HETATM   23  C25 UNL     1      20.742   7.735  50.441  1.00  0.00     0.043 A 
ENDBRANCH  16  17
ENDBRANCH  15  16
ENDBRANCH  13  15
ENDBRANCH  10  13
ENDBRANCH   8  10
ENDBRANCH   1   8
BRANCH   7  24
HETATM   24  C9  UNL     1      23.301  -0.155  53.393  1.00  0.00    -0.061 C 
BRANCH  24  25
HETATM   25  C10 UNL     1      24.394  -0.315  53.960  1.00  0.00    -0.099 C 
BRANCH  25  26
HETATM   26  C11 UNL     1      25.655  -0.497  54.643  1.00  0.00     0.132 C 
BRANCH  26  27
HETATM   27  C12 UNL     1      26.754   0.281  54.036  1.00  0.00     0.255 C 
HETATM   28  C13 UNL     1      27.324  -0.632  52.925  1.00  0.00     0.204 C 
HETATM   29  O1  UNL     1      28.286  -1.477  53.480  1.00  0.00    -0.387 OA
HETATM   30  C14 UNL     1      29.435  -0.791  53.835  1.00  0.00     0.197 C 
HETATM   31  C15 UNL     1      29.034   0.637  54.180  1.00  0.00     0.296 C 
HETATM   32  N4  UNL     1      27.816   0.550  54.960  1.00  0.00     0.093 N 
HETATM   33  H19 UNL     1      27.946  -0.262  55.596  1.00  0.00     0.316 HD
ENDBRANCH  26  27
ENDBRANCH  25  26
ENDBRANCH  24  25
ENDBRANCH   7  24
TORSDOF 10
ENDMDL
MODEL 6
REMARK VINA RESULT:      -7.1      6.884      9.822
REMARK  10 active torsions:
REMARK  status: ('A' for Active; 'I' for Inactive)
REMARK    1  A    between atoms: C3_3  and  N1_4 
REMARK    2  A    between atoms: C3_3  and  C16_21 
REMARK    3  A    between atoms: N1_4  and  C4_5 
REMARK    4  A    between atoms: C8_11  and  C9_12 
REMARK    5  A    between atoms: C9_12  and  C10_13 
REMARK    6  A    between atoms: C10_13  and  C11_14 
REMARK    7  A    between atoms: C11_14  and  C12_15 
REMARK    8  A    between atoms: C16_21  and  C18_23 
REMARK    9  A    between atoms: C18_23  and  O2_24 
REMARK   10  A    between atoms: O2_24  and  C19_25 
ROOT
HETATM    1  C4  UNL     1      28.166   9.296  49.399  1.00  0.00     0.150 A 
HETATM    2  N2  UNL     1      27.691  10.564  49.322  1.00  0.00    -0.223 NA
HETATM    3  C5  UNL     1      28.413  11.580  48.874  1.00  0.00     0.235 A 
HETATM    4  N3  UNL     1      29.711  11.494  48.444  1.00  0.00    -0.245 NA
HETATM    5  C6  UNL     1      30.270  10.243  48.486  1.00  0.00     0.054 A 
HETATM    6  C7  UNL     1      31.715  10.091  48.107  1.00  0.00     0.072 C 
HETATM    7  C8  UNL     1      29.451   9.234  48.954  1.00  0.00     0.087 A 
ENDROOT
BRANCH   1   8
HETATM    8  N1  UNL     1      27.521   8.193  50.024  1.00  0.00    -0.343 N 
HETATM    9  H5  UNL     1      27.685   7.847  50.965  1.00  0.00     0.167 HD
BRANCH   8  10
HETATM   10  C3  UNL     1      26.535   7.584  49.111  1.00  0.00     0.012 C 
HETATM   11  C2  UNL     1      26.677   6.255  48.740  1.00  0.00    -0.006 C 
HETATM   12  C1  UNL     1      27.313   4.921  48.714  1.00  0.00     0.038 C 
BRANCH  10  13
HETATM   13  C16 UNL     1      25.394   8.140  48.386  1.00  0.00     0.055 C 
HETATM   14  C17 UNL     1      24.083   7.545  48.915  1.00  0.00     0.018 C 
BRANCH  13  15
HETATM   15  C18 UNL     1      25.427   7.923  46.853  1.00  0.00     0.186 C 
BRANCH  15  16
HETATM   16  O2  UNL     1      26.535   8.430  46.324  1.00  0.00    -0.350 OA
BRANCH  16  17
HETATM   17  C19 UNL     1      27.596   8.913  45.817  1.00  0.00     0.069 A 
HETATM   18  C20 UNL     1      27.654  10.262  45.562  1.00  0.00     0.037 A 
HETATM   19  C21 UNL     1      28.797  10.854  45.018  1.00  0.00     0.003 A 
HETATM   20  C22 UNL     1      29.863  10.067  44.750  1.00  0.00     0.007 A 
HETATM   21  C23 UNL     1      29.916   8.684  44.971  1.00  0.00    -0.059 A 
HETATM   22  C24 UNL     1      31.158   7.933  44.670  1.00  0.00     0.048 C 
HETATM   23  C25 UNL     1      28.738   8.172  45.511  1.00  0.00     0.043 A 
ENDBRANCH  16  17
ENDBRANCH  15  16
ENDBRANCH  13  15
ENDBRANCH  10  13
ENDBRANCH   8  10
ENDBRANCH   1   8
BRANCH   7  24
HETATM   24  C9  UNL     1      30.073   7.943  48.629  1.00  0.00    -0.061 C 
BRANCH  24  25
HETATM   25  C10 UNL     1      30.576   6.842  48.355  1.00  0.00    -0.099 C 
BRANCH  25  26
HETATM   26  C11 UNL     1      31.139   5.550  48.031  1.00  0.00     0.132 C 
BRANCH  26  27
HETATM   27  C12 UNL     1      32.563   5.435  48.406  1.00  0.00     0.255 C 
HETATM   28  C13 UNL     1      33.318   6.320  47.387  1.00  0.00     0.204 C 
HETATM   29  O1  UNL     1      33.600   5.563  46.249  1.00  0.00    -0.387 OA
HETATM   30  C14 UNL     1      34.570   4.605  46.492  1.00  0.00     0.197 C 
HETATM   31  C15 UNL     1      34.475   4.213  47.961  1.00  0.00     0.296 C 
HETATM   32  N4  UNL     1      33.064   4.099  48.271  1.00  0.00     0.093 N 
HETATM   33  H19 UNL     1      32.630   3.640  47.445  1.00  0.00     0.316 HD
ENDBRANCH  26  27
ENDBRANCH  25  26
ENDBRANCH  24  25
ENDBRANCH   7  24
TORSDOF 10
ENDMDL
MODEL 7
REMARK VINA RESULT:      -7.0      2.505      7.079
REMARK  10 active torsions:
REMARK  status: ('A' for Active; 'I' for Inactive)
REMARK    1  A    between atoms: C3_3  and  N1_4 
REMARK    2  A    between atoms: C3_3  and  C16_21 
REMARK    3  A    between atoms: N1_4  and  C4_5 
REMARK    4  A    between atoms: C8_11  and  C9_12 
REMARK    5  A    between atoms: C9_12  and  C10_13 
REMARK    6  A    between atoms: C10_13  and  C11_14 
REMARK    7  A    between atoms: C11_14  and  C12_15 
REMARK    8  A    between atoms: C16_21  and  C18_23 
REMARK    9  A    between atoms: C18_23  and  O2_24 
REMARK   10  A    between atoms: O2_24  and  C19_25 
ROOT
HETATM    1  C4  UNL     1      24.369   3.214  51.388  1.00  0.00     0.150 A 
HETATM    2  N2  UNL     1      25.091   2.190  51.906  1.00  0.00    -0.223 NA
HETATM    3  C5  UNL     1      26.346   1.944  51.562  1.00  0.00     0.235 A 
HETATM    4  N3  UNL     1      27.069   2.667  50.649  1.00  0.00    -0.245 NA
HETATM    5  C6  UNL     1      26.413   3.726  50.077  1.00  0.00     0.054 A 
HETATM    6  C7  UNL     1      27.116   4.512  49.009  1.00  0.00     0.072 C 
HETATM    7  C8  UNL     1      25.111   3.925  50.496  1.00  0.00     0.087 A 
ENDROOT
BRANCH   1   8
HETATM    8  N1  UNL     1      22.977   3.439  51.573  1.00  0.00    -0.343 N 
HETATM    9  H5  UNL     1      22.531   3.849  52.389  1.00  0.00     0.167 HD
BRANCH   8  10
HETATM   10  C3  UNL     1      22.218   2.995  50.388  1.00  0.00     0.012 C 
HETATM   11  C2  UNL     1      21.260   3.834  49.837  1.00  0.00    -0.006 C 
HETATM   12  C1  UNL     1      20.447   5.062  49.721  1.00  0.00     0.038 C 
BRANCH  10  13
HETATM   13  C16 UNL     1      22.192   1.730  49.656  1.00  0.00     0.055 C 
HETATM   14  C17 UNL     1      21.853   1.973  48.180  1.00  0.00     0.018 C 
BRANCH  13  15
HETATM   15  C18 UNL     1      21.194   0.680  50.203  1.00  0.00     0.186 C 
BRANCH  15  16
HETATM   16  O2  UNL     1      21.570   0.244  51.400  1.00  0.00    -0.350 OA
BRANCH  16  17
HETATM   17  C19 UNL     1      21.929  -0.171  52.546  1.00  0.00     0.069 A 
HETATM   18  C20 UNL     1      20.970  -0.628  53.418  1.00  0.00     0.037 A 
HETATM   19  C21 UNL     1      21.304  -1.109  54.686  1.00  0.00     0.003 A 
HETATM   20  C22 UNL     1      22.607  -1.125  55.044  1.00  0.00     0.007 A 
HETATM   21  C23 UNL     1      23.667  -0.688  54.239  1.00  0.00    -0.059 A 
HETATM   22  C24 UNL     1      25.062  -0.791  54.730  1.00  0.00     0.048 C 
HETATM   23  C25 UNL     1      23.250  -0.222  52.994  1.00  0.00     0.043 A 
ENDBRANCH  16  17
ENDBRANCH  15  16
ENDBRANCH  13  15
ENDBRANCH  10  13
ENDBRANCH   8  10
ENDBRANCH   1   8
BRANCH   7  24
HETATM   24  C9  UNL     1      24.678   5.257  50.050  1.00  0.00    -0.061 C 
BRANCH  24  25
HETATM   25  C10 UNL     1      24.317   6.375  49.650  1.00  0.00    -0.099 C 
BRANCH  25  26
HETATM   26  C11 UNL     1      23.900   7.686  49.207  1.00  0.00     0.132 C 
BRANCH  26  27
HETATM   27  C12 UNL     1      24.902   8.733  49.490  1.00  0.00     0.255 C 
HETATM   28  C13 UNL     1      25.658   8.935  48.156  1.00  0.00     0.204 C 
HETATM   29  O1  UNL     1      26.704   8.013  48.083  1.00  0.00    -0.387 OA
HETATM   30  C14 UNL     1      27.719   8.311  48.976  1.00  0.00     0.197 C 
HETATM   31  C15 UNL     1      27.094   9.027  50.166  1.00  0.00     0.296 C 
HETATM   32  N4  UNL     1      25.863   8.327  50.473  1.00  0.00     0.093 N 
HETATM   33  H19 UNL     1      26.078   7.316  50.361  1.00  0.00     0.316 HD
ENDBRANCH  26  27
ENDBRANCH  25  26
ENDBRANCH  24  25
ENDBRANCH   7  24
TORSDOF 10
ENDMDL
MODEL 8
REMARK VINA RESULT:      -7.0      2.701      6.396
REMARK  10 active torsions:
REMARK  status: ('A' for Active; 'I' for Inactive)
REMARK    1  A    between atoms: C3_3  and  N1_4 
REMARK    2  A    between atoms: C3_3  and  C16_21 
REMARK    3  A    between atoms: N1_4  and  C4_5 
REMARK    4  A    between atoms: C8_11  and  C9_12 
REMARK    5  A    between atoms: C9_12  and  C10_13 
REMARK    6  A    between atoms: C10_13  and  C11_14 
REMARK    7  A    between atoms: C11_14  and  C12_15 
REMARK    8  A    between atoms: C16_21  and  C18_23 
REMARK    9  A    between atoms: C18_23  and  O2_24 
REMARK   10  A    between atoms: O2_24  and  C19_25 
ROOT
HETATM    1  C4  UNL     1      24.789   7.061  50.219  1.00  0.00     0.150 A 
HETATM    2  N2  UNL     1      24.854   8.123  49.377  1.00  0.00    -0.223 NA
HETATM    3  C5  UNL     1      25.681   8.176  48.344  1.00  0.00     0.235 A 
HETATM    4  N3  UNL     1      26.571   7.193  47.996  1.00  0.00    -0.245 NA
HETATM    5  C6  UNL     1      26.569   6.079  48.795  1.00  0.00     0.054 A 
HETATM    6  C7  UNL     1      27.574   4.999  48.520  1.00  0.00     0.072 C 
HETATM    7  C8  UNL     1      25.670   6.094  49.845  1.00  0.00     0.087 A 
ENDROOT
BRANCH   1   8
HETATM    8  N1  UNL     1      24.060   6.999  51.438  1.00  0.00    -0.343 N 
HETATM    9  H5  UNL     1      24.370   7.326  52.349  1.00  0.00     0.167 HD
BRANCH   8  10
HETATM   10  C3  UNL     1      22.737   6.384  51.220  1.00  0.00     0.012 C 
HETATM   11  C2  UNL     1      21.812   7.022  50.406  1.00  0.00    -0.006 C 
HETATM   12  C1  UNL     1      21.305   8.089  49.518  1.00  0.00     0.038 C 
BRANCH  10  13
HETATM   13  C16 UNL     1      22.102   5.193  51.784  1.00  0.00     0.055 C 
HETATM   14  C17 UNL     1      22.878   4.704  53.014  1.00  0.00     0.018 C 
BRANCH  13  15
HETATM   15  C18 UNL     1      21.969   4.001  50.804  1.00  0.00     0.186 C 
BRANCH  15  16
HETATM   16  O2  UNL     1      21.648   2.886  51.451  1.00  0.00    -0.350 OA
BRANCH  16  17
HETATM   17  C19 UNL     1      21.340   1.821  52.072  1.00  0.00     0.069 A 
HETATM   18  C20 UNL     1      20.064   1.327  51.949  1.00  0.00     0.037 A 
HETATM   19  C21 UNL     1      19.669   0.153  52.595  1.00  0.00     0.003 A 
HETATM   20  C22 UNL     1      20.579  -0.502  53.350  1.00  0.00     0.007 A 
HETATM   21  C23 UNL     1      21.905  -0.093  53.545  1.00  0.00    -0.059 A 
HETATM   22  C24 UNL     1      22.822  -0.919  54.367  1.00  0.00     0.048 C 
HETATM   23  C25 UNL     1      22.217   1.085  52.870  1.00  0.00     0.043 A 
ENDBRANCH  16  17
ENDBRANCH  15  16
ENDBRANCH  13  15
ENDBRANCH  10  13
ENDBRANCH   8  10
ENDBRANCH   1   8
BRANCH   7  24
HETATM   24  C9  UNL     1      25.565   4.731  50.384  1.00  0.00    -0.061 C 
BRANCH  24  25
HETATM   25  C10 UNL     1      25.500   3.579  50.842  1.00  0.00    -0.099 C 
BRANCH  25  26
HETATM   26  C11 UNL     1      25.441   2.230  51.357  1.00  0.00     0.132 C 
BRANCH  26  27
HETATM   27  C12 UNL     1      26.769   1.697  51.723  1.00  0.00     0.255 C 
HETATM   28  C13 UNL     1      26.506   0.239  52.170  1.00  0.00     0.204 C 
HETATM   29  O1  UNL     1      26.176   0.232  53.527  1.00  0.00    -0.387 OA
HETATM   30  C14 UNL     1      27.267   0.531  54.325  1.00  0.00     0.197 C 
HETATM   31  C15 UNL     1      28.197   1.431  53.523  1.00  0.00     0.296 C 
HETATM   32  N4  UNL     1      27.356   2.388  52.833  1.00  0.00     0.093 N 
HETATM   33  H19 UNL     1      26.616   2.656  53.514  1.00  0.00     0.316 HD
ENDBRANCH  26  27
ENDBRANCH  25  26
ENDBRANCH  24  25
ENDBRANCH   7  24
TORSDOF 10
ENDMDL
MODEL 9
REMARK VINA RESULT:      -6.9      2.142      5.745
REMARK  10 active torsions:
REMARK  status: ('A' for Active; 'I' for Inactive)
REMARK    1  A    between atoms: C3_3  and  N1_4 
REMARK    2  A    between atoms: C3_3  and  C16_21 
REMARK    3  A    between atoms: N1_4  and  C4_5 
REMARK    4  A    between atoms: C8_11  and  C9_12 
REMARK    5  A    between atoms: C9_12  and  C10_13 
REMARK    6  A    between atoms: C10_13  and  C11_14 
REMARK    7  A    between atoms: C11_14  and  C12_15 
REMARK    8  A    between atoms: C16_21  and  C18_23 
REMARK    9  A    between atoms: C18_23  and  O2_24 
REMARK   10  A    between atoms: O2_24  and  C19_25 
ROOT
HETATM    1  C4  UNL     1      22.088   4.245  49.151  1.00  0.00     0.150 A 
HETATM    2  N2  UNL     1      22.035   5.503  48.646  1.00  0.00    -0.223 NA
HETATM    3  C5  UNL     1      20.899   6.129  48.381  1.00  0.00     0.235 A 
HETATM    4  N3  UNL     1      19.648   5.601  48.568  1.00  0.00    -0.245 NA
HETATM    5  C6  UNL     1      19.609   4.329  49.079  1.00  0.00     0.054 A 
HETATM    6  C7  UNL     1      18.274   3.660  49.232  1.00  0.00     0.072 C 
HETATM    7  C8  UNL     1      20.835   3.749  49.340  1.00  0.00     0.087 A 
ENDROOT
BRANCH   1   8
HETATM    8  N1  UNL     1      23.256   3.447  49.299  1.00  0.00    -0.343 N 
HETATM    9  H5  UNL     1      23.454   2.569  48.828  1.00  0.00     0.167 HD
BRANCH   8  10
HETATM   10  C3  UNL     1      24.192   4.071  50.252  1.00  0.00     0.012 C 
HETATM   11  C2  UNL     1      23.744   4.430  51.515  1.00  0.00    -0.006 C 
HETATM   12  C1  UNL     1      22.758   4.576  52.607  1.00  0.00     0.038 C 
BRANCH  10  13
HETATM   13  C16 UNL     1      25.582   4.506  50.122  1.00  0.00     0.055 C 
HETATM   14  C17 UNL     1      25.724   5.505  48.967  1.00  0.00     0.018 C 
BRANCH  13  15
HETATM   15  C18 UNL     1      26.603   3.364  49.887  1.00  0.00     0.186 C 
BRANCH  15  16
HETATM   16  O2  UNL     1      26.558   2.476  50.874  1.00  0.00    -0.350 OA
BRANCH  16  17
HETATM   17  C19 UNL     1      26.517   1.624  51.816  1.00  0.00     0.069 A 
HETATM   18  C20 UNL     1      26.203   2.052  53.083  1.00  0.00     0.037 A 
HETATM   19  C21 UNL     1      26.128   1.161  54.157  1.00  0.00     0.003 A 
HETATM   20  C22 UNL     1      26.367  -0.149  53.924  1.00  0.00     0.007 A 
HETATM   21  C23 UNL     1      26.692  -0.696  52.675  1.00  0.00    -0.059 A 
HETATM   22  C24 UNL     1      26.894  -2.158  52.537  1.00  0.00     0.048 C 
HETATM   23  C25 UNL     1      26.749   0.257  51.660  1.00  0.00     0.043 A 
ENDBRANCH  16  17
ENDBRANCH  15  16
ENDBRANCH  13  15
ENDBRANCH  10  13
ENDBRANCH   8  10
ENDBRANCH   1   8
BRANCH   7  24
HETATM   24  C9  UNL     1      20.616   2.556  50.171  1.00  0.00    -0.061 C 
BRANCH  24  25
HETATM   25  C10 UNL     1      20.450   1.555  50.885  1.00  0.00    -0.099 C 
BRANCH  25  26
HETATM   26  C11 UNL     1      20.257   0.405  51.739  1.00  0.00     0.132 C 
BRANCH  26  27
HETATM   27  C12 UNL     1      20.717   0.633  53.124  1.00  0.00     0.255 C 
HETATM   28  C13 UNL     1      22.250   0.806  53.012  1.00  0.00     0.204 C 
HETATM   29  O1  UNL     1      22.854  -0.452  53.064  1.00  0.00    -0.387 OA
HETATM   30  C14 UNL     1      22.771  -1.013  54.327  1.00  0.00     0.197 C 
HETATM   31  C15 UNL     1      21.509  -0.477  54.990  1.00  0.00     0.296 C 
HETATM   32  N4  UNL     1      20.471  -0.489  53.980  1.00  0.00     0.093 N 
HETATM   33  H19 UNL     1      20.603  -1.374  53.450  1.00  0.00     0.316 HD
ENDBRANCH  26  27
ENDBRANCH  25  26
ENDBRANCH  24  25
ENDBRANCH   7  24
TORSDOF 10
ENDMDL
