MODEL 1
REMARK VINA RESULT:      -6.9      0.000      0.000
REMARK  5 active torsions:
REMARK  status: ('A' for Active; 'I' for Inactive)
REMARK    1  A    between atoms: C2_2  and  C3_3 
REMARK    2  A    between atoms: C3_3  and  O3_22 
REMARK    3  A    between atoms: C4_4  and  N1_5 
REMARK    4  A    between atoms: C13_19  and  O2_20 
REMARK    5  A    between atoms: O3_22  and  C15_23 
ROOT
HETATM    1  N1  UNL     1      23.277   1.406  52.330  1.00  0.00    -0.268 N 
HETATM    2  C5  UNL     1      22.750   0.070  52.640  1.00  0.00     0.456 A 
HETATM    3  O1  UNL     1      23.132   0.481  53.717  1.00  0.00    -0.124 OA
HETATM    4  N2  UNL     1      22.550  -0.850  53.700  1.00  0.00     0.112 N 
HETATM    5  C6  UNL     1      22.665  -1.252  55.083  1.00  0.00     0.297 C 
HETATM    6  C7  UNL     1      24.088  -1.453  55.441  1.00  0.00     0.152 C 
HETATM    7  N3  UNL     1      25.084  -0.462  55.238  1.00  0.00    -0.372 N 
HETATM    8  C8  UNL     1      25.991   0.229  54.360  1.00  0.00     0.136 A 
HETATM    9  N4  UNL     1      27.045  -0.588  54.269  1.00  0.00    -0.224 NA
HETATM   10  C9  UNL     1      28.131  -0.287  53.499  1.00  0.00     0.234 A 
HETATM   11  N5  UNL     1      28.147   0.864  52.812  1.00  0.00    -0.253 NA
HETATM   12  C10 UNL     1      27.040   1.656  52.947  1.00  0.00     0.133 A 
HETATM   13  C11 UNL     1      25.887   1.421  53.715  1.00  0.00     0.031 A 
HETATM   14  C12 UNL     1      25.056   2.574  53.485  1.00  0.00     0.073 C 
HETATM   15  C13 UNL     1      23.864   2.634  52.865  1.00  0.00     0.148 C 
HETATM   16  H5  UNL     1      22.074  -1.564  53.052  1.00  0.00     0.324 HD
HETATM   17  H10 UNL     1      25.333   0.079  56.123  1.00  0.00     0.161 HD
ENDROOT
BRANCH   1  18
HETATM   18  C4  UNL     1      23.119   1.395  50.929  1.00  0.00     0.135 C 
HETATM   19  C3  UNL     1      21.967   1.610  50.308  1.00  0.00     0.083 C 
BRANCH  19  20
HETATM   20  C2  UNL     1      21.972   1.569  48.875  1.00  0.00     0.028 C 
HETATM   21  C1  UNL     1      22.309   2.130  47.786  1.00  0.00     0.014 C 
ENDBRANCH  19  20
BRANCH  19  22
HETATM   22  O3  UNL     1      20.634   1.886  50.569  1.00  0.00    -0.350 OA
BRANCH  22  23
HETATM   23  C15 UNL     1      19.523   1.129  50.233  1.00  0.00     0.171 C 
HETATM   24  C16 UNL     1      19.212   0.241  51.440  1.00  0.00     0.034 C 
ENDBRANCH  22  23
ENDBRANCH  19  22
ENDBRANCH   1  18
BRANCH  15  25
HETATM   25  O2  UNL     1      23.117   3.749  52.677  1.00  0.00    -0.341 OA
HETATM   26  C14 UNL     1      23.620   4.910  51.999  1.00  0.00     0.211 C 
ENDBRANCH  15  25
TORSDOF 5
ENDMDL
MODEL 2
REMARK VINA RESULT:      -6.8      2.054      6.364
REMARK  5 active torsions:
REMARK  status: ('A' for Active; 'I' for Inactive)
REMARK    1  A    between atoms: C2_2  and  C3_3 
REMARK    2  A    between atoms: C3_3  and  O3_22 
REMARK    3  A    between atoms: C4_4  and  N1_5 
REMARK    4  A    between atoms: C13_19  and  O2_20 
REMARK    5  A    between atoms: O3_22  and  C15_23 
ROOT
HETATM    1  N1  UNL     1      23.967   0.962  52.934  1.00  0.00    -0.268 N 
HETATM    2  C5  UNL     1      24.726   2.217  52.852  1.00  0.00     0.456 A 
HETATM    3  O1  UNL     1      23.592   2.586  53.083  1.00  0.00    -0.124 OA
HETATM    4  N2  UNL     1      24.596   3.626  52.941  1.00  0.00     0.112 N 
HETATM    5  C6  UNL     1      23.815   4.830  53.115  1.00  0.00     0.297 C 
HETATM    6  C7  UNL     1      22.897   5.016  51.969  1.00  0.00     0.152 C 
HETATM    7  N3  UNL     1      21.984   4.017  51.539  1.00  0.00    -0.372 N 
HETATM    8  C8  UNL     1      21.720   2.797  50.823  1.00  0.00     0.136 A 
HETATM    9  N4  UNL     1      21.614   3.183  49.548  1.00  0.00    -0.224 NA
HETATM   10  C9  UNL     1      21.377   2.294  48.540  1.00  0.00     0.234 A 
HETATM   11  N5  UNL     1      21.244   0.993  48.832  1.00  0.00    -0.253 NA
HETATM   12  C10 UNL     1      21.361   0.663  50.154  1.00  0.00     0.133 A 
HETATM   13  C11 UNL     1      21.604   1.511  51.248  1.00  0.00     0.031 A 
HETATM   14  C12 UNL     1      21.631   0.634  52.389  1.00  0.00     0.073 C 
HETATM   15  C13 UNL     1      22.668   0.343  53.194  1.00  0.00     0.148 C 
HETATM   16  H5  UNL     1      25.649   3.779  52.789  1.00  0.00     0.324 HD
HETATM   17  H10 UNL     1      20.985   4.180  51.876  1.00  0.00     0.161 HD
ENDROOT
BRANCH   1  18
HETATM   18  C4  UNL     1      24.991   0.053  52.597  1.00  0.00     0.135 C 
HETATM   19  C3  UNL     1      26.159  -0.017  53.222  1.00  0.00     0.083 C 
BRANCH  19  20
HETATM   20  C2  UNL     1      27.096  -1.000  52.762  1.00  0.00     0.028 C 
HETATM   21  C1  UNL     1      27.366  -2.230  52.596  1.00  0.00     0.014 C 
ENDBRANCH  19  20
BRANCH  19  22
HETATM   22  O3  UNL     1      26.867   0.573  54.257  1.00  0.00    -0.350 OA
BRANCH  22  23
HETATM   23  C15 UNL     1      28.197   0.966  54.267  1.00  0.00     0.171 C 
HETATM   24  C16 UNL     1      28.261   2.325  53.567  1.00  0.00     0.034 C 
ENDBRANCH  22  23
ENDBRANCH  19  22
ENDBRANCH   1  18
BRANCH  15  25
HETATM   25  O2  UNL     1      22.640  -0.490  54.263  1.00  0.00    -0.341 OA
HETATM   26  C14 UNL     1      21.475  -1.249  54.620  1.00  0.00     0.211 C 
ENDBRANCH  15  25
TORSDOF 5
ENDMDL
MODEL 3
REMARK VINA RESULT:      -6.8      1.832      2.727
REMARK  5 active torsions:
REMARK  status: ('A' for Active; 'I' for Inactive)
REMARK    1  A    between atoms: C2_2  and  C3_3 
REMARK    2  A    between atoms: C3_3  and  O3_22 
REMARK    3  A    between atoms: C4_4  and  N1_5 
REMARK    4  A    between atoms: C13_19  and  O2_20 
REMARK    5  A    between atoms: O3_22  and  C15_23 
ROOT
HETATM    1  N1  UNL     1      22.181   2.037  51.707  1.00  0.00    -0.268 N 
HETATM    2  C5  UNL     1      21.376   0.815  51.834  1.00  0.00     0.456 A 
HETATM    3  O1  UNL     1      21.824   0.977  52.951  1.00  0.00    -0.124 OA
HETATM    4  N2  UNL     1      20.971  -0.182  52.756  1.00  0.00     0.112 N 
HETATM    5  C6  UNL     1      20.981  -0.793  54.066  1.00  0.00     0.297 C 
HETATM    6  C7  UNL     1      22.323  -1.343  54.364  1.00  0.00     0.152 C 
HETATM    7  N3  UNL     1      23.511  -0.570  54.284  1.00  0.00    -0.372 N 
HETATM    8  C8  UNL     1      24.555   0.030  53.496  1.00  0.00     0.136 A 
HETATM    9  N4  UNL     1      25.410  -0.973  53.269  1.00  0.00    -0.224 NA
HETATM   10  C9  UNL     1      26.544  -0.804  52.528  1.00  0.00     0.234 A 
HETATM   11  N5  UNL     1      26.814   0.403  52.011  1.00  0.00    -0.253 NA
HETATM   12  C10 UNL     1      25.902   1.386  52.280  1.00  0.00     0.133 A 
HETATM   13  C11 UNL     1      24.717   1.296  53.028  1.00  0.00     0.031 A 
HETATM   14  C12 UNL     1      24.155   2.620  52.980  1.00  0.00     0.073 C 
HETATM   15  C13 UNL     1      23.011   3.022  52.399  1.00  0.00     0.148 C 
HETATM   16  H5  UNL     1      20.360  -0.678  52.023  1.00  0.00     0.324 HD
HETATM   17  H10 UNL     1      23.860  -0.226  55.232  1.00  0.00     0.161 HD
ENDROOT
BRANCH   1  18
HETATM   18  C4  UNL     1      22.040   2.261  50.322  1.00  0.00     0.135 C 
HETATM   19  C3  UNL     1      23.044   2.573  49.512  1.00  0.00     0.083 C 
BRANCH  19  20
HETATM   20  C2  UNL     1      22.737   2.765  48.125  1.00  0.00     0.028 C 
HETATM   21  C1  UNL     1      21.962   3.273  47.258  1.00  0.00     0.014 C 
ENDBRANCH  19  20
BRANCH  19  22
HETATM   22  O3  UNL     1      24.411   2.802  49.526  1.00  0.00    -0.350 OA
BRANCH  22  23
HETATM   23  C15 UNL     1      25.075   4.012  49.400  1.00  0.00     0.171 C 
HETATM   24  C16 UNL     1      26.573   3.703  49.479  1.00  0.00     0.034 C 
ENDBRANCH  22  23
ENDBRANCH  19  22
ENDBRANCH   1  18
BRANCH  15  25
HETATM   25  O2  UNL     1      22.523   4.286  52.386  1.00  0.00    -0.341 OA
HETATM   26  C14 UNL     1      23.359   5.435  52.179  1.00  0.00     0.211 C 
ENDBRANCH  15  25
TORSDOF 5
ENDMDL
MODEL 4
REMARK VINA RESULT:      -6.6      2.067      4.967
REMARK  5 active torsions:
REMARK  status: ('A' for Active; 'I' for Inactive)
REMARK    1  A    between atoms: C2_2  and  C3_3 
REMARK    2  A    between atoms: C3_3  and  O3_22 
REMARK    3  A    between atoms: C4_4  and  N1_5 
REMARK    4  A    between atoms: C13_19  and  O2_20 
REMARK    5  A    between atoms: O3_22  and  C15_23 
ROOT
HETATM    1  N1  UNL     1      23.440   3.035  51.335  1.00  0.00    -0.268 N 
HETATM    2  C5  UNL     1      24.512   3.232  52.320  1.00  0.00     0.456 A 
HETATM    3  O1  UNL     1      24.663   2.081  51.961  1.00  0.00    -0.124 OA
HETATM    4  N2  UNL     1      25.594   2.576  52.961  1.00  0.00     0.112 N 
HETATM    5  C6  UNL     1      26.421   1.418  53.209  1.00  0.00     0.297 C 
HETATM    6  C7  UNL     1      25.637   0.366  53.895  1.00  0.00     0.152 C 
HETATM    7  N3  UNL     1      24.406  -0.133  53.393  1.00  0.00    -0.372 N 
HETATM    8  C8  UNL     1      22.986   0.012  53.211  1.00  0.00     0.136 A 
HETATM    9  N4  UNL     1      22.464  -0.391  54.374  1.00  0.00    -0.224 NA
HETATM   10  C9  UNL     1      21.120  -0.386  54.606  1.00  0.00     0.234 A 
HETATM   11  N5  UNL     1      20.291   0.033  53.638  1.00  0.00    -0.253 NA
HETATM   12  C10 UNL     1      20.886   0.431  52.473  1.00  0.00     0.133 A 
HETATM   13  C11 UNL     1      22.254   0.457  52.156  1.00  0.00     0.031 A 
HETATM   14  C12 UNL     1      22.306   0.963  50.809  1.00  0.00     0.073 C 
HETATM   15  C13 UNL     1      22.828   2.121  50.371  1.00  0.00     0.148 C 
HETATM   16  H5  UNL     1      25.864   3.461  53.510  1.00  0.00     0.324 HD
HETATM   17  H10 UNL     1      24.500  -1.067  52.888  1.00  0.00     0.161 HD
ENDROOT
BRANCH   1  18
HETATM   18  C4  UNL     1      22.792   4.282  51.450  1.00  0.00     0.135 C 
HETATM   19  C3  UNL     1      23.255   5.413  50.933  1.00  0.00     0.083 C 
BRANCH  19  20
HETATM   20  C2  UNL     1      22.476   6.599  51.135  1.00  0.00     0.028 C 
HETATM   21  C1  UNL     1      21.557   7.365  50.709  1.00  0.00     0.014 C 
ENDBRANCH  19  20
BRANCH  19  22
HETATM   22  O3  UNL     1      24.322   5.908  50.199  1.00  0.00    -0.350 OA
BRANCH  22  23
HETATM   23  C15 UNL     1      24.818   5.439  48.992  1.00  0.00     0.171 C 
HETATM   24  C16 UNL     1      26.077   4.631  49.317  1.00  0.00     0.034 C 
ENDBRANCH  22  23
ENDBRANCH  19  22
ENDBRANCH   1  18
BRANCH  15  25
HETATM   25  O2  UNL     1      22.855   2.550  49.086  1.00  0.00    -0.341 OA
HETATM   26  C14 UNL     1      22.173   1.860  48.027  1.00  0.00     0.211 C 
ENDBRANCH  15  25
TORSDOF 5
ENDMDL
MODEL 5
REMARK VINA RESULT:      -6.4      9.464     11.727
REMARK  5 active torsions:
REMARK  status: ('A' for Active; 'I' for Inactive)
REMARK    1  A    between atoms: C2_2  and  C3_3 
REMARK    2  A    between atoms: C3_3  and  O3_22 
REMARK    3  A    between atoms: C4_4  and  N1_5 
REMARK    4  A    between atoms: C13_19  and  O2_20 
REMARK    5  A    between atoms: O3_22  and  C15_23 
ROOT
HETATM    1  N1  UNL     1      31.788   5.998  48.425  1.00  0.00    -0.268 N 
HETATM    2  C5  UNL     1      32.224   4.596  48.378  1.00  0.00     0.456 A 
HETATM    3  O1  UNL     1      33.238   5.218  48.129  1.00  0.00    -0.124 OA
HETATM    4  N2  UNL     1      33.353   3.770  48.151  1.00  0.00     0.112 N 
HETATM    5  C6  UNL     1      34.745   3.569  47.817  1.00  0.00     0.297 C 
HETATM    6  C7  UNL     1      34.996   3.958  46.411  1.00  0.00     0.152 C 
HETATM    7  N3  UNL     1      34.647   5.231  45.887  1.00  0.00    -0.372 N 
HETATM    8  C8  UNL     1      33.655   6.134  45.365  1.00  0.00     0.136 A 
HETATM    9  N4  UNL     1      33.529   5.774  44.083  1.00  0.00    -0.224 NA
HETATM   10  C9  UNL     1      32.654   6.395  43.240  1.00  0.00     0.234 A 
HETATM   11  N5  UNL     1      31.896   7.399  43.707  1.00  0.00    -0.253 NA
HETATM   12  C10 UNL     1      32.073   7.718  45.024  1.00  0.00     0.133 A 
HETATM   13  C11 UNL     1      32.947   7.132  45.955  1.00  0.00     0.031 A 
HETATM   14  C12 UNL     1      32.714   7.855  47.178  1.00  0.00     0.073 C 
HETATM   15  C13 UNL     1      32.193   7.400  48.331  1.00  0.00     0.148 C 
HETATM   16  H5  UNL     1      32.794   2.872  48.347  1.00  0.00     0.324 HD
HETATM   17  H10 UNL     1      35.473   5.904  45.821  1.00  0.00     0.161 HD
ENDROOT
BRANCH   1  18
HETATM   18  C4  UNL     1      30.409   5.801  48.640  1.00  0.00     0.135 C 
HETATM   19  C3  UNL     1      29.455   6.290  47.857  1.00  0.00     0.083 C 
BRANCH  19  20
HETATM   20  C2  UNL     1      28.097   5.997  48.209  1.00  0.00     0.028 C 
HETATM   21  C1  UNL     1      27.268   5.161  48.684  1.00  0.00     0.014 C 
ENDBRANCH  19  20
BRANCH  19  22
HETATM   22  O3  UNL     1      29.284   7.055  46.713  1.00  0.00    -0.350 OA
BRANCH  22  23
HETATM   23  C15 UNL     1      28.673   8.294  46.598  1.00  0.00     0.171 C 
HETATM   24  C16 UNL     1      28.325   8.478  45.118  1.00  0.00     0.034 C 
ENDBRANCH  22  23
ENDBRANCH  19  22
ENDBRANCH   1  18
BRANCH  15  25
HETATM   25  O2  UNL     1      31.998   8.125  49.460  1.00  0.00    -0.341 OA
HETATM   26  C14 UNL     1      31.098   9.242  49.514  1.00  0.00     0.211 C 
ENDBRANCH  15  25
TORSDOF 5
ENDMDL
MODEL 6
REMARK VINA RESULT:      -6.4      2.599      4.779
REMARK  5 active torsions:
REMARK  status: ('A' for Active; 'I' for Inactive)
REMARK    1  A    between atoms: C2_2  and  C3_3 
REMARK    2  A    between atoms: C3_3  and  O3_22 
REMARK    3  A    between atoms: C4_4  and  N1_5 
REMARK    4  A    between atoms: C13_19  and  O2_20 
REMARK    5  A    between atoms: O3_22  and  C15_23 
ROOT
HETATM    1  N1  UNL     1      19.592   1.559  50.901  1.00  0.00    -0.268 N 
HETATM    2  C5  UNL     1      18.672   0.467  50.559  1.00  0.00     0.456 A 
HETATM    3  O1  UNL     1      18.417   0.698  51.724  1.00  0.00    -0.124 OA
HETATM    4  N2  UNL     1      17.652  -0.363  51.091  1.00  0.00     0.112 N 
HETATM    5  C6  UNL     1      16.808  -0.817  52.172  1.00  0.00     0.297 C 
HETATM    6  C7  UNL     1      17.621  -1.490  53.209  1.00  0.00     0.152 C 
HETATM    7  N3  UNL     1      18.749  -0.883  53.823  1.00  0.00    -0.372 N 
HETATM    8  C8  UNL     1      20.138  -0.509  53.782  1.00  0.00     0.136 A 
HETATM    9  N4  UNL     1      20.787  -1.628  54.119  1.00  0.00    -0.224 NA
HETATM   10  C9  UNL     1      22.149  -1.685  54.177  1.00  0.00     0.234 A 
HETATM   11  N5  UNL     1      22.863  -0.586  53.891  1.00  0.00    -0.253 NA
HETATM   12  C10 UNL     1      22.141   0.525  53.555  1.00  0.00     0.133 A 
HETATM   13  C11 UNL     1      20.745   0.666  53.471  1.00  0.00     0.031 A 
HETATM   14  C12 UNL     1      20.542   2.036  53.076  1.00  0.00     0.073 C 
HETATM   15  C13 UNL     1      20.025   2.506  51.928  1.00  0.00     0.148 C 
HETATM   16  H5  UNL     1      17.501  -0.860  50.149  1.00  0.00     0.324 HD
HETATM   17  H10 UNL     1      18.541  -0.479  54.789  1.00  0.00     0.161 HD
ENDROOT
BRANCH   1  18
HETATM   18  C4  UNL     1      20.312   1.639  49.692  1.00  0.00     0.135 C 
HETATM   19  C3  UNL     1      21.635   1.604  49.608  1.00  0.00     0.083 C 
BRANCH  19  20
HETATM   20  C2  UNL     1      22.217   1.693  48.300  1.00  0.00     0.028 C 
HETATM   21  C1  UNL     1      22.392   2.383  47.249  1.00  0.00     0.014 C 
ENDBRANCH  19  20
BRANCH  19  22
HETATM   22  O3  UNL     1      22.765   1.503  50.404  1.00  0.00    -0.350 OA
BRANCH  22  23
HETATM   23  C15 UNL     1      23.733   2.468  50.640  1.00  0.00     0.171 C 
HETATM   24  C16 UNL     1      24.766   1.836  51.577  1.00  0.00     0.034 C 
ENDBRANCH  22  23
ENDBRANCH  19  22
ENDBRANCH   1  18
BRANCH  15  25
HETATM   25  O2  UNL     1      19.850   3.811  51.606  1.00  0.00    -0.341 OA
HETATM   26  C14 UNL     1      20.945   4.733  51.497  1.00  0.00     0.211 C 
ENDBRANCH  15  25
TORSDOF 5
ENDMDL
MODEL 7
REMARK VINA RESULT:      -6.2      2.627      6.071
REMARK  5 active torsions:
REMARK  status: ('A' for Active; 'I' for Inactive)
REMARK    1  A    between atoms: C2_2  and  C3_3 
REMARK    2  A    between atoms: C3_3  and  O3_22 
REMARK    3  A    between atoms: C4_4  and  N1_5 
REMARK    4  A    between atoms: C13_19  and  O2_20 
REMARK    5  A    between atoms: O3_22  and  C15_23 
ROOT
HETATM    1  N1  UNL     1      23.251   2.887  50.868  1.00  0.00    -0.268 N 
HETATM    2  C5  UNL     1      23.270   2.546  49.439  1.00  0.00     0.456 A 
HETATM    3  O1  UNL     1      22.284   3.247  49.551  1.00  0.00    -0.124 OA
HETATM    4  N2  UNL     1      22.571   2.739  48.221  1.00  0.00     0.112 N 
HETATM    5  C6  UNL     1      21.475   3.275  47.446  1.00  0.00     0.297 C 
HETATM    6  C7  UNL     1      20.204   2.629  47.843  1.00  0.00     0.152 C 
HETATM    7  N3  UNL     1      19.746   2.582  49.187  1.00  0.00    -0.372 N 
HETATM    8  C8  UNL     1      19.797   1.993  50.499  1.00  0.00     0.136 A 
HETATM    9  N4  UNL     1      19.039   0.897  50.395  1.00  0.00    -0.224 NA
HETATM   10  C9  UNL     1      18.849   0.046  51.445  1.00  0.00     0.234 A 
HETATM   11  N5  UNL     1      19.437   0.314  52.619  1.00  0.00    -0.253 NA
HETATM   12  C10 UNL     1      20.198   1.450  52.661  1.00  0.00     0.133 A 
HETATM   13  C11 UNL     1      20.444   2.374  51.632  1.00  0.00     0.031 A 
HETATM   14  C12 UNL     1      21.306   3.361  52.228  1.00  0.00     0.073 C 
HETATM   15  C13 UNL     1      22.586   3.644  51.928  1.00  0.00     0.148 C 
HETATM   16  H5  UNL     1      23.290   2.165  47.664  1.00  0.00     0.324 HD
HETATM   17  H10 UNL     1      19.002   3.314  49.409  1.00  0.00     0.161 HD
ENDROOT
BRANCH   1  18
HETATM   18  C4  UNL     1      24.348   2.115  51.301  1.00  0.00     0.135 C 
HETATM   19  C3  UNL     1      24.279   1.187  52.247  1.00  0.00     0.083 C 
BRANCH  19  20
HETATM   20  C2  UNL     1      25.485   0.484  52.572  1.00  0.00     0.028 C 
HETATM   21  C1  UNL     1      26.529  -0.107  52.155  1.00  0.00     0.014 C 
ENDBRANCH  19  20
BRANCH  19  22
HETATM   22  O3  UNL     1      23.375   0.596  53.116  1.00  0.00    -0.350 OA
BRANCH  22  23
HETATM   23  C15 UNL     1      23.090  -0.752  53.265  1.00  0.00     0.171 C 
HETATM   24  C16 UNL     1      22.400  -0.910  54.623  1.00  0.00     0.034 C 
ENDBRANCH  22  23
ENDBRANCH  19  22
ENDBRANCH   1  18
BRANCH  15  25
HETATM   25  O2  UNL     1      23.354   4.590  52.519  1.00  0.00    -0.341 OA
HETATM   26  C14 UNL     1      23.785   5.775  51.831  1.00  0.00     0.211 C 
ENDBRANCH  15  25
TORSDOF 5
ENDMDL
MODEL 8
REMARK VINA RESULT:      -6.1      9.962     12.569
REMARK  5 active torsions:
REMARK  status: ('A' for Active; 'I' for Inactive)
REMARK    1  A    between atoms: C2_2  and  C3_3 
REMARK    2  A    between atoms: C3_3  and  O3_22 
REMARK    3  A    between atoms: C4_4  and  N1_5 
REMARK    4  A    between atoms: C13_19  and  O2_20 
REMARK    5  A    between atoms: O3_22  and  C15_23 
ROOT
HETATM    1  N1  UNL     1      33.179   8.030  47.045  1.00  0.00    -0.268 N 
HETATM    2  C5  UNL     1      32.585   9.230  46.440  1.00  0.00     0.456 A 
HETATM    3  O1  UNL     1      32.338   9.356  47.622  1.00  0.00    -0.124 OA
HETATM    4  N2  UNL     1      31.862  10.411  46.744  1.00  0.00     0.112 N 
HETATM    5  C6  UNL     1      31.188  11.296  47.666  1.00  0.00     0.297 C 
HETATM    6  C7  UNL     1      29.966  10.649  48.196  1.00  0.00     0.152 C 
HETATM    7  N3  UNL     1      29.973   9.371  48.814  1.00  0.00    -0.372 N 
HETATM    8  C8  UNL     1      30.002   7.936  48.708  1.00  0.00     0.136 A 
HETATM    9  N4  UNL     1      28.733   7.603  48.452  1.00  0.00    -0.224 NA
HETATM   10  C9  UNL     1      28.349   6.307  48.264  1.00  0.00     0.234 A 
HETATM   11  N5  UNL     1      29.269   5.334  48.340  1.00  0.00    -0.253 NA
HETATM   12  C10 UNL     1      30.547   5.740  48.605  1.00  0.00     0.133 A 
HETATM   13  C11 UNL     1      31.024   7.046  48.809  1.00  0.00     0.031 A 
HETATM   14  C12 UNL     1      32.435   6.886  49.044  1.00  0.00     0.073 C 
HETATM   15  C13 UNL     1      33.461   7.308  48.285  1.00  0.00     0.148 C 
HETATM   16  H5  UNL     1      31.872  10.736  45.718  1.00  0.00     0.324 HD
HETATM   17  H10 UNL     1      29.952   9.415  49.880  1.00  0.00     0.161 HD
ENDROOT
BRANCH   1  18
HETATM   18  C4  UNL     1      33.611   7.374  45.874  1.00  0.00     0.135 C 
HETATM   19  C3  UNL     1      33.273   6.134  45.547  1.00  0.00     0.083 C 
BRANCH  19  20
HETATM   20  C2  UNL     1      33.793   5.610  44.318  1.00  0.00     0.028 C 
HETATM   21  C1  UNL     1      34.775   5.089  43.704  1.00  0.00     0.014 C 
ENDBRANCH  19  20
BRANCH  19  22
HETATM   22  O3  UNL     1      32.526   5.061  46.009  1.00  0.00    -0.350 OA
BRANCH  22  23
HETATM   23  C15 UNL     1      32.969   3.951  46.711  1.00  0.00     0.171 C 
HETATM   24  C16 UNL     1      31.925   2.851  46.503  1.00  0.00     0.034 C 
ENDBRANCH  22  23
ENDBRANCH  19  22
ENDBRANCH   1  18
BRANCH  15  25
HETATM   25  O2  UNL     1      34.778   7.134  48.554  1.00  0.00    -0.341 OA
HETATM   26  C14 UNL     1      35.334   5.856  48.896  1.00  0.00     0.211 C 
ENDBRANCH  15  25
TORSDOF 5
ENDMDL
MODEL 9
REMARK VINA RESULT:      -6.0      2.177      4.636
REMARK  5 active torsions:
REMARK  status: ('A' for Active; 'I' for Inactive)
REMARK    1  A    between atoms: C2_2  and  C3_3 
REMARK    2  A    between atoms: C3_3  and  O3_22 
REMARK    3  A    between atoms: C4_4  and  N1_5 
REMARK    4  A    between atoms: C13_19  and  O2_20 
REMARK    5  A    between atoms: O3_22  and  C15_23 
ROOT
HETATM    1  N1  UNL     1      23.511   3.295  50.606  1.00  0.00    -0.268 N 
HETATM    2  C5  UNL     1      24.548   3.487  51.627  1.00  0.00     0.456 A 
HETATM    3  O1  UNL     1      24.616   2.301  51.373  1.00  0.00    -0.124 OA
HETATM    4  N2  UNL     1      25.539   2.803  52.377  1.00  0.00     0.112 N 
HETATM    5  C6  UNL     1      26.251   1.607  52.763  1.00  0.00     0.297 C 
HETATM    6  C7  UNL     1      25.348   0.686  53.490  1.00  0.00     0.152 C 
HETATM    7  N3  UNL     1      24.104   0.248  52.966  1.00  0.00    -0.372 N 
HETATM    8  C8  UNL     1      22.711   0.492  52.697  1.00  0.00     0.136 A 
HETATM    9  N4  UNL     1      22.104   0.236  53.860  1.00  0.00    -0.224 NA
HETATM   10  C9  UNL     1      20.755   0.371  54.018  1.00  0.00     0.234 A 
HETATM   11  N5  UNL     1      20.011   0.771  52.977  1.00  0.00    -0.253 NA
HETATM   12  C10 UNL     1      20.691   1.017  51.816  1.00  0.00     0.133 A 
HETATM   13  C11 UNL     1      22.070   0.904  51.571  1.00  0.00     0.031 A 
HETATM   14  C12 UNL     1      22.228   1.285  50.192  1.00  0.00     0.073 C 
HETATM   15  C13 UNL     1      22.868   2.355  49.689  1.00  0.00     0.148 C 
HETATM   16  H5  UNL     1      25.859   3.707  52.865  1.00  0.00     0.324 HD
HETATM   17  H10 UNL     1      24.141  -0.731  52.545  1.00  0.00     0.161 HD
ENDROOT
BRANCH   1  18
HETATM   18  C4  UNL     1      22.968   4.596  50.584  1.00  0.00     0.135 C 
HETATM   19  C3  UNL     1      21.680   4.870  50.750  1.00  0.00     0.083 C 
BRANCH  19  20
HETATM   20  C2  UNL     1      21.287   6.247  50.705  1.00  0.00     0.028 C 
HETATM   21  C1  UNL     1      21.644   7.466  50.681  1.00  0.00     0.014 C 
ENDBRANCH  19  20
BRANCH  19  22
HETATM   22  O3  UNL     1      20.464   4.244  50.973  1.00  0.00    -0.350 OA
BRANCH  22  23
HETATM   23  C15 UNL     1      19.237   4.531  50.396  1.00  0.00     0.171 C 
HETATM   24  C16 UNL     1      18.802   3.275  49.636  1.00  0.00     0.034 C 
ENDBRANCH  22  23
ENDBRANCH  19  22
ENDBRANCH   1  18
BRANCH  15  25
HETATM   25  O2  UNL     1      22.991   2.667  48.376  1.00  0.00    -0.341 OA
HETATM   26  C14 UNL     1      21.860   2.769  47.497  1.00  0.00     0.211 C 
ENDBRANCH  15  25
TORSDOF 5
ENDMDL
