MODEL 1
REMARK VINA RESULT:      -8.6      0.000      0.000
REMARK  2 active torsions:
REMARK  status: ('A' for Active; 'I' for Inactive)
REMARK    1  A    between atoms: C6_7  and  N2_8 
REMARK    2  A    between atoms: N2_8  and  C7_9 
ROOT
HETATM    1  C1  UNL     1      20.715   1.562  52.451  1.00  0.00     0.046 C 
HETATM    2  C2  UNL     1      21.533   0.654  53.316  1.00  0.00    -0.052 C 
HETATM    3  C3  UNL     1      22.824   0.662  52.977  1.00  0.00    -0.035 A 
HETATM    4  C4  UNL     1      23.161   1.534  51.859  1.00  0.00     0.086 A 
HETATM    5  C5  UNL     1      24.623   1.433  51.604  1.00  0.00     0.096 A 
HETATM    6  N1  UNL     1      25.474   0.698  52.256  1.00  0.00    -0.246 NA
HETATM    7  C6  UNL     1      25.107  -0.134  53.334  1.00  0.00     0.138 A 
HETATM    8  C13 UNL     1      23.818  -0.149  53.683  1.00  0.00     0.018 A 
HETATM    9  C14 UNL     1      23.670  -1.068  54.813  1.00  0.00     0.040 C 
HETATM   10  C15 UNL     1      22.536  -1.510  55.379  1.00  0.00     0.136 C 
HETATM   11  O1  UNL     1      21.269  -1.138  54.953  1.00  0.00    -0.359 OA
HETATM   12  C16 UNL     1      20.725  -0.034  54.335  1.00  0.00     0.209 C 
ENDROOT
BRANCH   7  13
HETATM   13  N2  UNL     1      26.148  -0.875  53.942  1.00  0.00    -0.340 N 
HETATM   14  H7  UNL     1      26.083  -1.789  54.446  1.00  0.00     0.167 HD
BRANCH  13  15
HETATM   15  C7  UNL     1      27.501  -0.377  53.901  1.00  0.00     0.036 A 
HETATM   16  C8  UNL     1      28.366  -1.285  53.322  1.00  0.00     0.029 A 
HETATM   17  C9  UNL     1      29.730  -1.007  53.178  1.00  0.00     0.005 A 
HETATM   18  C10 UNL     1      30.166   0.231  53.648  1.00  0.00     0.042 A 
HETATM   19  C11 UNL     1      29.295   1.130  54.223  1.00  0.00     0.118 A 
HETATM   20  F1  UNL     1      29.695   2.354  54.694  1.00  0.00    -0.206 F 
HETATM   21  C12 UNL     1      27.955   0.847  54.360  1.00  0.00     0.071 A 
ENDBRANCH  13  15
ENDBRANCH   7  13
TORSDOF 2
ENDMDL
MODEL 2
REMARK VINA RESULT:      -8.5      1.852      3.075
REMARK  2 active torsions:
REMARK  status: ('A' for Active; 'I' for Inactive)
REMARK    1  A    between atoms: C6_7  and  N2_8 
REMARK    2  A    between atoms: N2_8  and  C7_9 
ROOT
HETATM    1  C1  UNL     1      20.327  -1.181  53.838  1.00  0.00     0.046 C 
HETATM    2  C2  UNL     1      21.362  -0.384  53.107  1.00  0.00    -0.052 C 
HETATM    3  C3  UNL     1      22.560  -0.457  53.689  1.00  0.00    -0.035 A 
HETATM    4  C4  UNL     1      22.610  -1.281  54.890  1.00  0.00     0.086 A 
HETATM    5  C5  UNL     1      24.001  -1.262  55.418  1.00  0.00     0.096 A 
HETATM    6  N1  UNL     1      25.014  -0.626  54.911  1.00  0.00    -0.246 NA
HETATM    7  C6  UNL     1      24.924   0.163  53.746  1.00  0.00     0.138 A 
HETATM    8  C13 UNL     1      23.729   0.242  53.153  1.00  0.00     0.018 A 
HETATM    9  C14 UNL     1      23.870   1.100  51.974  1.00  0.00     0.040 C 
HETATM   10  C15 UNL     1      22.902   1.581  51.180  1.00  0.00     0.136 C 
HETATM   11  O1  UNL     1      21.552   1.320  51.369  1.00  0.00    -0.359 OA
HETATM   12  C16 UNL     1      20.818   0.294  51.920  1.00  0.00     0.209 C 
ENDROOT
BRANCH   7  13
HETATM   13  N2  UNL     1      26.115   0.795  53.317  1.00  0.00    -0.340 N 
HETATM   14  H7  UNL     1      26.240   1.773  52.969  1.00  0.00     0.167 HD
BRANCH  13  15
HETATM   15  C7  UNL     1      27.360   0.067  53.338  1.00  0.00     0.036 A 
HETATM   16  C8  UNL     1      28.431   0.887  53.636  1.00  0.00     0.029 A 
HETATM   17  C9  UNL     1      29.736   0.388  53.710  1.00  0.00     0.005 A 
HETATM   18  C10 UNL     1      29.896  -0.975  53.469  1.00  0.00     0.042 A 
HETATM   19  C11 UNL     1      28.822  -1.785  53.173  1.00  0.00     0.118 A 
HETATM   20  F1  UNL     1      28.949  -3.128  52.930  1.00  0.00    -0.206 F 
HETATM   21  C12 UNL     1      27.542  -1.285  53.101  1.00  0.00     0.071 A 
ENDBRANCH  13  15
ENDBRANCH   7  13
TORSDOF 2
ENDMDL
MODEL 3
REMARK VINA RESULT:      -8.3      2.289      3.210
REMARK  2 active torsions:
REMARK  status: ('A' for Active; 'I' for Inactive)
REMARK    1  A    between atoms: C6_7  and  N2_8 
REMARK    2  A    between atoms: N2_8  and  C7_9 
ROOT
HETATM    1  C1  UNL     1      22.722   2.919  48.954  1.00  0.00     0.046 C 
HETATM    2  C2  UNL     1      23.044   2.292  50.275  1.00  0.00    -0.052 C 
HETATM    3  C3  UNL     1      24.323   2.462  50.616  1.00  0.00    -0.035 A 
HETATM    4  C4  UNL     1      25.123   3.207  49.651  1.00  0.00     0.086 A 
HETATM    5  C5  UNL     1      26.513   3.310  50.170  1.00  0.00     0.096 A 
HETATM    6  N1  UNL     1      26.960   2.826  51.290  1.00  0.00    -0.246 NA
HETATM    7  C6  UNL     1      26.153   2.110  52.197  1.00  0.00     0.138 A 
HETATM    8  C13 UNL     1      24.870   1.935  51.867  1.00  0.00     0.018 A 
HETATM    9  C14 UNL     1      24.230   1.177  52.944  1.00  0.00     0.040 C 
HETATM   10  C15 UNL     1      22.999   0.642  52.962  1.00  0.00     0.136 C 
HETATM   11  O1  UNL     1      22.105   0.737  51.905  1.00  0.00    -0.359 OA
HETATM   12  C16 UNL     1      21.878   1.636  50.887  1.00  0.00     0.209 C 
ENDROOT
BRANCH   7  13
HETATM   13  N2  UNL     1      26.786   1.645  53.375  1.00  0.00    -0.340 N 
HETATM   14  H7  UNL     1      26.705   2.025  54.346  1.00  0.00     0.167 HD
BRANCH  13  15
HETATM   15  C7  UNL     1      27.665   0.504  53.314  1.00  0.00     0.036 A 
HETATM   16  C8  UNL     1      28.968   0.841  53.619  1.00  0.00     0.029 A 
HETATM   17  C9  UNL     1      29.990  -0.115  53.622  1.00  0.00     0.005 A 
HETATM   18  C10 UNL     1      29.622  -1.421  53.303  1.00  0.00     0.042 A 
HETATM   19  C11 UNL     1      28.319  -1.748  53.000  1.00  0.00     0.118 A 
HETATM   20  F1  UNL     1      27.928  -3.022  52.682  1.00  0.00    -0.206 F 
HETATM   21  C12 UNL     1      27.320  -0.800  53.000  1.00  0.00     0.071 A 
ENDBRANCH  13  15
ENDBRANCH   7  13
TORSDOF 2
ENDMDL
MODEL 4
REMARK VINA RESULT:      -8.1      1.623      1.945
REMARK  2 active torsions:
REMARK  status: ('A' for Active; 'I' for Inactive)
REMARK    1  A    between atoms: C6_7  and  N2_8 
REMARK    2  A    between atoms: N2_8  and  C7_9 
ROOT
HETATM    1  C1  UNL     1      20.786   0.560  51.184  1.00  0.00     0.046 C 
HETATM    2  C2  UNL     1      21.633   0.155  52.350  1.00  0.00    -0.052 C 
HETATM    3  C3  UNL     1      22.849   0.705  52.306  1.00  0.00    -0.035 A 
HETATM    4  C4  UNL     1      23.092   1.567  51.156  1.00  0.00     0.086 A 
HETATM    5  C5  UNL     1      24.478   2.098  51.248  1.00  0.00     0.096 A 
HETATM    6  N1  UNL     1      25.342   1.850  52.186  1.00  0.00    -0.246 NA
HETATM    7  C6  UNL     1      25.067   1.009  53.284  1.00  0.00     0.138 A 
HETATM    8  C13 UNL     1      23.854   0.454  53.341  1.00  0.00     0.018 A 
HETATM    9  C14 UNL     1      23.791  -0.367  54.551  1.00  0.00     0.040 C 
HETATM   10  C15 UNL     1      22.827  -1.223  54.923  1.00  0.00     0.136 C 
HETATM   11  O1  UNL     1      21.687  -1.468  54.173  1.00  0.00    -0.359 OA
HETATM   12  C16 UNL     1      20.931  -0.753  53.271  1.00  0.00     0.209 C 
ENDROOT
BRANCH   7  13
HETATM   13  N2  UNL     1      26.112   0.835  54.224  1.00  0.00    -0.340 N 
HETATM   14  H7  UNL     1      26.174   1.208  55.199  1.00  0.00     0.167 HD
BRANCH  13  15
HETATM   15  C7  UNL     1      27.271   0.053  53.871  1.00  0.00     0.036 A 
HETATM   16  C8  UNL     1      28.443   0.764  54.042  1.00  0.00     0.029 A 
HETATM   17  C9  UNL     1      29.690   0.196  53.761  1.00  0.00     0.005 A 
HETATM   18  C10 UNL     1      29.687  -1.120  53.302  1.00  0.00     0.042 A 
HETATM   19  C11 UNL     1      28.513  -1.821  53.135  1.00  0.00     0.118 A 
HETATM   20  F1  UNL     1      28.478  -3.115  52.685  1.00  0.00    -0.206 F 
HETATM   21  C12 UNL     1      27.290  -1.253  53.414  1.00  0.00     0.071 A 
ENDBRANCH  13  15
ENDBRANCH   7  13
TORSDOF 2
ENDMDL
MODEL 5
REMARK VINA RESULT:      -7.9      2.795      4.060
REMARK  2 active torsions:
REMARK  status: ('A' for Active; 'I' for Inactive)
REMARK    1  A    between atoms: C6_7  and  N2_8 
REMARK    2  A    between atoms: N2_8  and  C7_9 
ROOT
HETATM    1  C1  UNL     1      20.976   1.336  49.254  1.00  0.00     0.046 C 
HETATM    2  C2  UNL     1      22.324   1.817  49.693  1.00  0.00    -0.052 C 
HETATM    3  C3  UNL     1      22.671   1.328  50.884  1.00  0.00    -0.035 A 
HETATM    4  C4  UNL     1      21.686   0.446  51.498  1.00  0.00     0.086 A 
HETATM    5  C5  UNL     1      22.215  -0.012  52.810  1.00  0.00     0.096 A 
HETATM    6  N1  UNL     1      23.358   0.306  53.340  1.00  0.00    -0.246 NA
HETATM    7  C6  UNL     1      24.285   1.165  52.713  1.00  0.00     0.138 A 
HETATM    8  C13 UNL     1      23.949   1.659  51.518  1.00  0.00     0.018 A 
HETATM    9  C14 UNL     1      25.048   2.511  51.060  1.00  0.00     0.040 C 
HETATM   10  C15 UNL     1      25.075   3.329  49.997  1.00  0.00     0.136 C 
HETATM   11  O1  UNL     1      24.006   3.494  49.128  1.00  0.00    -0.359 OA
HETATM   12  C16 UNL     1      22.950   2.716  48.710  1.00  0.00     0.209 C 
ENDROOT
BRANCH   7  13
HETATM   13  N2  UNL     1      25.487   1.417  53.416  1.00  0.00    -0.340 N 
HETATM   14  H7  UNL     1      25.722   2.236  54.022  1.00  0.00     0.167 HD
BRANCH  13  15
HETATM   15  C7  UNL     1      26.573   0.471  53.344  1.00  0.00     0.036 A 
HETATM   16  C8  UNL     1      27.765   1.022  53.771  1.00  0.00     0.029 A 
HETATM   17  C9  UNL     1      28.950   0.279  53.786  1.00  0.00     0.005 A 
HETATM   18  C10 UNL     1      28.863  -1.042  53.350  1.00  0.00     0.042 A 
HETATM   19  C11 UNL     1      27.669  -1.583  52.927  1.00  0.00     0.118 A 
HETATM   20  F1  UNL     1      27.553  -2.878  52.492  1.00  0.00    -0.206 F 
HETATM   21  C12 UNL     1      26.508  -0.844  52.915  1.00  0.00     0.071 A 
ENDBRANCH  13  15
ENDBRANCH   7  13
TORSDOF 2
ENDMDL
MODEL 6
REMARK VINA RESULT:      -7.8      3.086      4.754
REMARK  2 active torsions:
REMARK  status: ('A' for Active; 'I' for Inactive)
REMARK    1  A    between atoms: C6_7  and  N2_8 
REMARK    2  A    between atoms: N2_8  and  C7_9 
ROOT
HETATM    1  C1  UNL     1      21.539  -1.382  54.487  1.00  0.00     0.046 C 
HETATM    2  C2  UNL     1      22.932  -0.847  54.367  1.00  0.00    -0.052 C 
HETATM    3  C3  UNL     1      23.085  -0.073  53.291  1.00  0.00    -0.035 A 
HETATM    4  C4  UNL     1      21.888   0.087  52.474  1.00  0.00     0.086 A 
HETATM    5  C5  UNL     1      22.216   0.969  51.323  1.00  0.00     0.096 A 
HETATM    6  N1  UNL     1      23.367   1.516  51.068  1.00  0.00    -0.246 NA
HETATM    7  C6  UNL     1      24.503   1.336  51.885  1.00  0.00     0.138 A 
HETATM    8  C13 UNL     1      24.363   0.564  52.966  1.00  0.00     0.018 A 
HETATM    9  C14 UNL     1      25.652   0.522  53.658  1.00  0.00     0.040 C 
HETATM   10  C15 UNL     1      26.012  -0.253  54.692  1.00  0.00     0.136 C 
HETATM   11  O1  UNL     1      25.168  -1.177  55.290  1.00  0.00    -0.359 OA
HETATM   12  C16 UNL     1      23.807  -1.299  55.460  1.00  0.00     0.209 C 
ENDROOT
BRANCH   7  13
HETATM   13  N2  UNL     1      25.686   1.996  51.475  1.00  0.00    -0.340 N 
HETATM   14  H7  UNL     1      26.677   1.689  51.605  1.00  0.00     0.167 HD
BRANCH  13  15
HETATM   15  C7  UNL     1      25.600   3.255  50.777  1.00  0.00     0.036 A 
HETATM   16  C8  UNL     1      26.605   3.395  49.841  1.00  0.00     0.029 A 
HETATM   17  C9  UNL     1      26.711   4.542  49.047  1.00  0.00     0.005 A 
HETATM   18  C10 UNL     1      25.751   5.532  49.251  1.00  0.00     0.042 A 
HETATM   19  C11 UNL     1      24.751   5.383  50.187  1.00  0.00     0.118 A 
HETATM   20  F1  UNL     1      23.794   6.338  50.410  1.00  0.00    -0.206 F 
HETATM   21  C12 UNL     1      24.655   4.250  50.964  1.00  0.00     0.071 A 
ENDBRANCH  13  15
ENDBRANCH   7  13
TORSDOF 2
ENDMDL
MODEL 7
REMARK VINA RESULT:      -7.5      4.516      6.121
REMARK  2 active torsions:
REMARK  status: ('A' for Active; 'I' for Inactive)
REMARK    1  A    between atoms: C6_7  and  N2_8 
REMARK    2  A    between atoms: N2_8  and  C7_9 
ROOT
HETATM    1  C1  UNL     1      24.273   7.942  50.111  1.00  0.00     0.046 C 
HETATM    2  C2  UNL     1      25.226   6.856  49.718  1.00  0.00    -0.052 C 
HETATM    3  C3  UNL     1      24.985   5.714  50.363  1.00  0.00    -0.035 A 
HETATM    4  C4  UNL     1      23.866   5.760  51.297  1.00  0.00     0.086 A 
HETATM    5  C5  UNL     1      23.726   4.422  51.932  1.00  0.00     0.096 A 
HETATM    6  N1  UNL     1      24.464   3.376  51.708  1.00  0.00    -0.246 NA
HETATM    7  C6  UNL     1      25.539   3.373  50.796  1.00  0.00     0.138 A 
HETATM    8  C13 UNL     1      25.790   4.511  50.142  1.00  0.00     0.018 A 
HETATM    9  C14 UNL     1      26.932   4.278  49.257  1.00  0.00     0.040 C 
HETATM   10  C15 UNL     1      27.621   5.178  48.538  1.00  0.00     0.136 C 
HETATM   11  O1  UNL     1      27.334   6.535  48.529  1.00  0.00    -0.359 OA
HETATM   12  C16 UNL     1      26.206   7.302  48.715  1.00  0.00     0.209 C 
ENDROOT
BRANCH   7  13
HETATM   13  N2  UNL     1      26.250   2.157  50.662  1.00  0.00    -0.340 N 
HETATM   14  H7  UNL     1      26.383   1.575  49.802  1.00  0.00     0.167 HD
BRANCH  13  15
HETATM   15  C7  UNL     1      26.909   1.581  51.808  1.00  0.00     0.036 A 
HETATM   16  C8  UNL     1      26.564   0.256  51.989  1.00  0.00     0.029 A 
HETATM   17  C9  UNL     1      27.090  -0.500  53.043  1.00  0.00     0.005 A 
HETATM   18  C10 UNL     1      27.977   0.154  53.896  1.00  0.00     0.042 A 
HETATM   19  C11 UNL     1      28.315   1.476  53.708  1.00  0.00     0.118 A 
HETATM   20  F1  UNL     1      29.183   2.145  54.531  1.00  0.00    -0.206 F 
HETATM   21  C12 UNL     1      27.793   2.211  52.668  1.00  0.00     0.071 A 
ENDBRANCH  13  15
ENDBRANCH   7  13
TORSDOF 2
ENDMDL
MODEL 8
REMARK VINA RESULT:      -7.4      2.923      5.062
REMARK  2 active torsions:
REMARK  status: ('A' for Active; 'I' for Inactive)
REMARK    1  A    between atoms: C6_7  and  N2_8 
REMARK    2  A    between atoms: N2_8  and  C7_9 
ROOT
HETATM    1  C1  UNL     1      22.684  -1.534  55.214  1.00  0.00     0.046 C 
HETATM    2  C2  UNL     1      22.084  -0.775  54.071  1.00  0.00    -0.052 C 
HETATM    3  C3  UNL     1      23.003  -0.104  53.373  1.00  0.00    -0.035 A 
HETATM    4  C4  UNL     1      24.369  -0.247  53.859  1.00  0.00     0.086 A 
HETATM    5  C5  UNL     1      25.268   0.553  52.984  1.00  0.00     0.096 A 
HETATM    6  N1  UNL     1      24.916   1.266  51.957  1.00  0.00    -0.246 NA
HETATM    7  C6  UNL     1      23.580   1.380  51.519  1.00  0.00     0.138 A 
HETATM    8  C13 UNL     1      22.652   0.712  52.209  1.00  0.00     0.018 A 
HETATM    9  C14 UNL     1      21.354   0.969  51.581  1.00  0.00     0.040 C 
HETATM   10  C15 UNL     1      20.135   0.633  52.030  1.00  0.00     0.136 C 
HETATM   11  O1  UNL     1      19.915  -0.045  53.220  1.00  0.00    -0.359 OA
HETATM   12  C16 UNL     1      20.625  -0.944  53.985  1.00  0.00     0.209 C 
ENDROOT
BRANCH   7  13
HETATM   13  N2  UNL     1      23.355   2.195  50.384  1.00  0.00    -0.340 N 
HETATM   14  H7  UNL     1      22.648   2.066  49.624  1.00  0.00     0.167 HD
BRANCH  13  15
HETATM   15  C7  UNL     1      24.156   3.376  50.179  1.00  0.00     0.036 A 
HETATM   16  C8  UNL     1      23.669   4.458  50.886  1.00  0.00     0.029 A 
HETATM   17  C9  UNL     1      24.296   5.708  50.833  1.00  0.00     0.005 A 
HETATM   18  C10 UNL     1      25.434   5.802  50.034  1.00  0.00     0.042 A 
HETATM   19  C11 UNL     1      25.912   4.716  49.333  1.00  0.00     0.118 A 
HETATM   20  F1  UNL     1      27.027   4.779  48.538  1.00  0.00    -0.206 F 
HETATM   21  C12 UNL     1      25.289   3.491  49.390  1.00  0.00     0.071 A 
ENDBRANCH  13  15
ENDBRANCH   7  13
TORSDOF 2
ENDMDL
MODEL 9
REMARK VINA RESULT:      -7.4      3.520      6.546
REMARK  2 active torsions:
REMARK  status: ('A' for Active; 'I' for Inactive)
REMARK    1  A    between atoms: C6_7  and  N2_8 
REMARK    2  A    between atoms: N2_8  and  C7_9 
ROOT
HETATM    1  C1  UNL     1      28.625  -2.339  53.106  1.00  0.00     0.046 C 
HETATM    2  C2  UNL     1      28.511  -0.862  53.330  1.00  0.00    -0.052 C 
HETATM    3  C3  UNL     1      27.252  -0.433  53.228  1.00  0.00    -0.035 A 
HETATM    4  C4  UNL     1      26.271  -1.469  52.928  1.00  0.00     0.086 A 
HETATM    5  C5  UNL     1      24.927  -0.837  52.847  1.00  0.00     0.096 A 
HETATM    6  N1  UNL     1      24.650   0.421  53.012  1.00  0.00    -0.246 NA
HETATM    7  C6  UNL     1      25.630   1.394  53.302  1.00  0.00     0.138 A 
HETATM    8  C13 UNL     1      26.894   0.976  53.407  1.00  0.00     0.018 A 
HETATM    9  C14 UNL     1      27.728   2.140  53.712  1.00  0.00     0.040 C 
HETATM   10  C15 UNL     1      29.067   2.214  53.746  1.00  0.00     0.136 C 
HETATM   11  O1  UNL     1      29.902   1.137  53.483  1.00  0.00    -0.359 OA
HETATM   12  C16 UNL     1      29.810  -0.231  53.607  1.00  0.00     0.209 C 
ENDROOT
BRANCH   7  13
HETATM   13  N2  UNL     1      25.172   2.725  53.454  1.00  0.00    -0.340 N 
HETATM   14  H7  UNL     1      25.287   3.359  54.278  1.00  0.00     0.167 HD
BRANCH  13  15
HETATM   15  C7  UNL     1      24.452   3.363  52.380  1.00  0.00     0.036 A 
HETATM   16  C8  UNL     1      23.515   4.260  52.850  1.00  0.00     0.029 A 
HETATM   17  C9  UNL     1      22.703   4.994  51.978  1.00  0.00     0.005 A 
HETATM   18  C10 UNL     1      22.892   4.772  50.615  1.00  0.00     0.042 A 
HETATM   19  C11 UNL     1      23.830   3.875  50.155  1.00  0.00     0.118 A 
HETATM   20  F1  UNL     1      24.037   3.635  48.822  1.00  0.00    -0.206 F 
HETATM   21  C12 UNL     1      24.624   3.157  51.021  1.00  0.00     0.071 A 
ENDBRANCH  13  15
ENDBRANCH   7  13
TORSDOF 2
ENDMDL
