MODEL 1
REMARK VINA RESULT:      -7.2      0.000      0.000
REMARK  4 active torsions:
REMARK  status: ('A' for Active; 'I' for Inactive)
REMARK    1  A    between atoms: C2_2  and  C3_4 
REMARK    2  A    between atoms: C15_19  and  N2_20 
REMARK    3  A    between atoms: N2_20  and  C16_21 
REMARK    4  A    between atoms: C16_21  and  C17_22 
ROOT
HETATM    1  C3  UNL     1      26.167   0.981  52.470  1.00  0.00    -0.018 C 
HETATM    2  C4  UNL     1      24.888   1.430  52.435  1.00  0.00    -0.030 C 
HETATM    3  C5  UNL     1      24.838   2.879  52.222  1.00  0.00     0.095 C 
HETATM    4  C6  UNL     1      25.880   3.230  51.216  1.00  0.00     0.031 C 
HETATM    5  C7  UNL     1      25.633   3.750  50.005  1.00  0.00     0.159 C 
HETATM    6  O1  UNL     1      24.249   3.918  49.819  1.00  0.00    -0.361 OA
HETATM    7  C8  UNL     1      23.576   2.914  49.085  1.00  0.00     0.176 C 
HETATM    8  C9  UNL     1      22.090   3.082  49.020  1.00  0.00     0.057 C 
HETATM    9  C10 UNL     1      21.454   3.080  50.397  1.00  0.00     0.274 C 
HETATM   10  N1  UNL     1      21.775   1.848  51.031  1.00  0.00     0.093 N 
HETATM   11  C11 UNL     1      20.921   0.723  50.638  1.00  0.00     0.298 C 
HETATM   12  C12 UNL     1      20.713  -0.244  51.762  1.00  0.00     0.198 C 
HETATM   13  O2  UNL     1      21.730  -0.411  52.632  1.00  0.00    -0.380 OA
HETATM   14  C13 UNL     1      22.481   0.725  52.962  1.00  0.00     0.187 C 
HETATM   15  C14 UNL     1      21.697   1.863  52.455  1.00  0.00     0.306 C 
HETATM   16  C15 UNL     1      23.834   0.441  52.607  1.00  0.00     0.281 C 
HETATM   17  N3  UNL     1      27.234   2.963  51.612  1.00  0.00    -0.387 N 
HETATM   18  C18 UNL     1      27.332   1.917  52.635  1.00  0.00     0.160 C 
HETATM   19  H24 UNL     1      28.033   3.490  51.178  1.00  0.00     0.159 HD
ENDROOT
BRANCH  16  20
HETATM   20  N2  UNL     1      24.348  -0.516  53.576  1.00  0.00     0.101 N 
HETATM   21  H20 UNL     1      25.268  -0.178  53.902  1.00  0.00     0.317 HD
BRANCH  20  22
HETATM   22  C16 UNL     1      23.513  -0.808  54.680  1.00  0.00     0.339 C 
BRANCH  22  23
HETATM   23  C17 UNL     1      24.459  -1.239  55.785  1.00  0.00     0.261 C 
HETATM   24  O3  UNL     1      25.621  -0.845  55.673  1.00  0.00    -0.305 OA
ENDBRANCH  22  23
ENDBRANCH  20  22
ENDBRANCH  16  20
BRANCH   1  25
HETATM   25  C2  UNL     1      26.458  -0.444  52.344  1.00  0.00     0.017 A 
HETATM   26  C1  UNL     1      27.557  -1.054  52.808  1.00  0.00     0.153 A 
HETATM   27 CL1  UNL     1      26.466  -2.159  52.009  1.00  0.00    -0.181 Cl
ENDBRANCH   1  25
TORSDOF 4
ENDMDL
MODEL 2
REMARK VINA RESULT:      -6.9      2.941      5.445
REMARK  4 active torsions:
REMARK  status: ('A' for Active; 'I' for Inactive)
REMARK    1  A    between atoms: C2_2  and  C3_4 
REMARK    2  A    between atoms: C15_19  and  N2_20 
REMARK    3  A    between atoms: N2_20  and  C16_21 
REMARK    4  A    between atoms: C16_21  and  C17_22 
ROOT
HETATM    1  C3  UNL     1      22.967   1.926  51.154  1.00  0.00    -0.018 C 
HETATM    2  C4  UNL     1      23.383   3.208  51.010  1.00  0.00    -0.030 C 
HETATM    3  C5  UNL     1      24.603   3.462  51.782  1.00  0.00     0.095 C 
HETATM    4  C6  UNL     1      25.487   2.271  51.646  1.00  0.00     0.031 C 
HETATM    5  C7  UNL     1      26.696   2.275  51.064  1.00  0.00     0.159 C 
HETATM    6  O1  UNL     1      27.009   3.566  50.600  1.00  0.00    -0.361 OA
HETATM    7  C8  UNL     1      26.788   3.822  49.226  1.00  0.00     0.176 C 
HETATM    8  C9  UNL     1      27.025   5.242  48.813  1.00  0.00     0.057 C 
HETATM    9  C10 UNL     1      26.132   6.212  49.563  1.00  0.00     0.274 C 
HETATM   10  N1  UNL     1      24.779   5.854  49.309  1.00  0.00     0.093 N 
HETATM   11  C11 UNL     1      24.248   6.351  48.036  1.00  0.00     0.298 C 
HETATM   12  C12 UNL     1      22.788   6.673  48.123  1.00  0.00     0.198 C 
HETATM   13  O2  UNL     1      22.034   5.913  48.944  1.00  0.00    -0.380 OA
HETATM   14  C13 UNL     1      22.620   5.498  50.148  1.00  0.00     0.187 C 
HETATM   15  C14 UNL     1      23.840   6.312  50.280  1.00  0.00     0.306 C 
HETATM   16  C15 UNL     1      22.584   4.071  50.152  1.00  0.00     0.281 C 
HETATM   17  N3  UNL     1      24.961   1.048  52.182  1.00  0.00    -0.387 N 
HETATM   18  C18 UNL     1      23.496   1.039  52.246  1.00  0.00     0.160 C 
HETATM   19  H24 UNL     1      25.605   0.272  52.478  1.00  0.00     0.159 HD
ENDROOT
BRANCH  16  20
HETATM   20  N2  UNL     1      21.202   3.670  50.370  1.00  0.00     0.101 N 
HETATM   21  H20 UNL     1      21.204   2.705  50.738  1.00  0.00     0.317 HD
BRANCH  20  22
HETATM   22  C16 UNL     1      20.423   4.510  51.199  1.00  0.00     0.339 C 
BRANCH  22  23
HETATM   23  C17 UNL     1      19.442   3.581  51.891  1.00  0.00     0.261 C 
HETATM   24  O3  UNL     1      19.925   2.851  52.758  1.00  0.00    -0.305 OA
ENDBRANCH  22  23
ENDBRANCH  20  22
ENDBRANCH  16  20
BRANCH   1  25
HETATM   25  C2  UNL     1      21.982   1.357  50.239  1.00  0.00     0.017 A 
HETATM   26  C1  UNL     1      21.139   0.357  50.533  1.00  0.00     0.153 A 
HETATM   27 CL1  UNL     1      20.944   0.938  48.897  1.00  0.00    -0.181 Cl
ENDBRANCH   1  25
TORSDOF 4
ENDMDL
MODEL 3
REMARK VINA RESULT:      -6.7      2.255      6.208
REMARK  4 active torsions:
REMARK  status: ('A' for Active; 'I' for Inactive)
REMARK    1  A    between atoms: C2_2  and  C3_4 
REMARK    2  A    between atoms: C15_19  and  N2_20 
REMARK    3  A    between atoms: N2_20  and  C16_21 
REMARK    4  A    between atoms: C16_21  and  C17_22 
ROOT
HETATM    1  C3  UNL     1      21.378   1.293  51.360  1.00  0.00    -0.018 C 
HETATM    2  C4  UNL     1      22.482   1.662  52.055  1.00  0.00    -0.030 C 
HETATM    3  C5  UNL     1      22.389   1.254  53.460  1.00  0.00     0.095 C 
HETATM    4  C6  UNL     1      21.786  -0.108  53.501  1.00  0.00     0.031 C 
HETATM    5  C7  UNL     1      22.406  -1.208  53.953  1.00  0.00     0.159 C 
HETATM    6  O1  UNL     1      23.709  -0.893  54.381  1.00  0.00    -0.361 OA
HETATM    7  C8  UNL     1      24.761  -1.157  53.473  1.00  0.00     0.176 C 
HETATM    8  C9  UNL     1      26.109  -0.693  53.933  1.00  0.00     0.057 C 
HETATM    9  C10 UNL     1      26.144   0.803  54.182  1.00  0.00     0.274 C 
HETATM   10  N1  UNL     1      25.793   1.461  52.971  1.00  0.00     0.093 N 
HETATM   11  C11 UNL     1      26.894   1.596  52.012  1.00  0.00     0.298 C 
HETATM   12  C12 UNL     1      26.790   2.857  51.211  1.00  0.00     0.198 C 
HETATM   13  O2  UNL     1      25.551   3.304  50.918  1.00  0.00    -0.380 OA
HETATM   14  C13 UNL     1      24.566   3.147  51.903  1.00  0.00     0.187 C 
HETATM   15  C14 UNL     1      25.302   2.791  53.126  1.00  0.00     0.306 C 
HETATM   16  C15 UNL     1      23.522   2.367  51.320  1.00  0.00     0.281 C 
HETATM   17  N3  UNL     1      20.444  -0.203  53.001  1.00  0.00    -0.387 N 
HETATM   18  C18 UNL     1      20.114   0.864  52.051  1.00  0.00     0.160 C 
HETATM   19  H24 UNL     1      19.809  -0.980  53.315  1.00  0.00     0.159 HD
ENDROOT
BRANCH  16  20
HETATM   20  N2  UNL     1      22.823   3.216  50.367  1.00  0.00     0.101 N 
HETATM   21  H20 UNL     1      21.894   2.800  50.190  1.00  0.00     0.317 HD
BRANCH  20  22
HETATM   22  C16 UNL     1      22.689   4.581  50.716  1.00  0.00     0.339 C 
BRANCH  22  23
HETATM   23  C17 UNL     1      21.260   4.941  50.358  1.00  0.00     0.261 C 
HETATM   24  O3  UNL     1      20.411   4.646  51.200  1.00  0.00    -0.305 OA
ENDBRANCH  22  23
ENDBRANCH  20  22
ENDBRANCH  16  20
BRANCH   1  25
HETATM   25  C2  UNL     1      21.383   1.297  49.901  1.00  0.00     0.017 A 
HETATM   26  C1  UNL     1      20.295   1.398  49.123  1.00  0.00     0.153 A 
HETATM   27 CL1  UNL     1      21.770   1.266  48.197  1.00  0.00    -0.181 Cl
ENDBRANCH   1  25
TORSDOF 4
ENDMDL
MODEL 4
REMARK VINA RESULT:      -6.6      2.331      5.111
REMARK  4 active torsions:
REMARK  status: ('A' for Active; 'I' for Inactive)
REMARK    1  A    between atoms: C2_2  and  C3_4 
REMARK    2  A    between atoms: C15_19  and  N2_20 
REMARK    3  A    between atoms: N2_20  and  C16_21 
REMARK    4  A    between atoms: C16_21  and  C17_22 
ROOT
HETATM    1  C3  UNL     1      24.397   3.318  51.229  1.00  0.00    -0.018 C 
HETATM    2  C4  UNL     1      24.271   2.041  51.666  1.00  0.00    -0.030 C 
HETATM    3  C5  UNL     1      25.518   1.291  51.487  1.00  0.00     0.095 C 
HETATM    4  C6  UNL     1      26.649   2.193  51.843  1.00  0.00     0.031 C 
HETATM    5  C7  UNL     1      27.498   1.994  52.862  1.00  0.00     0.159 C 
HETATM    6  O1  UNL     1      27.167   0.812  53.549  1.00  0.00    -0.361 OA
HETATM    7  C8  UNL     1      26.406   0.952  54.732  1.00  0.00     0.176 C 
HETATM    8  C9  UNL     1      25.983  -0.342  55.356  1.00  0.00     0.057 C 
HETATM    9  C10 UNL     1      25.133  -1.178  54.417  1.00  0.00     0.274 C 
HETATM   10  N1  UNL     1      23.988  -0.415  54.060  1.00  0.00     0.093 N 
HETATM   11  C11 UNL     1      22.909  -0.438  55.052  1.00  0.00     0.298 C 
HETATM   12  C12 UNL     1      21.556  -0.360  54.415  1.00  0.00     0.198 C 
HETATM   13  O2  UNL     1      21.446   0.365  53.282  1.00  0.00    -0.380 OA
HETATM   14  C13 UNL     1      22.520   0.312  52.383  1.00  0.00     0.187 C 
HETATM   15  C14 UNL     1      23.352  -0.811  52.846  1.00  0.00     0.306 C 
HETATM   16  C15 UNL     1      22.979   1.653  52.212  1.00  0.00     0.281 C 
HETATM   17  N3  UNL     1      26.796   3.354  51.012  1.00  0.00    -0.387 N 
HETATM   18  C18 UNL     1      25.544   3.748  50.357  1.00  0.00     0.160 C 
HETATM   19  H24 UNL     1      27.727   3.834  50.921  1.00  0.00     0.159 HD
ENDROOT
BRANCH  16  20
HETATM   20  N2  UNL     1      21.987   2.355  51.411  1.00  0.00     0.101 N 
HETATM   21  H20 UNL     1      22.450   3.164  50.967  1.00  0.00     0.317 HD
BRANCH  20  22
HETATM   22  C16 UNL     1      21.302   1.588  50.440  1.00  0.00     0.339 C 
BRANCH  22  23
HETATM   23  C17 UNL     1      21.470   2.355  49.141  1.00  0.00     0.261 C 
HETATM   24  O3  UNL     1      22.519   2.140  48.531  1.00  0.00    -0.305 OA
ENDBRANCH  22  23
ENDBRANCH  20  22
ENDBRANCH  16  20
BRANCH   1  25
HETATM   25  C2  UNL     1      23.413   4.331  51.598  1.00  0.00     0.017 A 
HETATM   26  C1  UNL     1      23.582   5.656  51.479  1.00  0.00     0.153 A 
HETATM   27 CL1  UNL     1      22.021   5.237  52.141  1.00  0.00    -0.181 Cl
ENDBRANCH   1  25
TORSDOF 4
ENDMDL
MODEL 5
REMARK VINA RESULT:      -6.6      3.329      6.279
REMARK  4 active torsions:
REMARK  status: ('A' for Active; 'I' for Inactive)
REMARK    1  A    between atoms: C2_2  and  C3_4 
REMARK    2  A    between atoms: C15_19  and  N2_20 
REMARK    3  A    between atoms: N2_20  and  C16_21 
REMARK    4  A    between atoms: C16_21  and  C17_22 
ROOT
HETATM    1  C3  UNL     1      25.198   5.509  49.557  1.00  0.00    -0.018 C 
HETATM    2  C4  UNL     1      24.282   4.519  49.696  1.00  0.00    -0.030 C 
HETATM    3  C5  UNL     1      24.896   3.198  49.530  1.00  0.00     0.095 C 
HETATM    4  C6  UNL     1      26.219   3.220  50.214  1.00  0.00     0.031 C 
HETATM    5  C7  UNL     1      26.549   2.465  51.272  1.00  0.00     0.159 C 
HETATM    6  O1  UNL     1      25.466   1.648  51.645  1.00  0.00    -0.361 OA
HETATM    7  C8  UNL     1      24.666   2.100  52.720  1.00  0.00     0.176 C 
HETATM    8  C9  UNL     1      23.461   1.255  52.996  1.00  0.00     0.057 C 
HETATM    9  C10 UNL     1      22.533   1.174  51.798  1.00  0.00     0.274 C 
HETATM   10  N1  UNL     1      22.131   2.495  51.461  1.00  0.00     0.093 N 
HETATM   11  C11 UNL     1      21.031   3.022  52.274  1.00  0.00     0.298 C 
HETATM   12  C12 UNL     1      20.144   3.942  51.494  1.00  0.00     0.198 C 
HETATM   13  O2  UNL     1      20.723   4.693  50.534  1.00  0.00    -0.380 OA
HETATM   14  C13 UNL     1      21.756   4.100  49.795  1.00  0.00     0.187 C 
HETATM   15  C14 UNL     1      21.682   2.666  50.117  1.00  0.00     0.306 C 
HETATM   16  C15 UNL     1      22.910   4.920  49.972  1.00  0.00     0.281 C 
HETATM   17  N3  UNL     1      27.178   4.141  49.673  1.00  0.00    -0.387 N 
HETATM   18  C18 UNL     1      26.553   5.257  48.955  1.00  0.00     0.160 C 
HETATM   19  H24 UNL     1      28.209   3.984  49.809  1.00  0.00     0.159 HD
ENDROOT
BRANCH  16  20
HETATM   20  N2  UNL     1      22.698   6.143  49.211  1.00  0.00     0.101 N 
HETATM   21  H20 UNL     1      23.599   6.645  49.156  1.00  0.00     0.317 HD
BRANCH  20  22
HETATM   22  C16 UNL     1      22.140   5.995  47.920  1.00  0.00     0.339 C 
BRANCH  22  23
HETATM   23  C17 UNL     1      22.548   7.248  47.168  1.00  0.00     0.261 C 
HETATM   24  O3  UNL     1      23.704   7.258  46.741  1.00  0.00    -0.305 OA
ENDBRANCH  22  23
ENDBRANCH  20  22
ENDBRANCH  16  20
BRANCH   1  25
HETATM   25  C2  UNL     1      24.896   6.868  49.997  1.00  0.00     0.017 A 
HETATM   26  C1  UNL     1      25.788   7.863  50.105  1.00  0.00     0.153 A 
HETATM   27 CL1  UNL     1      24.175   8.358  50.555  1.00  0.00    -0.181 Cl
ENDBRANCH   1  25
TORSDOF 4
ENDMDL
MODEL 6
REMARK VINA RESULT:      -6.6      2.779      4.089
REMARK  4 active torsions:
REMARK  status: ('A' for Active; 'I' for Inactive)
REMARK    1  A    between atoms: C2_2  and  C3_4 
REMARK    2  A    between atoms: C15_19  and  N2_20 
REMARK    3  A    between atoms: N2_20  and  C16_21 
REMARK    4  A    between atoms: C16_21  and  C17_22 
ROOT
HETATM    1  C3  UNL     1      24.145   5.024  50.961  1.00  0.00    -0.018 C 
HETATM    2  C4  UNL     1      23.078   4.354  51.461  1.00  0.00    -0.030 C 
HETATM    3  C5  UNL     1      21.980   5.268  51.788  1.00  0.00     0.095 C 
HETATM    4  C6  UNL     1      21.899   6.290  50.707  1.00  0.00     0.031 C 
HETATM    5  C7  UNL     1      20.855   6.452  49.881  1.00  0.00     0.159 C 
HETATM    6  O1  UNL     1      19.846   5.518  50.180  1.00  0.00    -0.361 OA
HETATM    7  C8  UNL     1      19.792   4.356  49.375  1.00  0.00     0.176 C 
HETATM    8  C9  UNL     1      18.778   3.344  49.812  1.00  0.00     0.057 C 
HETATM    9  C10 UNL     1      19.032   2.855  51.225  1.00  0.00     0.274 C 
HETATM   10  N1  UNL     1      20.334   2.285  51.269  1.00  0.00     0.093 N 
HETATM   11  C11 UNL     1      20.411   0.906  50.780  1.00  0.00     0.298 C 
HETATM   12  C12 UNL     1      21.447   0.107  51.508  1.00  0.00     0.198 C 
HETATM   13  O2  UNL     1      22.551   0.761  51.927  1.00  0.00    -0.380 OA
HETATM   14  C13 UNL     1      22.379   2.071  52.394  1.00  0.00     0.187 C 
HETATM   15  C14 UNL     1      20.925   2.228  52.566  1.00  0.00     0.306 C 
HETATM   16  C15 UNL     1      23.201   2.908  51.582  1.00  0.00     0.281 C 
HETATM   17  N3  UNL     1      23.051   7.134  50.570  1.00  0.00    -0.387 N 
HETATM   18  C18 UNL     1      24.275   6.516  51.091  1.00  0.00     0.160 C 
HETATM   19  H24 UNL     1      22.969   8.087  50.131  1.00  0.00     0.159 HD
ENDROOT
BRANCH  16  20
HETATM   20  N2  UNL     1      24.584   2.663  51.962  1.00  0.00     0.101 N 
HETATM   21  H20 UNL     1      25.162   3.427  51.577  1.00  0.00     0.317 HD
BRANCH  20  22
HETATM   22  C16 UNL     1      24.841   2.504  53.344  1.00  0.00     0.339 C 
BRANCH  22  23
HETATM   23  C17 UNL     1      26.194   1.820  53.418  1.00  0.00     0.261 C 
HETATM   24  O3  UNL     1      27.020   2.356  54.158  1.00  0.00    -0.305 OA
ENDBRANCH  22  23
ENDBRANCH  20  22
ENDBRANCH  16  20
BRANCH   1  25
HETATM   25  C2  UNL     1      25.214   4.310  50.270  1.00  0.00     0.017 A 
HETATM   26  C1  UNL     1      26.084   4.861  49.411  1.00  0.00     0.153 A 
HETATM   27 CL1  UNL     1      26.356   3.150  49.635  1.00  0.00    -0.181 Cl
ENDBRANCH   1  25
TORSDOF 4
ENDMDL
MODEL 7
REMARK VINA RESULT:      -6.4      2.318      5.964
REMARK  4 active torsions:
REMARK  status: ('A' for Active; 'I' for Inactive)
REMARK    1  A    between atoms: C2_2  and  C3_4 
REMARK    2  A    between atoms: C15_19  and  N2_20 
REMARK    3  A    between atoms: N2_20  and  C16_21 
REMARK    4  A    between atoms: C16_21  and  C17_22 
ROOT
HETATM    1  C3  UNL     1      22.072   2.985  50.405  1.00  0.00    -0.018 C 
HETATM    2  C4  UNL     1      22.905   2.597  51.402  1.00  0.00    -0.030 C 
HETATM    3  C5  UNL     1      22.230   2.626  52.702  1.00  0.00     0.095 C 
HETATM    4  C6  UNL     1      20.848   2.104  52.512  1.00  0.00     0.031 C 
HETATM    5  C7  UNL     1      20.365   0.986  53.074  1.00  0.00     0.159 C 
HETATM    6  O1  UNL     1      21.352   0.375  53.870  1.00  0.00    -0.361 OA
HETATM    7  C8  UNL     1      22.065  -0.700  53.290  1.00  0.00     0.176 C 
HETATM    8  C9  UNL     1      23.180  -1.234  54.136  1.00  0.00     0.057 C 
HETATM    9  C10 UNL     1      24.218  -0.172  54.448  1.00  0.00     0.274 C 
HETATM   10  N1  UNL     1      24.735   0.316  53.216  1.00  0.00     0.093 N 
HETATM   11  C11 UNL     1      25.777  -0.524  52.619  1.00  0.00     0.298 C 
HETATM   12  C12 UNL     1      26.794   0.285  51.875  1.00  0.00     0.198 C 
HETATM   13  O2  UNL     1      26.365   1.406  51.260  1.00  0.00    -0.380 OA
HETATM   14  C13 UNL     1      25.378   2.156  51.915  1.00  0.00     0.187 C 
HETATM   15  C14 UNL     1      25.328   1.612  53.282  1.00  0.00     0.306 C 
HETATM   16  C15 UNL     1      24.264   2.235  51.025  1.00  0.00     0.281 C 
HETATM   17  N3  UNL     1      20.009   2.882  51.645  1.00  0.00    -0.387 N 
HETATM   18  C18 UNL     1      20.773   3.688  50.687  1.00  0.00     0.160 C 
HETATM   19  H24 UNL     1      18.962   2.838  51.731  1.00  0.00     0.159 HD
ENDROOT
BRANCH  16  20
HETATM   20  N2  UNL     1      24.629   3.145  49.950  1.00  0.00     0.101 N 
HETATM   21  H20 UNL     1      23.781   3.338  49.392  1.00  0.00     0.317 HD
BRANCH  20  22
HETATM   22  C16 UNL     1      25.251   4.358  50.331  1.00  0.00     0.339 C 
BRANCH  22  23
HETATM   23  C17 UNL     1      26.291   4.621  49.258  1.00  0.00     0.261 C 
HETATM   24  O3  UNL     1      27.148   3.746  49.124  1.00  0.00    -0.305 OA
ENDBRANCH  22  23
ENDBRANCH  20  22
ENDBRANCH  16  20
BRANCH   1  25
HETATM   25  C2  UNL     1      22.412   2.728  49.009  1.00  0.00     0.017 A 
HETATM   26  C1  UNL     1      22.099   3.523  47.976  1.00  0.00     0.153 A 
HETATM   27 CL1  UNL     1      22.982   2.099  47.482  1.00  0.00    -0.181 Cl
ENDBRANCH   1  25
TORSDOF 4
ENDMDL
MODEL 8
REMARK VINA RESULT:      -6.4      7.051     10.388
REMARK  4 active torsions:
REMARK  status: ('A' for Active; 'I' for Inactive)
REMARK    1  A    between atoms: C2_2  and  C3_4 
REMARK    2  A    between atoms: C15_19  and  N2_20 
REMARK    3  A    between atoms: N2_20  and  C16_21 
REMARK    4  A    between atoms: C16_21  and  C17_22 
ROOT
HETATM    1  C3  UNL     1      27.308   8.237  47.503  1.00  0.00    -0.018 C 
HETATM    2  C4  UNL     1      28.526   7.708  47.231  1.00  0.00    -0.030 C 
HETATM    3  C5  UNL     1      28.988   8.093  45.894  1.00  0.00     0.095 C 
HETATM    4  C6  UNL     1      28.625   9.522  45.679  1.00  0.00     0.031 C 
HETATM    5  C7  UNL     1      29.505  10.519  45.503  1.00  0.00     0.159 C 
HETATM    6  O1  UNL     1      30.821  10.022  45.552  1.00  0.00    -0.361 OA
HETATM    7  C8  UNL     1      31.512  10.162  46.778  1.00  0.00     0.176 C 
HETATM    8  C9  UNL     1      32.861   9.512  46.809  1.00  0.00     0.057 C 
HETATM    9  C10 UNL     1      32.781   8.020  46.549  1.00  0.00     0.274 C 
HETATM   10  N1  UNL     1      31.942   7.442  47.542  1.00  0.00     0.093 N 
HETATM   11  C11 UNL     1      32.607   7.182  48.822  1.00  0.00     0.298 C 
HETATM   12  C12 UNL     1      32.061   5.965  49.503  1.00  0.00     0.198 C 
HETATM   13  O2  UNL     1      30.750   5.695  49.330  1.00  0.00    -0.380 OA
HETATM   14  C13 UNL     1      30.204   5.960  48.066  1.00  0.00     0.187 C 
HETATM   15  C14 UNL     1      31.365   6.187  47.189  1.00  0.00     0.306 C 
HETATM   16  C15 UNL     1      29.137   6.886  48.266  1.00  0.00     0.281 C 
HETATM   17  N3  UNL     1      27.219   9.808  45.678  1.00  0.00    -0.387 N 
HETATM   18  C18 UNL     1      26.436   8.816  46.423  1.00  0.00     0.160 C 
HETATM   19  H24 UNL     1      26.844  10.655  45.182  1.00  0.00     0.159 HD
ENDROOT
BRANCH  16  20
HETATM   20  N2  UNL     1      28.040   6.160  48.889  1.00  0.00     0.101 N 
HETATM   21  H20 UNL     1      27.166   6.678  48.702  1.00  0.00     0.317 HD
BRANCH  20  22
HETATM   22  C16 UNL     1      27.892   4.802  48.523  1.00  0.00     0.339 C 
BRANCH  22  23
HETATM   23  C17 UNL     1      26.713   4.301  49.335  1.00  0.00     0.261 C 
HETATM   24  O3  UNL     1      26.859   3.194  49.856  1.00  0.00    -0.305 OA
ENDBRANCH  22  23
ENDBRANCH  20  22
ENDBRANCH  16  20
BRANCH   1  25
HETATM   25  C2  UNL     1      26.798   8.265  48.870  1.00  0.00     0.017 A 
HETATM   26  C1  UNL     1      26.842   9.324  49.692  1.00  0.00     0.153 A 
HETATM   27 CL1  UNL     1      26.093   7.931  50.434  1.00  0.00    -0.181 Cl
ENDBRANCH   1  25
TORSDOF 4
ENDMDL
MODEL 9
REMARK VINA RESULT:      -6.3      3.277      4.724
REMARK  4 active torsions:
REMARK  status: ('A' for Active; 'I' for Inactive)
REMARK    1  A    between atoms: C2_2  and  C3_4 
REMARK    2  A    between atoms: C15_19  and  N2_20 
REMARK    3  A    between atoms: N2_20  and  C16_21 
REMARK    4  A    between atoms: C16_21  and  C17_22 
ROOT
HETATM    1  C3  UNL     1      24.243   5.470  50.713  1.00  0.00    -0.018 C 
HETATM    2  C4  UNL     1      23.075   4.783  50.738  1.00  0.00    -0.030 C 
HETATM    3  C5  UNL     1      21.985   5.603  51.276  1.00  0.00     0.095 C 
HETATM    4  C6  UNL     1      22.137   6.980  50.730  1.00  0.00     0.031 C 
HETATM    5  C7  UNL     1      21.255   7.588  49.923  1.00  0.00     0.159 C 
HETATM    6  O1  UNL     1      20.165   6.737  49.664  1.00  0.00    -0.361 OA
HETATM    7  C8  UNL     1      20.187   6.023  48.443  1.00  0.00     0.176 C 
HETATM    8  C9  UNL     1      19.064   5.047  48.275  1.00  0.00     0.057 C 
HETATM    9  C10 UNL     1      19.053   3.994  49.367  1.00  0.00     0.274 C 
HETATM   10  N1  UNL     1      20.300   3.310  49.334  1.00  0.00     0.093 N 
HETATM   11  C11 UNL     1      20.386   2.254  48.320  1.00  0.00     0.298 C 
HETATM   12  C12 UNL     1      21.245   1.113  48.769  1.00  0.00     0.198 C 
HETATM   13  O2  UNL     1      22.296   1.403  49.565  1.00  0.00    -0.380 OA
HETATM   14  C13 UNL     1      22.115   2.416  50.516  1.00  0.00     0.187 C 
HETATM   15  C14 UNL     1      20.663   2.656  50.548  1.00  0.00     0.306 C 
HETATM   16  C15 UNL     1      23.103   3.411  50.250  1.00  0.00     0.281 C 
HETATM   17  N3  UNL     1      23.338   7.667  51.115  1.00  0.00    -0.387 N 
HETATM   18  C18 UNL     1      24.425   6.751  51.478  1.00  0.00     0.160 C 
HETATM   19  H24 UNL     1      23.379   8.717  51.115  1.00  0.00     0.159 HD
ENDROOT
BRANCH  16  20
HETATM   20  N2  UNL     1      24.389   2.873  50.666  1.00  0.00     0.101 N 
HETATM   21  H20 UNL     1      24.982   3.661  50.972  1.00  0.00     0.317 HD
BRANCH  20  22
HETATM   22  C16 UNL     1      24.361   1.867  51.661  1.00  0.00     0.339 C 
BRANCH  22  23
HETATM   23  C17 UNL     1      25.122   2.453  52.835  1.00  0.00     0.261 C 
HETATM   24  O3  UNL     1      24.493   3.252  53.530  1.00  0.00    -0.305 OA
ENDBRANCH  22  23
ENDBRANCH  20  22
ENDBRANCH  16  20
BRANCH   1  25
HETATM   25  C2  UNL     1      25.374   4.984  49.929  1.00  0.00     0.017 A 
HETATM   26  C1  UNL     1      25.958   5.645  48.919  1.00  0.00     0.153 A 
HETATM   27 CL1  UNL     1      26.701   4.094  49.222  1.00  0.00    -0.181 Cl
ENDBRANCH   1  25
TORSDOF 4
ENDMDL
