MODEL 1
REMARK VINA RESULT:      -7.4      0.000      0.000
REMARK  5 active torsions:
REMARK  status: ('A' for Active; 'I' for Inactive)
REMARK    1  A    between atoms: C7_9  and  N1_10 
REMARK    2  A    between atoms: C7_9  and  C8_11 
REMARK    3  A    between atoms: N2_18  and  C15_19 
REMARK    4  A    between atoms: C15_19  and  C16_20 
REMARK    5  A    between atoms: C16_20  and  C17_21 
ROOT
HETATM    1  C1  UNL     1      21.785  -0.074  52.099  1.00  0.00     0.015 C 
HETATM    2  C2  UNL     1      21.572   1.279  52.342  1.00  0.00     0.008 C 
HETATM    3  C3  UNL     1      20.280   1.549  51.742  1.00  0.00     0.179 C 
HETATM    4  O1  UNL     1      20.131   2.582  50.761  1.00  0.00    -0.387 OA
HETATM    5  C4  UNL     1      20.087   3.681  51.723  1.00  0.00     0.196 C 
HETATM    6  C5  UNL     1      21.449   3.978  52.117  1.00  0.00     0.023 C 
HETATM    7  C6  UNL     1      22.476   3.405  51.542  1.00  0.00     0.073 C 
HETATM    8 CL1  UNL     1      22.699   2.267  50.239  1.00  0.00    -0.084 Cl
HETATM    9  C7  UNL     1      23.959   3.301  51.881  1.00  0.00     0.292 C 
HETATM   10  N2  UNL     1      23.985   2.067  52.434  1.00  0.00    -0.370 N 
HETATM   11  C19 UNL     1      22.822   1.540  53.062  1.00  0.00     0.132 C 
ENDROOT
BRANCH   9  12
HETATM   12  N1  UNL     1      24.053   4.258  53.019  1.00  0.00     0.117 N 
HETATM   13  H8  UNL     1      23.623   3.803  53.833  1.00  0.00     0.317 HD
HETATM   14  H9  UNL     1      25.045   4.504  53.200  1.00  0.00     0.317 HD
ENDBRANCH   9  12
BRANCH   9  15
HETATM   15  C8  UNL     1      24.852   3.862  50.920  1.00  0.00     0.012 A 
HETATM   16  C9  UNL     1      25.898   3.206  50.301  1.00  0.00     0.012 A 
HETATM   17  C10 UNL     1      26.785   3.701  49.374  1.00  0.00     0.001 A 
HETATM   18  C11 UNL     1      26.648   5.012  48.985  1.00  0.00     0.001 A 
HETATM   19  C12 UNL     1      25.610   5.719  49.578  1.00  0.00     0.007 A 
HETATM   20  C13 UNL     1      24.740   5.180  50.510  1.00  0.00    -0.051 A 
HETATM   21  C14 UNL     1      23.733   6.114  50.999  1.00  0.00     0.049 C 
ENDBRANCH   9  15
BRANCH  10  22
HETATM   22  C15 UNL     1      25.124   1.303  52.739  1.00  0.00     0.120 C 
BRANCH  22  23
HETATM   23  C16 UNL     1      24.984   0.159  53.707  1.00  0.00     0.019 C 
BRANCH  23  24
HETATM   24  C17 UNL     1      25.882  -0.937  53.082  1.00  0.00    -0.003 C 
HETATM   25  C18 UNL     1      26.757  -0.351  51.999  1.00  0.00     0.005 C 
ENDBRANCH  23  24
ENDBRANCH  22  23
ENDBRANCH  10  22
TORSDOF 5
ENDMDL
MODEL 2
REMARK VINA RESULT:      -7.1      1.827      2.910
REMARK  5 active torsions:
REMARK  status: ('A' for Active; 'I' for Inactive)
REMARK    1  A    between atoms: C7_9  and  N1_10 
REMARK    2  A    between atoms: C7_9  and  C8_11 
REMARK    3  A    between atoms: N2_18  and  C15_19 
REMARK    4  A    between atoms: C15_19  and  C16_20 
REMARK    5  A    between atoms: C16_20  and  C17_21 
ROOT
HETATM    1  C1  UNL     1      20.713   3.456  51.064  1.00  0.00     0.015 C 
HETATM    2  C2  UNL     1      21.057   4.802  51.122  1.00  0.00     0.008 C 
HETATM    3  C3  UNL     1      20.098   5.452  50.251  1.00  0.00     0.179 C 
HETATM    4  O1  UNL     1      20.537   6.271  49.161  1.00  0.00    -0.387 OA
HETATM    5  C4  UNL     1      20.824   7.447  49.979  1.00  0.00     0.196 C 
HETATM    6  C5  UNL     1      22.115   7.245  50.607  1.00  0.00     0.023 C 
HETATM    7  C6  UNL     1      22.875   6.222  50.310  1.00  0.00     0.073 C 
HETATM    8 CL1  UNL     1      22.780   4.880  49.200  1.00  0.00    -0.084 Cl
HETATM    9  C7  UNL     1      24.112   5.600  50.949  1.00  0.00     0.292 C 
HETATM   10  N2  UNL     1      23.538   4.573  51.618  1.00  0.00    -0.370 N 
HETATM   11  C19 UNL     1      22.185   4.669  52.049  1.00  0.00     0.132 C 
ENDROOT
BRANCH   9  12
HETATM   12  N1  UNL     1      24.438   6.624  51.981  1.00  0.00     0.117 N 
HETATM   13  H8  UNL     1      25.107   6.195  52.632  1.00  0.00     0.317 HD
HETATM   14  H9  UNL     1      24.833   7.473  51.532  1.00  0.00     0.317 HD
ENDBRANCH   9  12
BRANCH   9  15
HETATM   15  C8  UNL     1      25.284   5.584  50.136  1.00  0.00     0.012 A 
HETATM   16  C9  UNL     1      25.991   4.462  49.749  1.00  0.00     0.012 A 
HETATM   17  C10 UNL     1      27.123   4.395  48.971  1.00  0.00     0.001 A 
HETATM   18  C11 UNL     1      27.652   5.571  48.497  1.00  0.00     0.001 A 
HETATM   19  C12 UNL     1      26.979   6.731  48.859  1.00  0.00     0.007 A 
HETATM   20  C13 UNL     1      25.841   6.753  49.646  1.00  0.00    -0.051 A 
HETATM   21  C14 UNL     1      25.314   8.089  49.898  1.00  0.00     0.049 C 
ENDBRANCH   9  15
BRANCH  10  22
HETATM   22  C15 UNL     1      24.194   3.487  52.221  1.00  0.00     0.120 C 
BRANCH  22  23
HETATM   23  C16 UNL     1      23.978   2.111  51.649  1.00  0.00     0.019 C 
BRANCH  23  24
HETATM   24  C17 UNL     1      23.823   1.231  52.914  1.00  0.00    -0.003 C 
HETATM   25  C18 UNL     1      24.861   0.133  52.927  1.00  0.00     0.005 C 
ENDBRANCH  23  24
ENDBRANCH  22  23
ENDBRANCH  10  22
TORSDOF 5
ENDMDL
MODEL 3
REMARK VINA RESULT:      -6.8      2.635      4.755
REMARK  5 active torsions:
REMARK  status: ('A' for Active; 'I' for Inactive)
REMARK    1  A    between atoms: C7_9  and  N1_10 
REMARK    2  A    between atoms: C7_9  and  C8_11 
REMARK    3  A    between atoms: N2_18  and  C15_19 
REMARK    4  A    between atoms: C15_19  and  C16_20 
REMARK    5  A    between atoms: C16_20  and  C17_21 
ROOT
HETATM    1  C1  UNL     1      25.374  -0.560  54.943  1.00  0.00     0.015 C 
HETATM    2  C2  UNL     1      26.254  -0.060  53.989  1.00  0.00     0.008 C 
HETATM    3  C3  UNL     1      27.459   0.236  54.738  1.00  0.00     0.179 C 
HETATM    4  O1  UNL     1      28.035   1.547  54.709  1.00  0.00    -0.387 OA
HETATM    5  C4  UNL     1      28.694   1.380  53.416  1.00  0.00     0.196 C 
HETATM    6  C5  UNL     1      27.698   1.579  52.383  1.00  0.00     0.023 C 
HETATM    7  C6  UNL     1      26.483   1.981  52.661  1.00  0.00     0.073 C 
HETATM    8 CL1  UNL     1      25.626   2.442  54.108  1.00  0.00    -0.084 Cl
HETATM    9  C7  UNL     1      25.178   2.032  51.876  1.00  0.00     0.292 C 
HETATM   10  N2  UNL     1      24.576   0.917  52.352  1.00  0.00    -0.370 N 
HETATM   11  C19 UNL     1      25.360  -0.168  52.832  1.00  0.00     0.132 C 
ENDROOT
BRANCH   9  12
HETATM   12  N1  UNL     1      25.660   1.682  50.510  1.00  0.00     0.117 N 
HETATM   13  H8  UNL     1      25.540   2.517  49.924  1.00  0.00     0.317 HD
HETATM   14  H9  UNL     1      26.653   1.381  50.546  1.00  0.00     0.317 HD
ENDBRANCH   9  12
BRANCH   9  15
HETATM   15  C8  UNL     1      24.620   3.332  51.691  1.00  0.00     0.012 A 
HETATM   16  C9  UNL     1      23.549   3.864  52.384  1.00  0.00     0.012 A 
HETATM   17  C10 UNL     1      22.975   5.105  52.243  1.00  0.00     0.001 A 
HETATM   18  C11 UNL     1      23.503   5.958  51.303  1.00  0.00     0.001 A 
HETATM   19  C12 UNL     1      24.583   5.472  50.578  1.00  0.00     0.007 A 
HETATM   20  C13 UNL     1      25.129   4.212  50.752  1.00  0.00    -0.051 A 
HETATM   21  C14 UNL     1      26.254   3.921  49.872  1.00  0.00     0.049 C 
ENDBRANCH   9  15
BRANCH  10  22
HETATM   22  C15 UNL     1      23.233   0.544  52.176  1.00  0.00     0.120 C 
BRANCH  22  23
HETATM   23  C16 UNL     1      22.318   0.569  53.372  1.00  0.00     0.019 C 
BRANCH  23  24
HETATM   24  C17 UNL     1      21.730  -0.863  53.390  1.00  0.00    -0.003 C 
HETATM   25  C18 UNL     1      21.721  -1.415  54.796  1.00  0.00     0.005 C 
ENDBRANCH  23  24
ENDBRANCH  22  23
ENDBRANCH  10  22
TORSDOF 5
ENDMDL
MODEL 4
REMARK VINA RESULT:      -6.7      2.556      5.161
REMARK  5 active torsions:
REMARK  status: ('A' for Active; 'I' for Inactive)
REMARK    1  A    between atoms: C7_9  and  N1_10 
REMARK    2  A    between atoms: C7_9  and  C8_11 
REMARK    3  A    between atoms: N2_18  and  C15_19 
REMARK    4  A    between atoms: C15_19  and  C16_20 
REMARK    5  A    between atoms: C16_20  and  C17_21 
ROOT
HETATM    1  C1  UNL     1      27.126   2.513  53.567  1.00  0.00     0.015 C 
HETATM    2  C2  UNL     1      26.048   1.664  53.798  1.00  0.00     0.008 C 
HETATM    3  C3  UNL     1      26.654   0.357  53.963  1.00  0.00     0.179 C 
HETATM    4  O1  UNL     1      26.243  -0.747  53.148  1.00  0.00    -0.387 OA
HETATM    5  C4  UNL     1      25.033  -1.040  53.913  1.00  0.00     0.196 C 
HETATM    6  C5  UNL     1      24.011  -0.100  53.500  1.00  0.00     0.023 C 
HETATM    7  C6  UNL     1      24.195   0.730  52.505  1.00  0.00     0.073 C 
HETATM    8 CL1  UNL     1      25.475   1.036  51.360  1.00  0.00    -0.084 Cl
HETATM    9  C7  UNL     1      23.460   1.969  52.008  1.00  0.00     0.292 C 
HETATM   10  N2  UNL     1      24.244   2.935  52.540  1.00  0.00    -0.370 N 
HETATM   11  C19 UNL     1      24.990   2.677  53.724  1.00  0.00     0.132 C 
ENDROOT
BRANCH   9  12
HETATM   12  N1  UNL     1      22.236   1.927  52.857  1.00  0.00     0.117 N 
HETATM   13  H8  UNL     1      22.202   0.997  53.292  1.00  0.00     0.317 HD
HETATM   14  H9  UNL     1      22.268   2.680  53.571  1.00  0.00     0.317 HD
ENDBRANCH   9  12
BRANCH   9  15
HETATM   15  C8  UNL     1      22.931   1.884  50.686  1.00  0.00     0.012 A 
HETATM   16  C9  UNL     1      23.356   2.612  49.591  1.00  0.00     0.012 A 
HETATM   17  C10 UNL     1      22.880   2.567  48.302  1.00  0.00     0.001 A 
HETATM   18  C11 UNL     1      21.850   1.702  48.023  1.00  0.00     0.001 A 
HETATM   19  C12 UNL     1      21.384   0.945  49.090  1.00  0.00     0.007 A 
HETATM   20  C13 UNL     1      21.892   1.023  50.375  1.00  0.00    -0.051 A 
HETATM   21  C14 UNL     1      21.240   0.137  51.331  1.00  0.00     0.049 C 
ENDBRANCH   9  15
BRANCH  10  22
HETATM   22  C15 UNL     1      24.214   4.307  52.240  1.00  0.00     0.120 C 
BRANCH  22  23
HETATM   23  C16 UNL     1      23.025   5.115  52.689  1.00  0.00     0.019 C 
BRANCH  23  24
HETATM   24  C17 UNL     1      22.420   5.612  51.354  1.00  0.00    -0.003 C 
HETATM   25  C18 UNL     1      21.046   5.020  51.142  1.00  0.00     0.005 C 
ENDBRANCH  23  24
ENDBRANCH  22  23
ENDBRANCH  10  22
TORSDOF 5
ENDMDL
MODEL 5
REMARK VINA RESULT:      -6.6      7.276     10.555
REMARK  5 active torsions:
REMARK  status: ('A' for Active; 'I' for Inactive)
REMARK    1  A    between atoms: C7_9  and  N1_10 
REMARK    2  A    between atoms: C7_9  and  C8_11 
REMARK    3  A    between atoms: N2_18  and  C15_19 
REMARK    4  A    between atoms: C15_19  and  C16_20 
REMARK    5  A    between atoms: C16_20  and  C17_21 
ROOT
HETATM    1  C1  UNL     1      29.358   8.304  45.750  1.00  0.00     0.015 C 
HETATM    2  C2  UNL     1      30.393   8.624  46.622  1.00  0.00     0.008 C 
HETATM    3  C3  UNL     1      31.163   9.624  45.909  1.00  0.00     0.179 C 
HETATM    4  O1  UNL     1      32.564   9.441  45.677  1.00  0.00    -0.387 OA
HETATM    5  C4  UNL     1      32.981   9.852  47.015  1.00  0.00     0.196 C 
HETATM    6  C5  UNL     1      32.779   8.727  47.906  1.00  0.00     0.023 C 
HETATM    7  C6  UNL     1      32.423   7.548  47.462  1.00  0.00     0.073 C 
HETATM    8 CL1  UNL     1      32.121   6.848  45.893  1.00  0.00    -0.084 Cl
HETATM    9  C7  UNL     1      31.894   6.281  48.124  1.00  0.00     0.292 C 
HETATM   10  N2  UNL     1      30.572   6.422  47.876  1.00  0.00    -0.370 N 
HETATM   11  C19 UNL     1      30.010   7.719  47.710  1.00  0.00     0.132 C 
ENDROOT
BRANCH   9  12
HETATM   12  N1  UNL     1      32.075   6.622  49.564  1.00  0.00     0.117 N 
HETATM   13  H8  UNL     1      32.456   7.575  49.603  1.00  0.00     0.317 HD
HETATM   14  H9  UNL     1      31.169   6.553  50.065  1.00  0.00     0.317 HD
ENDBRANCH   9  12
BRANCH   9  15
HETATM   15  C8  UNL     1      32.707   5.119  47.969  1.00  0.00     0.012 A 
HETATM   16  C9  UNL     1      32.275   3.871  47.565  1.00  0.00     0.012 A 
HETATM   17  C10 UNL     1      33.015   2.724  47.402  1.00  0.00     0.001 A 
HETATM   18  C11 UNL     1      34.362   2.783  47.665  1.00  0.00     0.001 A 
HETATM   19  C12 UNL     1      34.850   4.016  48.076  1.00  0.00     0.007 A 
HETATM   20  C13 UNL     1      34.067   5.147  48.228  1.00  0.00    -0.051 A 
HETATM   21  C14 UNL     1      34.799   6.325  48.676  1.00  0.00     0.049 C 
ENDBRANCH   9  15
BRANCH  10  22
HETATM   22  C15 UNL     1      29.574   5.447  48.040  1.00  0.00     0.120 C 
BRANCH  22  23
HETATM   23  C16 UNL     1      28.172   5.900  48.351  1.00  0.00     0.019 C 
BRANCH  23  24
HETATM   24  C17 UNL     1      27.483   4.596  48.823  1.00  0.00    -0.003 C 
HETATM   25  C18 UNL     1      26.042   4.860  49.191  1.00  0.00     0.005 C 
ENDBRANCH  23  24
ENDBRANCH  22  23
ENDBRANCH  10  22
TORSDOF 5
ENDMDL
MODEL 6
REMARK VINA RESULT:      -6.6      2.110      4.870
REMARK  5 active torsions:
REMARK  status: ('A' for Active; 'I' for Inactive)
REMARK    1  A    between atoms: C7_9  and  N1_10 
REMARK    2  A    between atoms: C7_9  and  C8_11 
REMARK    3  A    between atoms: N2_18  and  C15_19 
REMARK    4  A    between atoms: C15_19  and  C16_20 
REMARK    5  A    between atoms: C16_20  and  C17_21 
ROOT
HETATM    1  C1  UNL     1      22.644   4.103  47.818  1.00  0.00     0.015 C 
HETATM    2  C2  UNL     1      22.851   4.587  49.105  1.00  0.00     0.008 C 
HETATM    3  C3  UNL     1      23.684   5.758  48.915  1.00  0.00     0.179 C 
HETATM    4  O1  UNL     1      24.941   5.881  49.591  1.00  0.00    -0.387 OA
HETATM    5  C4  UNL     1      24.370   6.304  50.868  1.00  0.00     0.196 C 
HETATM    6  C5  UNL     1      23.892   5.119  51.552  1.00  0.00     0.023 C 
HETATM    7  C6  UNL     1      24.114   3.915  51.089  1.00  0.00     0.073 C 
HETATM    8 CL1  UNL     1      24.969   3.245  49.724  1.00  0.00    -0.084 Cl
HETATM    9  C7  UNL     1      23.550   2.536  51.408  1.00  0.00     0.292 C 
HETATM   10  N2  UNL     1      22.653   2.412  50.402  1.00  0.00    -0.370 N 
HETATM   11  C19 UNL     1      22.071   3.571  49.818  1.00  0.00     0.132 C 
ENDROOT
BRANCH   9  12
HETATM   12  N1  UNL     1      22.750   2.837  52.629  1.00  0.00     0.117 N 
HETATM   13  H8  UNL     1      23.389   2.777  53.431  1.00  0.00     0.317 HD
HETATM   14  H9  UNL     1      22.320   3.779  52.553  1.00  0.00     0.317 HD
ENDBRANCH   9  12
BRANCH   9  15
HETATM   15  C8  UNL     1      24.495   1.576  51.878  1.00  0.00     0.012 A 
HETATM   16  C9  UNL     1      25.845   1.552  51.584  1.00  0.00     0.012 A 
HETATM   17  C10 UNL     1      26.793   0.652  52.008  1.00  0.00     0.001 A 
HETATM   18  C11 UNL     1      26.389  -0.371  52.832  1.00  0.00     0.001 A 
HETATM   19  C12 UNL     1      25.040  -0.394  53.159  1.00  0.00     0.007 A 
HETATM   20  C13 UNL     1      24.118   0.534  52.707  1.00  0.00    -0.051 A 
HETATM   21  C14 UNL     1      22.757   0.303  53.177  1.00  0.00     0.049 C 
ENDBRANCH   9  15
BRANCH  10  22
HETATM   22  C15 UNL     1      21.973   1.245  50.017  1.00  0.00     0.120 C 
BRANCH  22  23
HETATM   23  C16 UNL     1      20.496   1.334  49.738  1.00  0.00     0.019 C 
BRANCH  23  24
HETATM   24  C17 UNL     1      19.868   0.609  50.953  1.00  0.00    -0.003 C 
HETATM   25  C18 UNL     1      19.346   1.611  51.956  1.00  0.00     0.005 C 
ENDBRANCH  23  24
ENDBRANCH  22  23
ENDBRANCH  10  22
TORSDOF 5
ENDMDL
MODEL 7
REMARK VINA RESULT:      -6.6      2.276      5.448
REMARK  5 active torsions:
REMARK  status: ('A' for Active; 'I' for Inactive)
REMARK    1  A    between atoms: C7_9  and  N1_10 
REMARK    2  A    between atoms: C7_9  and  C8_11 
REMARK    3  A    between atoms: N2_18  and  C15_19 
REMARK    4  A    between atoms: C15_19  and  C16_20 
REMARK    5  A    between atoms: C16_20  and  C17_21 
ROOT
HETATM    1  C1  UNL     1      26.400   2.722  49.780  1.00  0.00     0.015 C 
HETATM    2  C2  UNL     1      26.049   2.990  51.099  1.00  0.00     0.008 C 
HETATM    3  C3  UNL     1      26.981   2.202  51.882  1.00  0.00     0.179 C 
HETATM    4  O1  UNL     1      26.507   1.259  52.851  1.00  0.00    -0.387 OA
HETATM    5  C4  UNL     1      26.235   2.251  53.888  1.00  0.00     0.196 C 
HETATM    6  C5  UNL     1      24.963   2.874  53.581  1.00  0.00     0.023 C 
HETATM    7  C6  UNL     1      24.201   2.447  52.606  1.00  0.00     0.073 C 
HETATM    8 CL1  UNL     1      24.275   1.147  51.447  1.00  0.00    -0.084 Cl
HETATM    9  C7  UNL     1      22.986   3.017  51.884  1.00  0.00     0.292 C 
HETATM   10  N2  UNL     1      23.584   3.509  50.774  1.00  0.00    -0.370 N 
HETATM   11  C19 UNL     1      24.947   3.915  50.818  1.00  0.00     0.132 C 
ENDROOT
BRANCH   9  12
HETATM   12  N1  UNL     1      22.682   4.199  52.739  1.00  0.00     0.117 N 
HETATM   13  H8  UNL     1      22.649   3.869  53.711  1.00  0.00     0.317 HD
HETATM   14  H9  UNL     1      23.406   4.932  52.609  1.00  0.00     0.317 HD
ENDBRANCH   9  12
BRANCH   9  15
HETATM   15  C8  UNL     1      21.793   2.242  51.979  1.00  0.00     0.012 A 
HETATM   16  C9  UNL     1      21.719   0.893  52.269  1.00  0.00     0.012 A 
HETATM   17  C10 UNL     1      20.598   0.103  52.370  1.00  0.00     0.001 A 
HETATM   18  C11 UNL     1      19.373   0.691  52.163  1.00  0.00     0.001 A 
HETATM   19  C12 UNL     1      19.390   2.047  51.868  1.00  0.00     0.007 A 
HETATM   20  C13 UNL     1      20.545   2.805  51.774  1.00  0.00    -0.051 A 
HETATM   21  C14 UNL     1      20.315   4.207  51.447  1.00  0.00     0.049 C 
ENDBRANCH   9  15
BRANCH  10  22
HETATM   22  C15 UNL     1      22.951   3.959  49.604  1.00  0.00     0.120 C 
BRANCH  22  23
HETATM   23  C16 UNL     1      23.001   3.085  48.379  1.00  0.00     0.019 C 
BRANCH  23  24
HETATM   24  C17 UNL     1      21.545   2.571  48.260  1.00  0.00    -0.003 C 
HETATM   25  C18 UNL     1      21.473   1.099  48.594  1.00  0.00     0.005 C 
ENDBRANCH  23  24
ENDBRANCH  22  23
ENDBRANCH  10  22
TORSDOF 5
ENDMDL
MODEL 8
REMARK VINA RESULT:      -6.4      2.314      5.356
REMARK  5 active torsions:
REMARK  status: ('A' for Active; 'I' for Inactive)
REMARK    1  A    between atoms: C7_9  and  N1_10 
REMARK    2  A    between atoms: C7_9  and  C8_11 
REMARK    3  A    between atoms: N2_18  and  C15_19 
REMARK    4  A    between atoms: C15_19  and  C16_20 
REMARK    5  A    between atoms: C16_20  and  C17_21 
ROOT
HETATM    1  C1  UNL     1      23.315   4.668  52.504  1.00  0.00     0.015 C 
HETATM    2  C2  UNL     1      22.634   4.277  51.356  1.00  0.00     0.008 C 
HETATM    3  C3  UNL     1      21.854   5.443  50.991  1.00  0.00     0.179 C 
HETATM    4  O1  UNL     1      20.434   5.351  50.827  1.00  0.00    -0.387 OA
HETATM    5  C4  UNL     1      20.486   4.775  49.485  1.00  0.00     0.196 C 
HETATM    6  C5  UNL     1      20.761   3.359  49.624  1.00  0.00     0.023 C 
HETATM    7  C6  UNL     1      20.791   2.770  50.793  1.00  0.00     0.073 C 
HETATM    8 CL1  UNL     1      20.521   3.266  52.443  1.00  0.00    -0.084 Cl
HETATM    9  C7  UNL     1      21.288   1.416  51.285  1.00  0.00     0.292 C 
HETATM   10  N2  UNL     1      22.490   1.778  51.792  1.00  0.00    -0.370 N 
HETATM   11  C19 UNL     1      23.170   2.914  51.273  1.00  0.00     0.132 C 
ENDROOT
BRANCH   9  12
HETATM   12  N1  UNL     1      21.581   0.738  49.991  1.00  0.00     0.117 N 
HETATM   13  H8  UNL     1      21.656  -0.267  50.186  1.00  0.00     0.317 HD
HETATM   14  H9  UNL     1      20.830   0.939  49.303  1.00  0.00     0.317 HD
ENDBRANCH   9  12
BRANCH   9  15
HETATM   15  C8  UNL     1      20.298   0.571  51.868  1.00  0.00     0.012 A 
HETATM   16  C9  UNL     1      20.420  -0.128  53.054  1.00  0.00     0.012 A 
HETATM   17  C10 UNL     1      19.499  -0.953  53.655  1.00  0.00     0.001 A 
HETATM   18  C11 UNL     1      18.289  -1.135  53.030  1.00  0.00     0.001 A 
HETATM   19  C12 UNL     1      18.114  -0.454  51.832  1.00  0.00     0.007 A 
HETATM   20  C13 UNL     1      19.071   0.368  51.261  1.00  0.00    -0.051 A 
HETATM   21  C14 UNL     1      18.664   0.971  49.998  1.00  0.00     0.049 C 
ENDBRANCH   9  15
BRANCH  10  22
HETATM   22  C15 UNL     1      23.332   1.001  52.603  1.00  0.00     0.120 C 
BRANCH  22  23
HETATM   23  C16 UNL     1      24.822   1.164  52.457  1.00  0.00     0.019 C 
BRANCH  23  24
HETATM   24  C17 UNL     1      25.373  -0.173  53.009  1.00  0.00    -0.003 C 
HETATM   25  C18 UNL     1      24.531  -0.657  54.166  1.00  0.00     0.005 C 
ENDBRANCH  23  24
ENDBRANCH  22  23
ENDBRANCH  10  22
TORSDOF 5
ENDMDL
MODEL 9
REMARK VINA RESULT:      -6.4      2.053      5.250
REMARK  5 active torsions:
REMARK  status: ('A' for Active; 'I' for Inactive)
REMARK    1  A    between atoms: C7_9  and  N1_10 
REMARK    2  A    between atoms: C7_9  and  C8_11 
REMARK    3  A    between atoms: N2_18  and  C15_19 
REMARK    4  A    between atoms: C15_19  and  C16_20 
REMARK    5  A    between atoms: C16_20  and  C17_21 
ROOT
HETATM    1  C1  UNL     1      21.025   5.156  50.599  1.00  0.00     0.015 C 
HETATM    2  C2  UNL     1      20.238   4.018  50.457  1.00  0.00     0.008 C 
HETATM    3  C3  UNL     1      18.931   4.429  50.932  1.00  0.00     0.179 C 
HETATM    4  O1  UNL     1      18.273   3.707  51.980  1.00  0.00    -0.387 OA
HETATM    5  C4  UNL     1      17.792   2.626  51.122  1.00  0.00     0.196 C 
HETATM    6  C5  UNL     1      18.893   1.708  50.911  1.00  0.00     0.023 C 
HETATM    7  C6  UNL     1      20.032   1.836  51.542  1.00  0.00     0.073 C 
HETATM    8 CL1  UNL     1      20.670   2.918  52.753  1.00  0.00    -0.084 Cl
HETATM    9  C7  UNL     1      21.418   1.228  51.361  1.00  0.00     0.292 C 
HETATM   10  N2  UNL     1      22.033   2.239  50.705  1.00  0.00    -0.370 N 
HETATM   11  C19 UNL     1      21.273   3.139  49.907  1.00  0.00     0.132 C 
ENDROOT
BRANCH   9  12
HETATM   12  N1  UNL     1      21.135   0.188  50.331  1.00  0.00     0.117 N 
HETATM   13  H8  UNL     1      22.003   0.045  49.801  1.00  0.00     0.317 HD
HETATM   14  H9  UNL     1      20.817  -0.689  50.786  1.00  0.00     0.317 HD
ENDBRANCH   9  12
BRANCH   9  15
HETATM   15  C8  UNL     1      21.903   0.460  52.462  1.00  0.00     0.012 A 
HETATM   16  C9  UNL     1      23.214   0.392  52.892  1.00  0.00     0.012 A 
HETATM   17  C10 UNL     1      23.731  -0.331  53.941  1.00  0.00     0.001 A 
HETATM   18  C11 UNL     1      22.865  -1.098  54.684  1.00  0.00     0.001 A 
HETATM   19  C12 UNL     1      21.533  -1.066  54.293  1.00  0.00     0.007 A 
HETATM   20  C13 UNL     1      21.056  -0.323  53.227  1.00  0.00    -0.051 A 
HETATM   21  C14 UNL     1      19.622  -0.452  53.002  1.00  0.00     0.049 C 
ENDBRANCH   9  15
BRANCH  10  22
HETATM   22  C15 UNL     1      23.410   2.372  50.460  1.00  0.00     0.120 C 
BRANCH  22  23
HETATM   23  C16 UNL     1      23.852   3.105  49.221  1.00  0.00     0.019 C 
BRANCH  23  24
HETATM   24  C17 UNL     1      25.031   3.970  49.732  1.00  0.00    -0.003 C 
HETATM   25  C18 UNL     1      26.341   3.238  49.553  1.00  0.00     0.005 C 
ENDBRANCH  23  24
ENDBRANCH  22  23
ENDBRANCH  10  22
TORSDOF 5
ENDMDL
