MODEL 1
REMARK VINA RESULT:      -8.8      0.000      0.000
REMARK  6 active torsions:
REMARK  status: ('A' for Active; 'I' for Inactive)
REMARK    1  A    between atoms: C2_2  and  C3_3 
REMARK    2  A    between atoms: C9_10  and  N2_11 
REMARK    3  A    between atoms: N2_11  and  C10_12 
REMARK       I    between atoms: N3_21  and  C18_22 
REMARK    4  A    between atoms: C18_22  and  C19_24 
REMARK    5  A    between atoms: C20_25  and  C21_26 
REMARK    6  A    between atoms: C21_26  and  N4_27 
ROOT
HETATM    1  C3  UNL     1      26.730   1.285  52.730  1.00  0.00    -0.055 C 
HETATM    2  C4  UNL     1      25.648   0.647  53.146  1.00  0.00    -0.041 A 
HETATM    3  C5  UNL     1      25.804  -0.124  54.397  1.00  0.00     0.068 A 
HETATM    4  C6  UNL     1      24.490  -0.726  54.730  1.00  0.00     0.003 A 
HETATM    5  C7  UNL     1      23.371  -0.621  54.024  1.00  0.00     0.068 A 
HETATM    6  C8  UNL     1      22.206  -1.295  54.537  1.00  0.00     0.101 C 
HETATM    7  N1  UNL     1      21.286  -1.841  54.936  1.00  0.00    -0.191 NA
HETATM    8  C9  UNL     1      23.383   0.171  52.786  1.00  0.00     0.061 A 
HETATM    9  C16 UNL     1      24.459   0.791  52.337  1.00  0.00    -0.005 A 
HETATM   10  C17 UNL     1      24.383   1.569  51.075  1.00  0.00     0.168 C 
HETATM   11  N3  UNL     1      25.645   2.294  50.868  1.00  0.00    -0.333 N 
HETATM   12  C18 UNL     1      25.476   3.266  49.847  1.00  0.00     0.299 C 
HETATM   13  O1  UNL     1      24.329   3.281  49.368  1.00  0.00    -0.258 OA
HETATM   14  C23 UNL     1      26.922   2.136  51.531  1.00  0.00     0.161 C 
ENDROOT
BRANCH   8  15
HETATM   15  N2  UNL     1      22.138   0.189  52.147  1.00  0.00    -0.354 N 
HETATM   16  H9  UNL     1      21.794  -0.679  51.660  1.00  0.00     0.166 HD
BRANCH  15  17
HETATM   17  C10 UNL     1      21.079   1.069  51.913  1.00  0.00     0.033 A 
HETATM   18  C11 UNL     1      21.234   2.310  52.534  1.00  0.00     0.029 A 
HETATM   19  C12 UNL     1      20.248   3.289  52.378  1.00  0.00     0.004 A 
HETATM   20  C13 UNL     1      19.129   3.038  51.616  1.00  0.00     0.019 A 
HETATM   21  C14 UNL     1      18.950   1.826  50.991  1.00  0.00     0.013 A 
HETATM   22 BR1  UNL     1      17.421   1.411  49.922  1.00  0.00    -0.051 Br
HETATM   23  C15 UNL     1      19.940   0.876  51.163  1.00  0.00     0.048 A 
ENDBRANCH  15  17
ENDBRANCH   8  15
BRANCH   1  24
HETATM   24  C2  UNL     1      28.010   1.225  53.477  1.00  0.00     0.032 C 
HETATM   25  C1  UNL     1      28.687   2.575  53.571  1.00  0.00     0.010 C 
ENDBRANCH   1  24
BRANCH  12  26
HETATM   26  C19 UNL     1      26.435   4.176  49.342  1.00  0.00    -0.004 C 
HETATM   27  C20 UNL     1      27.239   4.948  48.895  1.00  0.00    -0.066 C 
BRANCH  27  28
HETATM   28  C21 UNL     1      28.225   5.908  48.353  1.00  0.00     0.362 C 
BRANCH  28  29
HETATM   29  N4  UNL     1      28.045   7.133  49.115  1.00  0.00     0.089 N 
HETATM   30  C22 UNL     1      28.954   8.127  48.569  1.00  0.00     0.307 C 
HETATM   31  H18 UNL     1      28.213   7.006  50.119  1.00  0.00     0.316 HD
ENDBRANCH  28  29
ENDBRANCH  27  28
ENDBRANCH  12  26
TORSDOF 6
ENDMDL
MODEL 2
REMARK VINA RESULT:      -8.8      1.771      2.007
REMARK  6 active torsions:
REMARK  status: ('A' for Active; 'I' for Inactive)
REMARK    1  A    between atoms: C2_2  and  C3_3 
REMARK    2  A    between atoms: C9_10  and  N2_11 
REMARK    3  A    between atoms: N2_11  and  C10_12 
REMARK       I    between atoms: N3_21  and  C18_22 
REMARK    4  A    between atoms: C18_22  and  C19_24 
REMARK    5  A    between atoms: C20_25  and  C21_26 
REMARK    6  A    between atoms: C21_26  and  N4_27 
ROOT
HETATM    1  C3  UNL     1      25.899   1.716  52.045  1.00  0.00    -0.055 C 
HETATM    2  C4  UNL     1      24.947   0.983  52.600  1.00  0.00    -0.041 A 
HETATM    3  C5  UNL     1      25.410  -0.221  53.321  1.00  0.00     0.068 A 
HETATM    4  C6  UNL     1      24.221  -0.885  53.911  1.00  0.00     0.003 A 
HETATM    5  C7  UNL     1      22.959  -0.494  53.796  1.00  0.00     0.068 A 
HETATM    6  C8  UNL     1      21.961  -1.297  54.454  1.00  0.00     0.101 C 
HETATM    7  N1  UNL     1      21.168  -1.941  54.963  1.00  0.00    -0.191 NA
HETATM    8  C9  UNL     1      22.659   0.723  53.026  1.00  0.00     0.061 A 
HETATM    9  C16 UNL     1      23.590   1.452  52.440  1.00  0.00    -0.005 A 
HETATM   10  C17 UNL     1      23.198   2.666  51.680  1.00  0.00     0.168 C 
HETATM   11  N3  UNL     1      24.404   3.394  51.261  1.00  0.00    -0.333 N 
HETATM   12  C18 UNL     1      24.047   4.693  50.811  1.00  0.00     0.299 C 
HETATM   13  O1  UNL     1      22.825   4.913  50.867  1.00  0.00    -0.258 OA
HETATM   14  C23 UNL     1      25.788   2.968  51.257  1.00  0.00     0.161 C 
ENDROOT
BRANCH   8  15
HETATM   15  N2  UNL     1      21.290   1.011  52.988  1.00  0.00    -0.354 N 
HETATM   16  H9  UNL     1      20.885   1.692  53.682  1.00  0.00     0.166 HD
BRANCH  15  17
HETATM   17  C10 UNL     1      20.153   0.659  52.259  1.00  0.00     0.033 A 
HETATM   18  C11 UNL     1      20.152   1.147  50.950  1.00  0.00     0.029 A 
HETATM   19  C12 UNL     1      19.075   0.863  50.107  1.00  0.00     0.004 A 
HETATM   20  C13 UNL     1      18.016   0.106  50.557  1.00  0.00     0.019 A 
HETATM   21  C14 UNL     1      17.989  -0.389  51.839  1.00  0.00     0.013 A 
HETATM   22 BR1  UNL     1      16.551  -1.445  52.528  1.00  0.00    -0.051 Br
HETATM   23  C15 UNL     1      19.067  -0.093  52.652  1.00  0.00     0.048 A 
ENDBRANCH  15  17
ENDBRANCH   8  15
BRANCH   1  24
HETATM   24  C2  UNL     1      27.332   1.346  52.146  1.00  0.00     0.032 C 
HETATM   25  C1  UNL     1      28.078   2.199  53.147  1.00  0.00     0.010 C 
ENDBRANCH   1  24
BRANCH  12  26
HETATM   26  C19 UNL     1      24.900   5.713  50.326  1.00  0.00    -0.004 C 
HETATM   27  C20 UNL     1      25.638   6.564  49.911  1.00  0.00    -0.066 C 
BRANCH  27  28
HETATM   28  C21 UNL     1      26.538   7.615  49.388  1.00  0.00     0.362 C 
BRANCH  28  29
HETATM   29  N4  UNL     1      26.894   8.437  50.534  1.00  0.00     0.089 N 
HETATM   30  C22 UNL     1      27.801   9.473  50.066  1.00  0.00     0.307 C 
HETATM   31  H18 UNL     1      27.326   7.897  51.293  1.00  0.00     0.316 HD
ENDBRANCH  28  29
ENDBRANCH  27  28
ENDBRANCH  12  26
TORSDOF 6
ENDMDL
MODEL 3
REMARK VINA RESULT:      -8.4      3.386      4.464
REMARK  6 active torsions:
REMARK  status: ('A' for Active; 'I' for Inactive)
REMARK    1  A    between atoms: C2_2  and  C3_3 
REMARK    2  A    between atoms: C9_10  and  N2_11 
REMARK    3  A    between atoms: N2_11  and  C10_12 
REMARK       I    between atoms: N3_21  and  C18_22 
REMARK    4  A    between atoms: C18_22  and  C19_24 
REMARK    5  A    between atoms: C20_25  and  C21_26 
REMARK    6  A    between atoms: C21_26  and  N4_27 
ROOT
HETATM    1  C3  UNL     1      25.531   3.894  50.102  1.00  0.00    -0.055 C 
HETATM    2  C4  UNL     1      25.533   2.863  50.931  1.00  0.00    -0.041 A 
HETATM    3  C5  UNL     1      26.770   2.053  50.937  1.00  0.00     0.068 A 
HETATM    4  C6  UNL     1      26.609   0.981  51.950  1.00  0.00     0.003 A 
HETATM    5  C7  UNL     1      25.540   0.761  52.705  1.00  0.00     0.068 A 
HETATM    6  C8  UNL     1      25.603  -0.345  53.626  1.00  0.00     0.101 C 
HETATM    7  N1  UNL     1      25.648  -1.230  54.345  1.00  0.00    -0.191 NA
HETATM    8  C9  UNL     1      24.377   1.651  52.567  1.00  0.00     0.061 A 
HETATM    9  C16 UNL     1      24.342   2.667  51.726  1.00  0.00    -0.005 A 
HETATM   10  C17 UNL     1      23.125   3.513  51.650  1.00  0.00     0.168 C 
HETATM   11  N3  UNL     1      23.381   4.664  50.772  1.00  0.00    -0.333 N 
HETATM   12  C18 UNL     1      22.350   5.627  50.933  1.00  0.00     0.299 C 
HETATM   13  O1  UNL     1      21.484   5.285  51.756  1.00  0.00    -0.258 OA
HETATM   14  C23 UNL     1      24.469   4.897  49.846  1.00  0.00     0.161 C 
ENDROOT
BRANCH   8  15
HETATM   15  N2  UNL     1      23.326   1.296  53.422  1.00  0.00    -0.354 N 
HETATM   16  H9  UNL     1      23.328   1.643  54.416  1.00  0.00     0.166 HD
BRANCH  15  17
HETATM   17  C10 UNL     1      22.143   0.554  53.395  1.00  0.00     0.033 A 
HETATM   18  C11 UNL     1      22.112  -0.485  54.328  1.00  0.00     0.029 A 
HETATM   19  C12 UNL     1      20.983  -1.304  54.412  1.00  0.00     0.004 A 
HETATM   20  C13 UNL     1      19.903  -1.093  53.583  1.00  0.00     0.019 A 
HETATM   21  C14 UNL     1      19.905  -0.078  52.657  1.00  0.00     0.013 A 
HETATM   22 BR1  UNL     1      18.442   0.269  51.476  1.00  0.00    -0.051 Br
HETATM   23  C15 UNL     1      21.034   0.717  52.594  1.00  0.00     0.048 A 
ENDBRANCH  15  17
ENDBRANCH   8  15
BRANCH   1  24
HETATM   24  C2  UNL     1      26.696   4.209  49.240  1.00  0.00     0.032 C 
HETATM   25  C1  UNL     1      26.703   5.651  48.784  1.00  0.00     0.010 C 
ENDBRANCH   1  24
BRANCH  12  26
HETATM   26  C19 UNL     1      22.214   6.876  50.282  1.00  0.00    -0.004 C 
HETATM   27  C20 UNL     1      22.080   7.930  49.722  1.00  0.00    -0.066 C 
BRANCH  27  28
HETATM   28  C21 UNL     1      21.915   9.234  49.044  1.00  0.00     0.362 C 
BRANCH  28  29
HETATM   29  N4  UNL     1      20.543   9.642  49.299  1.00  0.00     0.089 N 
HETATM   30  C22 UNL     1      20.482  11.089  49.169  1.00  0.00     0.307 C 
HETATM   31  H18 UNL     1      20.205   9.350  50.224  1.00  0.00     0.316 HD
ENDBRANCH  28  29
ENDBRANCH  27  28
ENDBRANCH  12  26
TORSDOF 6
ENDMDL
MODEL 4
REMARK VINA RESULT:      -8.3      3.319      7.719
REMARK  6 active torsions:
REMARK  status: ('A' for Active; 'I' for Inactive)
REMARK    1  A    between atoms: C2_2  and  C3_3 
REMARK    2  A    between atoms: C9_10  and  N2_11 
REMARK    3  A    between atoms: N2_11  and  C10_12 
REMARK       I    between atoms: N3_21  and  C18_22 
REMARK    4  A    between atoms: C18_22  and  C19_24 
REMARK    5  A    between atoms: C20_25  and  C21_26 
REMARK    6  A    between atoms: C21_26  and  N4_27 
ROOT
HETATM    1  C3  UNL     1      23.346   0.404  52.854  1.00  0.00    -0.055 C 
HETATM    2  C4  UNL     1      24.129   1.187  52.130  1.00  0.00    -0.041 A 
HETATM    3  C5  UNL     1      25.580   1.028  52.365  1.00  0.00     0.068 A 
HETATM    4  C6  UNL     1      26.295   1.943  51.442  1.00  0.00     0.003 A 
HETATM    5  C7  UNL     1      25.743   2.781  50.574  1.00  0.00     0.068 A 
HETATM    6  C8  UNL     1      26.635   3.582  49.776  1.00  0.00     0.101 C 
HETATM    7  N1  UNL     1      27.342   4.228  49.154  1.00  0.00    -0.191 NA
HETATM    8  C9  UNL     1      24.276   2.835  50.472  1.00  0.00     0.061 A 
HETATM    9  C16 UNL     1      23.475   2.084  51.205  1.00  0.00    -0.005 A 
HETATM   10  C17 UNL     1      22.005   2.204  51.039  1.00  0.00     0.168 C 
HETATM   11  N3  UNL     1      21.334   1.165  51.834  1.00  0.00    -0.333 N 
HETATM   12  C18 UNL     1      19.971   1.074  51.448  1.00  0.00     0.299 C 
HETATM   13  O1  UNL     1      19.660   1.875  50.551  1.00  0.00    -0.258 OA
HETATM   14  C23 UNL     1      21.866   0.307  52.871  1.00  0.00     0.161 C 
ENDROOT
BRANCH   8  15
HETATM   15  N2  UNL     1      23.838   3.764  49.521  1.00  0.00    -0.354 N 
HETATM   16  H9  UNL     1      23.502   3.424  48.582  1.00  0.00     0.166 HD
BRANCH  15  17
HETATM   17  C10 UNL     1      23.678   5.143  49.383  1.00  0.00     0.033 A 
HETATM   18  C11 UNL     1      23.238   5.777  50.548  1.00  0.00     0.029 A 
HETATM   19  C12 UNL     1      23.042   7.160  50.550  1.00  0.00     0.004 A 
HETATM   20  C13 UNL     1      23.279   7.901  49.414  1.00  0.00     0.019 A 
HETATM   21  C14 UNL     1      23.712   7.306  48.253  1.00  0.00     0.013 A 
HETATM   22 BR1  UNL     1      24.058   8.275  46.641  1.00  0.00    -0.051 Br
HETATM   23  C15 UNL     1      23.898   5.936  48.278  1.00  0.00     0.048 A 
ENDBRANCH  15  17
ENDBRANCH   8  15
BRANCH   1  24
HETATM   24  C2  UNL     1      23.895  -0.566  53.831  1.00  0.00     0.032 C 
HETATM   25  C1  UNL     1      22.833  -1.115  54.758  1.00  0.00     0.010 C 
ENDBRANCH   1  24
BRANCH  12  26
HETATM   26  C19 UNL     1      18.977   0.204  51.957  1.00  0.00    -0.004 C 
HETATM   27  C20 UNL     1      18.143  -0.533  52.408  1.00  0.00    -0.066 C 
BRANCH  27  28
HETATM   28  C21 UNL     1      17.105  -1.430  52.962  1.00  0.00     0.362 C 
BRANCH  28  29
HETATM   29  N4  UNL     1      17.795  -2.305  53.895  1.00  0.00     0.089 N 
HETATM   30  C22 UNL     1      17.294  -3.654  53.686  1.00  0.00     0.307 C 
HETATM   31  H18 UNL     1      17.669  -2.023  54.874  1.00  0.00     0.316 HD
ENDBRANCH  28  29
ENDBRANCH  27  28
ENDBRANCH  12  26
TORSDOF 6
ENDMDL
MODEL 5
REMARK VINA RESULT:      -8.1      3.228      4.718
REMARK  6 active torsions:
REMARK  status: ('A' for Active; 'I' for Inactive)
REMARK    1  A    between atoms: C2_2  and  C3_3 
REMARK    2  A    between atoms: C9_10  and  N2_11 
REMARK    3  A    between atoms: N2_11  and  C10_12 
REMARK       I    between atoms: N3_21  and  C18_22 
REMARK    4  A    between atoms: C18_22  and  C19_24 
REMARK    5  A    between atoms: C20_25  and  C21_26 
REMARK    6  A    between atoms: C21_26  and  N4_27 
ROOT
HETATM    1  C3  UNL     1      22.903  -0.540  53.984  1.00  0.00    -0.055 C 
HETATM    2  C4  UNL     1      21.721  -0.455  53.396  1.00  0.00    -0.041 A 
HETATM    3  C5  UNL     1      20.616  -1.157  54.082  1.00  0.00     0.068 A 
HETATM    4  C6  UNL     1      19.372  -0.915  53.311  1.00  0.00     0.003 A 
HETATM    5  C7  UNL     1      19.262  -0.217  52.188  1.00  0.00     0.068 A 
HETATM    6  C8  UNL     1      17.948  -0.113  51.606  1.00  0.00     0.101 C 
HETATM    7  N1  UNL     1      16.910  -0.044  51.137  1.00  0.00    -0.191 NA
HETATM    8  C9  UNL     1      20.464   0.410  51.619  1.00  0.00     0.061 A 
HETATM    9  C16 UNL     1      21.658   0.313  52.174  1.00  0.00    -0.005 A 
HETATM   10  C17 UNL     1      22.820   0.976  51.530  1.00  0.00     0.168 C 
HETATM   11  N3  UNL     1      23.995   0.867  52.406  1.00  0.00    -0.333 N 
HETATM   12  C18 UNL     1      25.013   1.748  51.953  1.00  0.00     0.299 C 
HETATM   13  O1  UNL     1      24.690   2.392  50.941  1.00  0.00    -0.258 OA
HETATM   14  C23 UNL     1      24.206   0.035  53.572  1.00  0.00     0.161 C 
ENDROOT
BRANCH   8  15
HETATM   15  N2  UNL     1      20.197   1.109  50.436  1.00  0.00    -0.354 N 
HETATM   16  H9  UNL     1      19.745   0.606  49.629  1.00  0.00     0.166 HD
BRANCH  15  17
HETATM   17  C10 UNL     1      20.345   2.393  49.908  1.00  0.00     0.033 A 
HETATM   18  C11 UNL     1      19.819   3.399  50.722  1.00  0.00     0.029 A 
HETATM   19  C12 UNL     1      19.905   4.733  50.314  1.00  0.00     0.004 A 
HETATM   20  C13 UNL     1      20.503   5.061  49.118  1.00  0.00     0.019 A 
HETATM   21  C14 UNL     1      21.030   4.093  48.296  1.00  0.00     0.013 A 
HETATM   22 BR1  UNL     1      21.872   4.478  46.624  1.00  0.00    -0.051 Br
HETATM   23  C15 UNL     1      20.932   2.781  48.723  1.00  0.00     0.048 A 
ENDBRANCH  15  17
ENDBRANCH   8  15
BRANCH   1  24
HETATM   24  C2  UNL     1      23.096  -1.291  55.249  1.00  0.00     0.032 C 
HETATM   25  C1  UNL     1      24.532  -1.259  55.724  1.00  0.00     0.010 C 
ENDBRANCH   1  24
BRANCH  12  26
HETATM   26  C19 UNL     1      26.298   1.956  52.510  1.00  0.00    -0.004 C 
HETATM   27  C20 UNL     1      27.379   2.148  52.994  1.00  0.00    -0.066 C 
BRANCH  27  28
HETATM   28  C21 UNL     1      28.712   2.372  53.596  1.00  0.00     0.362 C 
BRANCH  28  29
HETATM   29  N4  UNL     1      29.384   1.083  53.561  1.00  0.00     0.089 N 
HETATM   30  C22 UNL     1      28.805   0.257  54.608  1.00  0.00     0.307 C 
HETATM   31  H18 UNL     1      30.400   1.160  53.685  1.00  0.00     0.316 HD
ENDBRANCH  28  29
ENDBRANCH  27  28
ENDBRANCH  12  26
TORSDOF 6
ENDMDL
MODEL 6
REMARK VINA RESULT:      -8.1      1.950      2.916
REMARK  6 active torsions:
REMARK  status: ('A' for Active; 'I' for Inactive)
REMARK    1  A    between atoms: C2_2  and  C3_3 
REMARK    2  A    between atoms: C9_10  and  N2_11 
REMARK    3  A    between atoms: N2_11  and  C10_12 
REMARK       I    between atoms: N3_21  and  C18_22 
REMARK    4  A    between atoms: C18_22  and  C19_24 
REMARK    5  A    between atoms: C20_25  and  C21_26 
REMARK    6  A    between atoms: C21_26  and  N4_27 
ROOT
HETATM    1  C3  UNL     1      23.971   0.784  52.646  1.00  0.00    -0.055 C 
HETATM    2  C4  UNL     1      22.719   0.380  52.786  1.00  0.00    -0.041 A 
HETATM    3  C5  UNL     1      22.431  -0.390  54.014  1.00  0.00     0.068 A 
HETATM    4  C6  UNL     1      20.984  -0.715  54.021  1.00  0.00     0.003 A 
HETATM    5  C7  UNL     1      20.098  -0.399  53.085  1.00  0.00     0.068 A 
HETATM    6  C8  UNL     1      18.738  -0.821  53.299  1.00  0.00     0.101 C 
HETATM    7  N1  UNL     1      17.662  -1.168  53.462  1.00  0.00    -0.191 NA
HETATM    8  C9  UNL     1      20.548   0.359  51.908  1.00  0.00     0.061 A 
HETATM    9  C16 UNL     1      21.798   0.747  51.735  1.00  0.00    -0.005 A 
HETATM   10  C17 UNL     1      22.166   1.508  50.514  1.00  0.00     0.168 C 
HETATM   11  N3  UNL     1      23.559   1.964  50.621  1.00  0.00    -0.333 N 
HETATM   12  C18 UNL     1      23.822   2.937  49.621  1.00  0.00     0.299 C 
HETATM   13  O1  UNL     1      22.840   3.174  48.896  1.00  0.00    -0.258 OA
HETATM   14  C23 UNL     1      24.595   1.564  51.550  1.00  0.00     0.161 C 
ENDROOT
BRANCH   8  15
HETATM   15  N2  UNL     1      19.509   0.616  51.005  1.00  0.00    -0.354 N 
HETATM   16  H9  UNL     1      19.276  -0.099  50.268  1.00  0.00     0.166 HD
BRANCH  15  17
HETATM   17  C10 UNL     1      18.574   1.613  50.722  1.00  0.00     0.033 A 
HETATM   18  C11 UNL     1      18.566   2.013  49.384  1.00  0.00     0.029 A 
HETATM   19  C12 UNL     1      17.673   3.001  48.962  1.00  0.00     0.004 A 
HETATM   20  C13 UNL     1      16.802   3.582  49.857  1.00  0.00     0.019 A 
HETATM   21  C14 UNL     1      16.785   3.210  51.180  1.00  0.00     0.013 A 
HETATM   22 BR1  UNL     1      15.604   3.976  52.473  1.00  0.00    -0.051 Br
HETATM   23  C15 UNL     1      17.679   2.230  51.570  1.00  0.00     0.048 A 
ENDBRANCH  15  17
ENDBRANCH   8  15
BRANCH   1  24
HETATM   24  C2  UNL     1      25.010   0.480  53.661  1.00  0.00     0.032 C 
HETATM   25  C1  UNL     1      26.110  -0.403  53.113  1.00  0.00     0.010 C 
ENDBRANCH   1  24
BRANCH  12  26
HETATM   26  C19 UNL     1      25.030   3.632  49.376  1.00  0.00    -0.004 C 
HETATM   27  C20 UNL     1      26.045   4.239  49.168  1.00  0.00    -0.066 C 
BRANCH  27  28
HETATM   28  C21 UNL     1      27.300   4.983  48.926  1.00  0.00     0.362 C 
BRANCH  28  29
HETATM   29  N4  UNL     1      27.046   6.344  49.370  1.00  0.00     0.089 N 
HETATM   30  C22 UNL     1      27.472   7.240  48.307  1.00  0.00     0.307 C 
HETATM   31  H18 UNL     1      27.528   6.573  50.247  1.00  0.00     0.316 HD
ENDBRANCH  28  29
ENDBRANCH  27  28
ENDBRANCH  12  26
TORSDOF 6
ENDMDL
MODEL 7
REMARK VINA RESULT:      -8.1      3.284      5.663
REMARK  6 active torsions:
REMARK  status: ('A' for Active; 'I' for Inactive)
REMARK    1  A    between atoms: C2_2  and  C3_3 
REMARK    2  A    between atoms: C9_10  and  N2_11 
REMARK    3  A    between atoms: N2_11  and  C10_12 
REMARK       I    between atoms: N3_21  and  C18_22 
REMARK    4  A    between atoms: C18_22  and  C19_24 
REMARK    5  A    between atoms: C20_25  and  C21_26 
REMARK    6  A    between atoms: C21_26  and  N4_27 
ROOT
HETATM    1  C3  UNL     1      23.166   4.975  51.027  1.00  0.00    -0.055 C 
HETATM    2  C4  UNL     1      23.055   3.749  51.512  1.00  0.00    -0.041 A 
HETATM    3  C5  UNL     1      21.756   3.426  52.137  1.00  0.00     0.068 A 
HETATM    4  C6  UNL     1      21.799   2.010  52.577  1.00  0.00     0.003 A 
HETATM    5  C7  UNL     1      22.826   1.177  52.460  1.00  0.00     0.068 A 
HETATM    6  C8  UNL     1      22.646  -0.161  52.962  1.00  0.00     0.101 C 
HETATM    7  N1  UNL     1      22.508  -1.217  53.373  1.00  0.00    -0.191 NA
HETATM    8  C9  UNL     1      24.063   1.658  51.826  1.00  0.00     0.061 A 
HETATM    9  C16 UNL     1      24.205   2.886  51.362  1.00  0.00    -0.005 A 
HETATM   10  C17 UNL     1      25.490   3.289  50.739  1.00  0.00     0.168 C 
HETATM   11  N3  UNL     1      25.355   4.632  50.158  1.00  0.00    -0.333 N 
HETATM   12  C18 UNL     1      26.459   4.897  49.305  1.00  0.00     0.299 C 
HETATM   13  O1  UNL     1      27.271   3.959  49.247  1.00  0.00    -0.258 OA
HETATM   14  C23 UNL     1      24.315   5.621  50.346  1.00  0.00     0.161 C 
ENDROOT
BRANCH   8  15
HETATM   15  N2  UNL     1      25.058   0.675  51.776  1.00  0.00    -0.354 N 
HETATM   16  H9  UNL     1      24.972  -0.113  51.082  1.00  0.00     0.166 HD
BRANCH  15  17
HETATM   17  C10 UNL     1      26.260   0.350  52.407  1.00  0.00     0.033 A 
HETATM   18  C11 UNL     1      26.544  -1.017  52.405  1.00  0.00     0.029 A 
HETATM   19  C12 UNL     1      27.722  -1.479  52.999  1.00  0.00     0.004 A 
HETATM   20  C13 UNL     1      28.601  -0.596  53.586  1.00  0.00     0.019 A 
HETATM   21  C14 UNL     1      28.349   0.755  53.603  1.00  0.00     0.013 A 
HETATM   22 BR1  UNL     1      29.525   2.034  54.400  1.00  0.00    -0.051 Br
HETATM   23  C15 UNL     1      27.177   1.185  53.008  1.00  0.00     0.048 A 
ENDBRANCH  15  17
ENDBRANCH   8  15
BRANCH   1  24
HETATM   24  C2  UNL     1      22.054   5.953  51.109  1.00  0.00     0.032 C 
HETATM   25  C1  UNL     1      22.454   7.324  50.610  1.00  0.00     0.010 C 
ENDBRANCH   1  24
BRANCH  12  26
HETATM   26  C19 UNL     1      26.716   6.067  48.550  1.00  0.00    -0.004 C 
HETATM   27  C20 UNL     1      26.930   7.071  47.927  1.00  0.00    -0.066 C 
BRANCH  27  28
HETATM   28  C21 UNL     1      27.208   8.303  47.158  1.00  0.00     0.362 C 
BRANCH  28  29
HETATM   29  N4  UNL     1      26.300   9.310  47.682  1.00  0.00     0.089 N 
HETATM   30  C22 UNL     1      25.078   9.253  46.895  1.00  0.00     0.307 C 
HETATM   31  H18 UNL     1      26.697  10.256  47.659  1.00  0.00     0.316 HD
ENDBRANCH  28  29
ENDBRANCH  27  28
ENDBRANCH  12  26
TORSDOF 6
ENDMDL
MODEL 8
REMARK VINA RESULT:      -7.9      3.342      5.972
REMARK  6 active torsions:
REMARK  status: ('A' for Active; 'I' for Inactive)
REMARK    1  A    between atoms: C2_2  and  C3_3 
REMARK    2  A    between atoms: C9_10  and  N2_11 
REMARK    3  A    between atoms: N2_11  and  C10_12 
REMARK       I    between atoms: N3_21  and  C18_22 
REMARK    4  A    between atoms: C18_22  and  C19_24 
REMARK    5  A    between atoms: C20_25  and  C21_26 
REMARK    6  A    between atoms: C21_26  and  N4_27 
ROOT
HETATM    1  C3  UNL     1      22.142  -0.251  52.963  1.00  0.00    -0.055 C 
HETATM    2  C4  UNL     1      21.295   0.433  52.213  1.00  0.00    -0.041 A 
HETATM    3  C5  UNL     1      19.873   0.054  52.349  1.00  0.00     0.068 A 
HETATM    4  C6  UNL     1      19.076   0.951  51.477  1.00  0.00     0.003 A 
HETATM    5  C7  UNL     1      19.545   1.909  50.689  1.00  0.00     0.068 A 
HETATM    6  C8  UNL     1      18.583   2.659  49.923  1.00  0.00     0.101 C 
HETATM    7  N1  UNL     1      17.821   3.244  49.305  1.00  0.00    -0.191 NA
HETATM    8  C9  UNL     1      20.995   2.153  50.651  1.00  0.00     0.061 A 
HETATM    9  C16 UNL     1      21.860   1.462  51.369  1.00  0.00    -0.005 A 
HETATM   10  C17 UNL     1      23.308   1.773  51.269  1.00  0.00     0.168 C 
HETATM   11  N3  UNL     1      24.049   0.993  52.270  1.00  0.00    -0.333 N 
HETATM   12  C18 UNL     1      25.370   1.501  52.392  1.00  0.00     0.299 C 
HETATM   13  O1  UNL     1      25.596   2.464  51.639  1.00  0.00    -0.258 OA
HETATM   14  C23 UNL     1      23.617  -0.134  53.070  1.00  0.00     0.161 C 
ENDROOT
BRANCH   8  15
HETATM   15  N2  UNL     1      21.343   3.188  49.775  1.00  0.00    -0.354 N 
HETATM   16  H9  UNL     1      21.223   3.050  48.738  1.00  0.00     0.166 HD
BRANCH  15  17
HETATM   17  C10 UNL     1      21.853   4.486  49.819  1.00  0.00     0.033 A 
HETATM   18  C11 UNL     1      21.183   5.323  50.715  1.00  0.00     0.029 A 
HETATM   19  C12 UNL     1      21.595   6.650  50.862  1.00  0.00     0.004 A 
HETATM   20  C13 UNL     1      22.656   7.137  50.131  1.00  0.00     0.019 A 
HETATM   21  C14 UNL     1      23.336   6.338  49.243  1.00  0.00     0.013 A 
HETATM   22 BR1  UNL     1      24.814   6.950  48.197  1.00  0.00    -0.051 Br
HETATM   23  C15 UNL     1      22.907   5.029  49.117  1.00  0.00     0.048 A 
ENDBRANCH  15  17
ENDBRANCH   8  15
BRANCH   1  24
HETATM   24  C2  UNL     1      21.686  -1.326  53.878  1.00  0.00     0.032 C 
HETATM   25  C1  UNL     1      22.514  -1.397  55.143  1.00  0.00     0.010 C 
ENDBRANCH   1  24
BRANCH  12  26
HETATM   26  C19 UNL     1      26.405   1.045  53.241  1.00  0.00    -0.004 C 
HETATM   27  C20 UNL     1      27.272   0.662  53.979  1.00  0.00    -0.066 C 
BRANCH  27  28
HETATM   28  C21 UNL     1      28.338   0.177  54.883  1.00  0.00     0.362 C 
BRANCH  28  29
HETATM   29  N4  UNL     1      28.947  -0.955  54.204  1.00  0.00     0.089 N 
HETATM   30  C22 UNL     1      30.129  -0.468  53.510  1.00  0.00     0.307 C 
HETATM   31  H18 UNL     1      28.309  -1.416  53.546  1.00  0.00     0.316 HD
ENDBRANCH  28  29
ENDBRANCH  27  28
ENDBRANCH  12  26
TORSDOF 6
ENDMDL
MODEL 9
REMARK VINA RESULT:      -7.9      3.309      7.803
REMARK  6 active torsions:
REMARK  status: ('A' for Active; 'I' for Inactive)
REMARK    1  A    between atoms: C2_2  and  C3_3 
REMARK    2  A    between atoms: C9_10  and  N2_11 
REMARK    3  A    between atoms: N2_11  and  C10_12 
REMARK       I    between atoms: N3_21  and  C18_22 
REMARK    4  A    between atoms: C18_22  and  C19_24 
REMARK    5  A    between atoms: C20_25  and  C21_26 
REMARK    6  A    between atoms: C21_26  and  N4_27 
ROOT
HETATM    1  C3  UNL     1      21.559  -0.192  53.106  1.00  0.00    -0.055 C 
HETATM    2  C4  UNL     1      22.749   0.343  52.889  1.00  0.00    -0.041 A 
HETATM    3  C5  UNL     1      23.826  -0.108  53.795  1.00  0.00     0.068 A 
HETATM    4  C6  UNL     1      25.085   0.556  53.376  1.00  0.00     0.003 A 
HETATM    5  C7  UNL     1      25.228   1.422  52.382  1.00  0.00     0.068 A 
HETATM    6  C8  UNL     1      26.550   1.946  52.152  1.00  0.00     0.101 C 
HETATM    7  N1  UNL     1      27.595   2.373  51.980  1.00  0.00    -0.191 NA
HETATM    8  C9  UNL     1      24.050   1.784  51.579  1.00  0.00     0.061 A 
HETATM    9  C16 UNL     1      22.848   1.285  51.797  1.00  0.00    -0.005 A 
HETATM   10  C17 UNL     1      21.712   1.707  50.939  1.00  0.00     0.168 C 
HETATM   11  N3  UNL     1      20.525   0.904  51.264  1.00  0.00    -0.333 N 
HETATM   12  C18 UNL     1      19.538   1.080  50.258  1.00  0.00     0.299 C 
HETATM   13  O1  UNL     1      19.891   1.858  49.355  1.00  0.00    -0.258 OA
HETATM   14  C23 UNL     1      20.278   0.035  52.395  1.00  0.00     0.161 C 
ENDROOT
BRANCH   8  15
HETATM   15  N2  UNL     1      24.350   2.709  50.571  1.00  0.00    -0.354 N 
HETATM   16  H9  UNL     1      24.369   2.392  49.567  1.00  0.00     0.166 HD
BRANCH  15  17
HETATM   17  C10 UNL     1      24.668   4.061  50.435  1.00  0.00     0.033 A 
HETATM   18  C11 UNL     1      23.903   4.903  51.246  1.00  0.00     0.029 A 
HETATM   19  C12 UNL     1      24.122   6.282  51.212  1.00  0.00     0.004 A 
HETATM   20  C13 UNL     1      25.086   6.816  50.386  1.00  0.00     0.019 A 
HETATM   21  C14 UNL     1      25.856   6.014  49.578  1.00  0.00     0.013 A 
HETATM   22 BR1  UNL     1      27.208   6.689  48.408  1.00  0.00    -0.051 Br
HETATM   23  C15 UNL     1      25.618   4.653  49.630  1.00  0.00     0.048 A 
ENDBRANCH  15  17
ENDBRANCH   8  15
BRANCH   1  24
HETATM   24  C2  UNL     1      21.330  -1.179  54.189  1.00  0.00     0.032 C 
HETATM   25  C1  UNL     1      19.987  -1.864  54.071  1.00  0.00     0.010 C 
ENDBRANCH   1  24
BRANCH  12  26
HETATM   26  C19 UNL     1      18.255   0.489  50.183  1.00  0.00    -0.004 C 
HETATM   27  C20 UNL     1      17.163  -0.010  50.141  1.00  0.00    -0.066 C 
BRANCH  27  28
HETATM   28  C21 UNL     1      15.814  -0.613  50.080  1.00  0.00     0.362 C 
BRANCH  28  29
HETATM   29  N4  UNL     1      15.342  -0.665  51.454  1.00  0.00     0.089 N 
HETATM   30  C22 UNL     1      15.363  -2.057  51.874  1.00  0.00     0.307 C 
HETATM   31  H18 UNL     1      14.401  -0.270  51.567  1.00  0.00     0.316 HD
ENDBRANCH  28  29
ENDBRANCH  27  28
ENDBRANCH  12  26
TORSDOF 6
ENDMDL
