MODEL 1
REMARK VINA RESULT:      -8.3      0.000      0.000
REMARK  7 active torsions:
REMARK  status: ('A' for Active; 'I' for Inactive)
REMARK    1  A    between atoms: O1_2  and  C2_3 
REMARK    2  A    between atoms: C6_8  and  N2_9 
REMARK    3  A    between atoms: N2_9  and  C7_10 
REMARK    4  A    between atoms: C14_19  and  C15_20 
REMARK    5  A    between atoms: C15_20  and  C16_21 
REMARK    6  A    between atoms: C16_21  and  C17_22 
REMARK    7  A    between atoms: C17_22  and  N3_23 
ROOT
HETATM    1  C2  UNL     1      21.035   1.050  53.192  1.00  0.00     0.076 C 
HETATM    2  C3  UNL     1      20.654   0.312  54.267  1.00  0.00     0.064 C 
HETATM    3  C4  UNL     1      21.708  -0.645  54.585  1.00  0.00     0.035 C 
HETATM    4  N1  UNL     1      22.549  -1.147  55.423  1.00  0.00    -0.291 NA
HETATM    5  C5  UNL     1      24.004  -1.142  55.044  1.00  0.00     0.178 C 
HETATM    6  C6  UNL     1      24.285  -0.363  53.727  1.00  0.00     0.132 C 
HETATM    7  C13 UNL     1      23.028  -0.055  53.073  1.00  0.00    -0.041 C 
HETATM    8  C14 UNL     1      22.323   0.891  52.505  1.00  0.00    -0.020 C 
HETATM    9  C20 UNL     1      22.220  -1.372  53.308  1.00  0.00     0.096 C 
ENDROOT
BRANCH   6  10
HETATM   10  N2  UNL     1      25.207   0.693  53.948  1.00  0.00    -0.380 N 
HETATM   11  H8  UNL     1      24.893   1.646  54.239  1.00  0.00     0.160 HD
BRANCH  10  12
HETATM   12  C7  UNL     1      26.615   0.533  53.798  1.00  0.00     0.030 A 
HETATM   13  C8  UNL     1      27.534   1.560  53.849  1.00  0.00     0.032 A 
HETATM   14  C9  UNL     1      28.882   1.426  53.706  1.00  0.00     0.046 A 
HETATM   15  C10 UNL     1      29.405   0.178  53.491  1.00  0.00     0.138 A 
HETATM   16  F1  UNL     1      30.727  -0.044  53.339  1.00  0.00    -0.204 F 
HETATM   17  C11 UNL     1      28.556  -0.880  53.429  1.00  0.00     0.074 A 
HETATM   18 CL1  UNL     1      29.156  -2.522  53.155  1.00  0.00    -0.081 Cl
HETATM   19  C12 UNL     1      27.199  -0.700  53.579  1.00  0.00     0.056 A 
ENDBRANCH  10  12
ENDBRANCH   6  10
BRANCH   8  20
HETATM   20  C15 UNL     1      23.090   1.521  51.468  1.00  0.00     0.043 C 
BRANCH  20  21
HETATM   21  C16 UNL     1      23.578   2.919  51.717  1.00  0.00     0.021 C 
BRANCH  21  22
HETATM   22  C17 UNL     1      25.010   3.175  51.346  1.00  0.00     0.121 C 
BRANCH  22  23
HETATM   23  N3  UNL     1      25.187   3.240  49.900  1.00  0.00    -0.195 NA
HETATM   24  C18 UNL     1      26.562   3.534  49.569  1.00  0.00     0.148 C 
HETATM   25  C19 UNL     1      26.127   4.920  49.183  1.00  0.00     0.210 C 
HETATM   26  O2  UNL     1      24.836   4.416  49.337  1.00  0.00    -0.302 OA
ENDBRANCH  22  23
ENDBRANCH  21  22
ENDBRANCH  20  21
ENDBRANCH   8  20
BRANCH   1  27
HETATM   27  O1  UNL     1      20.186   2.010  52.703  1.00  0.00    -0.355 OA
HETATM   28  C1  UNL     1      19.351   1.634  51.599  1.00  0.00     0.210 C 
ENDBRANCH   1  27
TORSDOF 7
ENDMDL
MODEL 2
REMARK VINA RESULT:      -8.2      1.008      1.334
REMARK  7 active torsions:
REMARK  status: ('A' for Active; 'I' for Inactive)
REMARK    1  A    between atoms: O1_2  and  C2_3 
REMARK    2  A    between atoms: C6_8  and  N2_9 
REMARK    3  A    between atoms: N2_9  and  C7_10 
REMARK    4  A    between atoms: C14_19  and  C15_20 
REMARK    5  A    between atoms: C15_20  and  C16_21 
REMARK    6  A    between atoms: C16_21  and  C17_22 
REMARK    7  A    between atoms: C17_22  and  N3_23 
ROOT
HETATM    1  C2  UNL     1      20.919   1.063  53.141  1.00  0.00     0.076 C 
HETATM    2  C3  UNL     1      20.529   0.388  54.254  1.00  0.00     0.064 C 
HETATM    3  C4  UNL     1      21.541  -0.611  54.582  1.00  0.00     0.035 C 
HETATM    4  N1  UNL     1      22.377  -1.125  55.419  1.00  0.00    -0.291 NA
HETATM    5  C5  UNL     1      23.820  -1.212  55.003  1.00  0.00     0.178 C 
HETATM    6  C6  UNL     1      24.105  -0.499  53.650  1.00  0.00     0.132 C 
HETATM    7  C13 UNL     1      22.848  -0.150  53.016  1.00  0.00    -0.041 C 
HETATM    8  C14 UNL     1      22.178   0.810  52.429  1.00  0.00    -0.020 C 
HETATM    9  C20 UNL     1      21.979  -1.413  53.323  1.00  0.00     0.096 C 
ENDROOT
BRANCH   6  10
HETATM   10  N2  UNL     1      25.086   0.514  53.805  1.00  0.00    -0.380 N 
HETATM   11  H8  UNL     1      24.825   1.510  53.990  1.00  0.00     0.160 HD
BRANCH  10  12
HETATM   12  C7  UNL     1      26.484   0.253  53.730  1.00  0.00     0.030 A 
HETATM   13  C8  UNL     1      27.043  -0.904  53.227  1.00  0.00     0.032 A 
HETATM   14  C9  UNL     1      28.376  -1.172  53.150  1.00  0.00     0.046 A 
HETATM   15  C10 UNL     1      29.268  -0.235  53.600  1.00  0.00     0.138 A 
HETATM   16  F1  UNL     1      30.604  -0.419  53.560  1.00  0.00    -0.204 F 
HETATM   17  C11 UNL     1      28.787   0.929  54.109  1.00  0.00     0.074 A 
HETATM   18 CL1  UNL     1      29.875   2.187  54.710  1.00  0.00    -0.081 Cl
HETATM   19  C12 UNL     1      27.429   1.159  54.169  1.00  0.00     0.056 A 
ENDBRANCH  10  12
ENDBRANCH   6  10
BRANCH   8  20
HETATM   20  C15 UNL     1      22.948   1.358  51.349  1.00  0.00     0.043 C 
BRANCH  20  21
HETATM   21  C16 UNL     1      23.452   2.765  51.499  1.00  0.00     0.021 C 
BRANCH  21  22
HETATM   22  C17 UNL     1      24.917   2.954  51.235  1.00  0.00     0.121 C 
BRANCH  22  23
HETATM   23  N3  UNL     1      25.181   3.197  49.821  1.00  0.00    -0.195 NA
HETATM   24  C18 UNL     1      26.551   3.610  49.625  1.00  0.00     0.148 C 
HETATM   25  C19 UNL     1      26.048   5.003  49.366  1.00  0.00     0.210 C 
HETATM   26  O2  UNL     1      24.787   4.408  49.371  1.00  0.00    -0.302 OA
ENDBRANCH  22  23
ENDBRANCH  21  22
ENDBRANCH  20  21
ENDBRANCH   8  20
BRANCH   1  27
HETATM   27  O1  UNL     1      20.108   2.047  52.636  1.00  0.00    -0.355 OA
HETATM   28  C1  UNL     1      19.180   1.659  51.614  1.00  0.00     0.210 C 
ENDBRANCH   1  27
TORSDOF 7
ENDMDL
MODEL 3
REMARK VINA RESULT:      -7.9      3.755      6.021
REMARK  7 active torsions:
REMARK  status: ('A' for Active; 'I' for Inactive)
REMARK    1  A    between atoms: O1_2  and  C2_3 
REMARK    2  A    between atoms: C6_8  and  N2_9 
REMARK    3  A    between atoms: N2_9  and  C7_10 
REMARK    4  A    between atoms: C14_19  and  C15_20 
REMARK    5  A    between atoms: C15_20  and  C16_21 
REMARK    6  A    between atoms: C16_21  and  C17_22 
REMARK    7  A    between atoms: C17_22  and  N3_23 
ROOT
HETATM    1  C2  UNL     1      23.274   0.054  53.311  1.00  0.00     0.076 C 
HETATM    2  C3  UNL     1      22.160  -0.379  52.666  1.00  0.00     0.064 C 
HETATM    3  C4  UNL     1      21.745   0.634  51.702  1.00  0.00     0.035 C 
HETATM    4  N1  UNL     1      21.457   0.978  50.493  1.00  0.00    -0.291 NA
HETATM    5  C5  UNL     1      22.239   2.108  49.881  1.00  0.00     0.178 C 
HETATM    6  C6  UNL     1      23.415   2.588  50.780  1.00  0.00     0.132 C 
HETATM    7  C13 UNL     1      23.294   1.984  52.093  1.00  0.00    -0.041 C 
HETATM    8  C14 UNL     1      23.935   1.335  53.034  1.00  0.00    -0.020 C 
HETATM    9  C20 UNL     1      21.751   2.056  52.333  1.00  0.00     0.096 C 
ENDROOT
BRANCH   6  10
HETATM   10  N2  UNL     1      24.654   2.479  50.099  1.00  0.00    -0.380 N 
HETATM   11  H8  UNL     1      25.111   1.553  49.932  1.00  0.00     0.160 HD
BRANCH  10  12
HETATM   12  C7  UNL     1      25.357   3.608  49.590  1.00  0.00     0.030 A 
HETATM   13  C8  UNL     1      26.720   3.656  49.375  1.00  0.00     0.032 A 
HETATM   14  C9  UNL     1      27.409   4.728  48.892  1.00  0.00     0.046 A 
HETATM   15  C10 UNL     1      26.723   5.872  48.581  1.00  0.00     0.138 A 
HETATM   16  F1  UNL     1      27.327   6.977  48.098  1.00  0.00    -0.204 F 
HETATM   17  C11 UNL     1      25.378   5.894  48.769  1.00  0.00     0.074 A 
HETATM   18 CL1  UNL     1      24.423   7.335  48.391  1.00  0.00    -0.081 Cl
HETATM   19  C12 UNL     1      24.720   4.788  49.260  1.00  0.00     0.056 A 
ENDBRANCH  10  12
ENDBRANCH   6  10
BRANCH   8  20
HETATM   20  C15 UNL     1      25.123   2.052  53.402  1.00  0.00     0.043 C 
BRANCH  20  21
HETATM   21  C16 UNL     1      26.192   1.293  54.135  1.00  0.00     0.021 C 
BRANCH  21  22
HETATM   22  C17 UNL     1      26.976   0.322  53.300  1.00  0.00     0.121 C 
BRANCH  22  23
HETATM   23  N3  UNL     1      27.702  -0.634  54.129  1.00  0.00    -0.195 NA
HETATM   24  C18 UNL     1      28.973  -0.084  54.541  1.00  0.00     0.148 C 
HETATM   25  C19 UNL     1      29.641  -1.018  53.570  1.00  0.00     0.210 C 
HETATM   26  O2  UNL     1      28.373  -1.584  53.444  1.00  0.00    -0.302 OA
ENDBRANCH  22  23
ENDBRANCH  21  22
ENDBRANCH  20  21
ENDBRANCH   8  20
BRANCH   1  27
HETATM   27  O1  UNL     1      23.836  -0.736  54.281  1.00  0.00    -0.355 OA
HETATM   28  C1  UNL     1      22.943  -1.318  55.241  1.00  0.00     0.210 C 
ENDBRANCH   1  27
TORSDOF 7
ENDMDL
MODEL 4
REMARK VINA RESULT:      -7.8      1.705      2.238
REMARK  7 active torsions:
REMARK  status: ('A' for Active; 'I' for Inactive)
REMARK    1  A    between atoms: O1_2  and  C2_3 
REMARK    2  A    between atoms: C6_8  and  N2_9 
REMARK    3  A    between atoms: N2_9  and  C7_10 
REMARK    4  A    between atoms: C14_19  and  C15_20 
REMARK    5  A    between atoms: C15_20  and  C16_21 
REMARK    6  A    between atoms: C16_21  and  C17_22 
REMARK    7  A    between atoms: C17_22  and  N3_23 
ROOT
HETATM    1  C2  UNL     1      21.508   2.867  52.230  1.00  0.00     0.076 C 
HETATM    2  C3  UNL     1      20.422   2.198  52.698  1.00  0.00     0.064 C 
HETATM    3  C4  UNL     1      20.754   0.782  52.822  1.00  0.00     0.035 C 
HETATM    4  N1  UNL     1      20.845  -0.288  53.535  1.00  0.00    -0.291 NA
HETATM    5  C5  UNL     1      22.186  -0.962  53.619  1.00  0.00     0.178 C 
HETATM    6  C6  UNL     1      23.320  -0.143  52.938  1.00  0.00     0.132 C 
HETATM    7  C13 UNL     1      22.737   0.945  52.177  1.00  0.00    -0.041 C 
HETATM    8  C14 UNL     1      22.797   2.231  51.933  1.00  0.00    -0.020 C 
HETATM    9  C20 UNL     1      21.481   0.255  51.552  1.00  0.00     0.096 C 
ENDROOT
BRANCH   6  10
HETATM   10  N2  UNL     1      24.355   0.158  53.860  1.00  0.00    -0.380 N 
HETATM   11  H8  UNL     1      24.162   0.644  54.765  1.00  0.00     0.160 HD
BRANCH  10  12
HETATM   12  C7  UNL     1      25.719  -0.183  53.629  1.00  0.00     0.030 A 
HETATM   13  C8  UNL     1      26.146  -1.317  52.968  1.00  0.00     0.032 A 
HETATM   14  C9  UNL     1      27.444  -1.661  52.741  1.00  0.00     0.046 A 
HETATM   15  C10 UNL     1      28.438  -0.832  53.191  1.00  0.00     0.138 A 
HETATM   16  F1  UNL     1      29.748  -1.096  53.007  1.00  0.00    -0.204 F 
HETATM   17  C11 UNL     1      28.089   0.303  53.850  1.00  0.00     0.074 A 
HETATM   18 CL1  UNL     1      29.315   1.423  54.461  1.00  0.00    -0.081 Cl
HETATM   19  C12 UNL     1      26.762   0.612  54.059  1.00  0.00     0.056 A 
ENDBRANCH  10  12
ENDBRANCH   6  10
BRANCH   8  20
HETATM   20  C15 UNL     1      24.132   2.597  51.554  1.00  0.00     0.043 C 
BRANCH  20  21
HETATM   21  C16 UNL     1      24.343   3.109  50.158  1.00  0.00     0.021 C 
BRANCH  21  22
HETATM   22  C17 UNL     1      25.738   2.961  49.623  1.00  0.00     0.121 C 
BRANCH  22  23
HETATM   23  N3  UNL     1      26.589   4.072  50.033  1.00  0.00    -0.195 NA
HETATM   24  C18 UNL     1      25.950   5.335  49.742  1.00  0.00     0.148 C 
HETATM   25  C19 UNL     1      26.927   5.517  48.613  1.00  0.00     0.210 C 
HETATM   26  O2  UNL     1      27.560   4.398  49.152  1.00  0.00    -0.302 OA
ENDBRANCH  22  23
ENDBRANCH  21  22
ENDBRANCH  20  21
ENDBRANCH   8  20
BRANCH   1  27
HETATM   27  O1  UNL     1      21.421   4.220  52.019  1.00  0.00    -0.355 OA
HETATM   28  C1  UNL     1      20.792   4.646  50.803  1.00  0.00     0.210 C 
ENDBRANCH   1  27
TORSDOF 7
ENDMDL
MODEL 5
REMARK VINA RESULT:      -7.8      2.158      2.765
REMARK  7 active torsions:
REMARK  status: ('A' for Active; 'I' for Inactive)
REMARK    1  A    between atoms: O1_2  and  C2_3 
REMARK    2  A    between atoms: C6_8  and  N2_9 
REMARK    3  A    between atoms: N2_9  and  C7_10 
REMARK    4  A    between atoms: C14_19  and  C15_20 
REMARK    5  A    between atoms: C15_20  and  C16_21 
REMARK    6  A    between atoms: C16_21  and  C17_22 
REMARK    7  A    between atoms: C17_22  and  N3_23 
ROOT
HETATM    1  C2  UNL     1      21.339   2.796  52.316  1.00  0.00     0.076 C 
HETATM    2  C3  UNL     1      20.299   2.054  52.781  1.00  0.00     0.064 C 
HETATM    3  C4  UNL     1      20.716   0.659  52.875  1.00  0.00     0.035 C 
HETATM    4  N1  UNL     1      20.877  -0.417  53.567  1.00  0.00    -0.291 NA
HETATM    5  C5  UNL     1      22.257  -1.012  53.625  1.00  0.00     0.178 C 
HETATM    6  C6  UNL     1      23.333  -0.114  52.949  1.00  0.00     0.132 C 
HETATM    7  C13 UNL     1      22.679   0.951  52.215  1.00  0.00    -0.041 C 
HETATM    8  C14 UNL     1      22.660   2.242  51.994  1.00  0.00    -0.020 C 
HETATM    9  C20 UNL     1      21.459   0.199  51.589  1.00  0.00     0.096 C 
ENDROOT
BRANCH   6  10
HETATM   10  N2  UNL     1      24.358   0.231  53.867  1.00  0.00    -0.380 N 
HETATM   11  H8  UNL     1      24.151   0.732  54.761  1.00  0.00     0.160 HD
BRANCH  10  12
HETATM   12  C7  UNL     1      25.730  -0.083  53.646  1.00  0.00     0.030 A 
HETATM   13  C8  UNL     1      26.184  -1.207  52.987  1.00  0.00     0.032 A 
HETATM   14  C9  UNL     1      27.491  -1.524  52.769  1.00  0.00     0.046 A 
HETATM   15  C10 UNL     1      28.465  -0.678  53.229  1.00  0.00     0.138 A 
HETATM   16  F1  UNL     1      29.781  -0.915  53.056  1.00  0.00    -0.204 F 
HETATM   17  C11 UNL     1      28.088   0.449  53.889  1.00  0.00     0.074 A 
HETATM   18 CL1  UNL     1      29.287   1.591  54.513  1.00  0.00    -0.081 Cl
HETATM   19  C12 UNL     1      26.754   0.731  54.087  1.00  0.00     0.056 A 
ENDBRANCH  10  12
ENDBRANCH   6  10
BRANCH   8  20
HETATM   20  C15 UNL     1      23.967   2.694  51.610  1.00  0.00     0.043 C 
BRANCH  20  21
HETATM   21  C16 UNL     1      24.305   2.678  50.147  1.00  0.00     0.021 C 
BRANCH  21  22
HETATM   22  C17 UNL     1      23.369   3.451  49.263  1.00  0.00     0.121 C 
BRANCH  22  23
HETATM   23  N3  UNL     1      22.860   2.629  48.172  1.00  0.00    -0.195 NA
HETATM   24  C18 UNL     1      21.629   3.180  47.654  1.00  0.00     0.148 C 
HETATM   25  C19 UNL     1      20.895   2.050  48.323  1.00  0.00     0.210 C 
HETATM   26  O2  UNL     1      22.169   1.535  48.559  1.00  0.00    -0.302 OA
ENDBRANCH  22  23
ENDBRANCH  21  22
ENDBRANCH  20  21
ENDBRANCH   8  20
BRANCH   1  27
HETATM   27  O1  UNL     1      21.170   4.144  52.131  1.00  0.00    -0.355 OA
HETATM   28  C1  UNL     1      20.343   4.548  51.031  1.00  0.00     0.210 C 
ENDBRANCH   1  27
TORSDOF 7
ENDMDL
MODEL 6
REMARK VINA RESULT:      -7.7      3.958      6.063
REMARK  7 active torsions:
REMARK  status: ('A' for Active; 'I' for Inactive)
REMARK    1  A    between atoms: O1_2  and  C2_3 
REMARK    2  A    between atoms: C6_8  and  N2_9 
REMARK    3  A    between atoms: N2_9  and  C7_10 
REMARK    4  A    between atoms: C14_19  and  C15_20 
REMARK    5  A    between atoms: C15_20  and  C16_21 
REMARK    6  A    between atoms: C16_21  and  C17_22 
REMARK    7  A    between atoms: C17_22  and  N3_23 
ROOT
HETATM    1  C2  UNL     1      23.318  -0.699  54.262  1.00  0.00     0.076 C 
HETATM    2  C3  UNL     1      22.252  -1.391  54.740  1.00  0.00     0.064 C 
HETATM    3  C4  UNL     1      21.028  -0.818  54.190  1.00  0.00     0.035 C 
HETATM    4  N1  UNL     1      19.927  -0.950  53.533  1.00  0.00    -0.291 NA
HETATM    5  C5  UNL     1      19.726  -0.082  52.321  1.00  0.00     0.178 C 
HETATM    6  C6  UNL     1      20.989   0.748  51.954  1.00  0.00     0.132 C 
HETATM    7  C13 UNL     1      21.955   0.656  53.032  1.00  0.00    -0.041 C 
HETATM    8  C14 UNL     1      23.211   0.425  53.324  1.00  0.00    -0.020 C 
HETATM    9  C20 UNL     1      21.031   0.734  54.291  1.00  0.00     0.096 C 
ENDROOT
BRANCH   6  10
HETATM   10  N2  UNL     1      21.422   0.461  50.634  1.00  0.00    -0.380 N 
HETATM   11  H8  UNL     1      21.559  -0.521  50.301  1.00  0.00     0.160 HD
BRANCH  10  12
HETATM   12  C7  UNL     1      21.691   1.476  49.672  1.00  0.00     0.030 A 
HETATM   13  C8  UNL     1      20.916   1.732  48.559  1.00  0.00     0.032 A 
HETATM   14  C9  UNL     1      21.159   2.696  47.628  1.00  0.00     0.046 A 
HETATM   15  C10 UNL     1      22.259   3.499  47.777  1.00  0.00     0.138 A 
HETATM   16  F1  UNL     1      22.573   4.477  46.902  1.00  0.00    -0.204 F 
HETATM   17  C11 UNL     1      23.067   3.302  48.850  1.00  0.00     0.074 A 
HETATM   18 CL1  UNL     1      24.505   4.299  49.111  1.00  0.00    -0.081 Cl
HETATM   19  C12 UNL     1      22.784   2.315  49.769  1.00  0.00     0.056 A 
ENDBRANCH  10  12
ENDBRANCH   6  10
BRANCH   8  20
HETATM   20  C15 UNL     1      24.061   1.284  52.550  1.00  0.00     0.043 C 
BRANCH  20  21
HETATM   21  C16 UNL     1      25.042   2.145  53.294  1.00  0.00     0.021 C 
BRANCH  21  22
HETATM   22  C17 UNL     1      26.487   1.901  52.968  1.00  0.00     0.121 C 
BRANCH  22  23
HETATM   23  N3  UNL     1      27.341   2.101  54.133  1.00  0.00    -0.195 NA
HETATM   24  C18 UNL     1      28.723   1.850  53.797  1.00  0.00     0.148 C 
HETATM   25  C19 UNL     1      28.633   0.567  54.576  1.00  0.00     0.210 C 
HETATM   26  O2  UNL     1      27.393   1.055  54.985  1.00  0.00    -0.302 OA
ENDBRANCH  22  23
ENDBRANCH  21  22
ENDBRANCH  20  21
ENDBRANCH   8  20
BRANCH   1  27
HETATM   27  O1  UNL     1      24.582  -1.055  54.661  1.00  0.00    -0.355 OA
HETATM   28  C1  UNL     1      24.819  -1.124  56.074  1.00  0.00     0.210 C 
ENDBRANCH   1  27
TORSDOF 7
ENDMDL
MODEL 7
REMARK VINA RESULT:      -7.6      3.961      6.447
REMARK  7 active torsions:
REMARK  status: ('A' for Active; 'I' for Inactive)
REMARK    1  A    between atoms: O1_2  and  C2_3 
REMARK    2  A    between atoms: C6_8  and  N2_9 
REMARK    3  A    between atoms: N2_9  and  C7_10 
REMARK    4  A    between atoms: C14_19  and  C15_20 
REMARK    5  A    between atoms: C15_20  and  C16_21 
REMARK    6  A    between atoms: C16_21  and  C17_22 
REMARK    7  A    between atoms: C17_22  and  N3_23 
ROOT
HETATM    1  C2  UNL     1      22.422   2.305  51.996  1.00  0.00     0.076 C 
HETATM    2  C3  UNL     1      21.431   3.214  52.191  1.00  0.00     0.064 C 
HETATM    3  C4  UNL     1      21.992   4.557  52.094  1.00  0.00     0.035 C 
HETATM    4  N1  UNL     1      22.002   5.730  51.560  1.00  0.00    -0.291 NA
HETATM    5  C5  UNL     1      23.282   6.199  50.923  1.00  0.00     0.178 C 
HETATM    6  C6  UNL     1      24.374   5.093  50.872  1.00  0.00     0.132 C 
HETATM    7  C13 UNL     1      23.956   3.966  51.682  1.00  0.00    -0.041 C 
HETATM    8  C14 UNL     1      23.817   2.663  51.711  1.00  0.00    -0.020 C 
HETATM    9  C20 UNL     1      23.310   4.684  52.911  1.00  0.00     0.096 C 
ENDROOT
BRANCH   6  10
HETATM   10  N2  UNL     1      24.787   4.847  49.537  1.00  0.00    -0.380 N 
HETATM   11  H8  UNL     1      24.203   4.289  48.874  1.00  0.00     0.160 HD
BRANCH  10  12
HETATM   12  C7  UNL     1      26.011   5.345  49.004  1.00  0.00     0.030 A 
HETATM   13  C8  UNL     1      27.186   4.625  48.925  1.00  0.00     0.032 A 
HETATM   14  C9  UNL     1      28.365   5.085  48.421  1.00  0.00     0.046 A 
HETATM   15  C10 UNL     1      28.427   6.367  47.942  1.00  0.00     0.138 A 
HETATM   16  F1  UNL     1      29.553   6.900  47.426  1.00  0.00    -0.204 F 
HETATM   17  C11 UNL     1      27.306   7.132  47.989  1.00  0.00     0.074 A 
HETATM   18 CL1  UNL     1      27.306   8.797  47.389  1.00  0.00    -0.081 Cl
HETATM   19  C12 UNL     1      26.133   6.628  48.508  1.00  0.00     0.056 A 
ENDBRANCH  10  12
ENDBRANCH   6  10
BRANCH   8  20
HETATM   20  C15 UNL     1      25.055   2.029  51.354  1.00  0.00     0.043 C 
BRANCH  20  21
HETATM   21  C16 UNL     1      26.253   2.314  52.213  1.00  0.00     0.021 C 
BRANCH  21  22
HETATM   22  C17 UNL     1      26.347   1.506  53.475  1.00  0.00     0.121 C 
BRANCH  22  23
HETATM   23  N3  UNL     1      27.441   1.962  54.324  1.00  0.00    -0.195 NA
HETATM   24  C18 UNL     1      28.592   2.312  53.524  1.00  0.00     0.148 C 
HETATM   25  C19 UNL     1      29.258   1.056  54.014  1.00  0.00     0.210 C 
HETATM   26  O2  UNL     1      28.172   0.976  54.885  1.00  0.00    -0.302 OA
ENDBRANCH  22  23
ENDBRANCH  21  22
ENDBRANCH  20  21
ENDBRANCH   8  20
BRANCH   1  27
HETATM   27  O1  UNL     1      22.126   0.967  52.059  1.00  0.00    -0.355 OA
HETATM   28  C1  UNL     1      21.413   0.409  50.947  1.00  0.00     0.210 C 
ENDBRANCH   1  27
TORSDOF 7
ENDMDL
MODEL 8
REMARK VINA RESULT:      -7.4      1.791      5.192
REMARK  7 active torsions:
REMARK  status: ('A' for Active; 'I' for Inactive)
REMARK    1  A    between atoms: O1_2  and  C2_3 
REMARK    2  A    between atoms: C6_8  and  N2_9 
REMARK    3  A    between atoms: N2_9  and  C7_10 
REMARK    4  A    between atoms: C14_19  and  C15_20 
REMARK    5  A    between atoms: C15_20  and  C16_21 
REMARK    6  A    between atoms: C16_21  and  C17_22 
REMARK    7  A    between atoms: C17_22  and  N3_23 
ROOT
HETATM    1  C2  UNL     1      22.130   3.777  50.384  1.00  0.00     0.076 C 
HETATM    2  C3  UNL     1      22.358   4.650  49.369  1.00  0.00     0.064 C 
HETATM    3  C4  UNL     1      23.744   5.102  49.433  1.00  0.00     0.035 C 
HETATM    4  N1  UNL     1      24.900   5.249  48.882  1.00  0.00    -0.291 NA
HETATM    5  C5  UNL     1      26.087   4.631  49.569  1.00  0.00     0.178 C 
HETATM    6  C6  UNL     1      25.691   3.751  50.789  1.00  0.00     0.132 C 
HETATM    7  C13 UNL     1      24.290   3.960  51.098  1.00  0.00    -0.041 C 
HETATM    8  C14 UNL     1      23.152   3.364  51.354  1.00  0.00    -0.020 C 
HETATM    9  C20 UNL     1      24.146   5.501  50.882  1.00  0.00     0.096 C 
ENDROOT
BRANCH   6  10
HETATM   10  N2  UNL     1      26.155   2.420  50.628  1.00  0.00    -0.380 N 
HETATM   11  H8  UNL     1      26.057   1.908  49.722  1.00  0.00     0.160 HD
BRANCH  10  12
HETATM   12  C7  UNL     1      26.790   1.692  51.676  1.00  0.00     0.030 A 
HETATM   13  C8  UNL     1      27.516   2.261  52.702  1.00  0.00     0.032 A 
HETATM   14  C9  UNL     1      28.131   1.580  53.710  1.00  0.00     0.046 A 
HETATM   15  C10 UNL     1      28.041   0.213  53.739  1.00  0.00     0.138 A 
HETATM   16  F1  UNL     1      28.619  -0.536  54.699  1.00  0.00    -0.204 F 
HETATM   17  C11 UNL     1      27.341  -0.413  52.757  1.00  0.00     0.074 A 
HETATM   18 CL1  UNL     1      27.181  -2.174  52.726  1.00  0.00    -0.081 Cl
HETATM   19  C12 UNL     1      26.735   0.314  51.756  1.00  0.00     0.056 A 
ENDBRANCH  10  12
ENDBRANCH   6  10
BRANCH   8  20
HETATM   20  C15 UNL     1      23.317   2.432  52.433  1.00  0.00     0.043 C 
BRANCH  20  21
HETATM   21  C16 UNL     1      23.157   0.972  52.121  1.00  0.00     0.021 C 
BRANCH  21  22
HETATM   22  C17 UNL     1      23.148   0.058  53.312  1.00  0.00     0.121 C 
BRANCH  22  23
HETATM   23  N3  UNL     1      21.945   0.238  54.117  1.00  0.00    -0.195 NA
HETATM   24  C18 UNL     1      21.641  -0.969  54.851  1.00  0.00     0.148 C 
HETATM   25  C19 UNL     1      20.496  -1.203  53.905  1.00  0.00     0.210 C 
HETATM   26  O2  UNL     1      20.784   0.082  53.446  1.00  0.00    -0.302 OA
ENDBRANCH  22  23
ENDBRANCH  21  22
ENDBRANCH  20  21
ENDBRANCH   8  20
BRANCH   1  27
HETATM   27  O1  UNL     1      20.880   3.231  50.530  1.00  0.00    -0.355 OA
HETATM   28  C1  UNL     1      20.014   3.846  51.494  1.00  0.00     0.210 C 
ENDBRANCH   1  27
TORSDOF 7
ENDMDL
MODEL 9
REMARK VINA RESULT:      -7.4      2.083      4.985
REMARK  7 active torsions:
REMARK  status: ('A' for Active; 'I' for Inactive)
REMARK    1  A    between atoms: O1_2  and  C2_3 
REMARK    2  A    between atoms: C6_8  and  N2_9 
REMARK    3  A    between atoms: N2_9  and  C7_10 
REMARK    4  A    between atoms: C14_19  and  C15_20 
REMARK    5  A    between atoms: C15_20  and  C16_21 
REMARK    6  A    between atoms: C16_21  and  C17_22 
REMARK    7  A    between atoms: C17_22  and  N3_23 
ROOT
HETATM    1  C2  UNL     1      22.311   3.436  49.657  1.00  0.00     0.076 C 
HETATM    2  C3  UNL     1      23.139   3.984  48.730  1.00  0.00     0.064 C 
HETATM    3  C4  UNL     1      24.464   4.153  49.318  1.00  0.00     0.035 C 
HETATM    4  N1  UNL     1      25.734   3.933  49.297  1.00  0.00    -0.291 NA
HETATM    5  C5  UNL     1      26.350   3.269  50.498  1.00  0.00     0.178 C 
HETATM    6  C6  UNL     1      25.294   2.796  51.538  1.00  0.00     0.132 C 
HETATM    7  C13 UNL     1      23.998   3.347  51.191  1.00  0.00    -0.041 C 
HETATM    8  C14 UNL     1      22.731   3.067  51.014  1.00  0.00    -0.020 C 
HETATM    9  C20 UNL     1      24.382   4.792  50.734  1.00  0.00     0.096 C 
ENDROOT
BRANCH   6  10
HETATM   10  N2  UNL     1      25.394   1.400  51.766  1.00  0.00    -0.380 N 
HETATM   11  H8  UNL     1      24.639   0.739  51.473  1.00  0.00     0.160 HD
BRANCH  10  12
HETATM   12  C7  UNL     1      26.522   0.800  52.396  1.00  0.00     0.030 A 
HETATM   13  C8  UNL     1      26.837  -0.542  52.334  1.00  0.00     0.032 A 
HETATM   14  C9  UNL     1      27.909  -1.133  52.933  1.00  0.00     0.046 A 
HETATM   15  C10 UNL     1      28.769  -0.360  53.666  1.00  0.00     0.138 A 
HETATM   16  F1  UNL     1      29.854  -0.864  54.290  1.00  0.00    -0.204 F 
HETATM   17  C11 UNL     1      28.519   0.971  53.769  1.00  0.00     0.074 A 
HETATM   18 CL1  UNL     1      29.584   2.036  54.699  1.00  0.00    -0.081 Cl
HETATM   19  C12 UNL     1      27.422   1.529  53.148  1.00  0.00     0.056 A 
ENDBRANCH  10  12
ENDBRANCH   6  10
BRANCH   8  20
HETATM   20  C15 UNL     1      22.209   2.400  52.174  1.00  0.00     0.043 C 
BRANCH  20  21
HETATM   21  C16 UNL     1      21.718   0.991  52.002  1.00  0.00     0.021 C 
BRANCH  21  22
HETATM   22  C17 UNL     1      21.380   0.270  53.275  1.00  0.00     0.121 C 
BRANCH  22  23
HETATM   23  N3  UNL     1      22.160  -0.954  53.421  1.00  0.00    -0.195 NA
HETATM   24  C18 UNL     1      22.434  -1.216  54.815  1.00  0.00     0.148 C 
HETATM   25  C19 UNL     1      23.859  -0.806  54.565  1.00  0.00     0.210 C 
HETATM   26  O2  UNL     1      23.487  -0.808  53.221  1.00  0.00    -0.302 OA
ENDBRANCH  22  23
ENDBRANCH  21  22
ENDBRANCH  20  21
ENDBRANCH   8  20
BRANCH   1  27
HETATM   27  O1  UNL     1      21.000   3.201  49.328  1.00  0.00    -0.355 OA
HETATM   28  C1  UNL     1      20.738   2.079  48.475  1.00  0.00     0.210 C 
ENDBRANCH   1  27
TORSDOF 7
ENDMDL
