MODEL 1
REMARK VINA RESULT:      -7.0      0.000      0.000
REMARK  6 active torsions:
REMARK  status: ('A' for Active; 'I' for Inactive)
REMARK    1  A    between atoms: C2_2  and  N1_3 
REMARK    2  A    between atoms: C3_5  and  C4_6 
REMARK    3  A    between atoms: C7_9  and  O1_10 
REMARK    4  A    between atoms: C12_15  and  C13_16 
REMARK    5  A    between atoms: C14_17  and  C15_18 
REMARK    6  A    between atoms: C16_19  and  C17_20 
ROOT
HETATM    1  N1  UNL     1      24.600   2.786  50.872  1.00  0.00    -0.273 N 
HETATM    2  N2  UNL     1      23.439   1.977  50.920  1.00  0.00    -0.176 NA
HETATM    3  C3  UNL     1      23.105   1.696  52.127  1.00  0.00     0.067 C 
HETATM    4  C11 UNL     1      24.098   2.350  53.037  1.00  0.00     0.093 C 
HETATM    5  C12 UNL     1      25.292   2.336  52.072  1.00  0.00     0.138 C 
ENDROOT
BRANCH   3   6
HETATM    6  C4  UNL     1      21.961   0.884  52.552  1.00  0.00    -0.010 A 
HETATM    7  C5  UNL     1      22.086   0.117  53.691  1.00  0.00     0.016 A 
HETATM    8  C6  UNL     1      21.009  -0.653  54.098  1.00  0.00     0.037 A 
HETATM    9  C7  UNL     1      19.831  -0.644  53.368  1.00  0.00     0.068 A 
HETATM   10  C9  UNL     1      19.732   0.139  52.224  1.00  0.00     0.037 A 
HETATM   11  C10 UNL     1      20.797   0.905  51.813  1.00  0.00     0.016 A 
BRANCH   9  12
HETATM   12  O1  UNL     1      18.673  -1.354  53.643  1.00  0.00    -0.356 OA
HETATM   13  C8  UNL     1      17.511  -1.083  52.893  1.00  0.00     0.210 C 
ENDBRANCH   9  12
ENDBRANCH   3   6
BRANCH   1  14
HETATM   14  C2  UNL     1      24.727   3.708  49.769  1.00  0.00     0.103 C 
HETATM   15  C1  UNL     1      25.863   4.232  49.389  1.00  0.00     0.031 C 
ENDBRANCH   1  14
BRANCH   5  16
HETATM   16  C13 UNL     1      25.684   0.896  51.958  1.00  0.00     0.001 C 
HETATM   17  C14 UNL     1      26.887   0.555  52.385  1.00  0.00    -0.002 C 
BRANCH  17  18
HETATM   18  C15 UNL     1      27.777   1.540  52.936  1.00  0.00    -0.003 C 
HETATM   19  C16 UNL     1      28.626   1.298  53.894  1.00  0.00    -0.012 C 
BRANCH  19  20
HETATM   20  C17 UNL     1      28.905   0.049  54.638  1.00  0.00     0.141 C 
HETATM   21 CL1  UNL     1      29.898  -1.022  53.594  1.00  0.00    -0.126 Cl
ENDBRANCH  19  20
ENDBRANCH  17  18
ENDBRANCH   5  16
TORSDOF 6
ENDMDL
MODEL 2
REMARK VINA RESULT:      -6.8      3.739      7.051
REMARK  6 active torsions:
REMARK  status: ('A' for Active; 'I' for Inactive)
REMARK    1  A    between atoms: C2_2  and  N1_3 
REMARK    2  A    between atoms: C3_5  and  C4_6 
REMARK    3  A    between atoms: C7_9  and  O1_10 
REMARK    4  A    between atoms: C12_15  and  C13_16 
REMARK    5  A    between atoms: C14_17  and  C15_18 
REMARK    6  A    between atoms: C16_19  and  C17_20 
ROOT
HETATM    1  N1  UNL     1      21.790   2.995  52.050  1.00  0.00    -0.273 N 
HETATM    2  N2  UNL     1      23.027   2.618  52.628  1.00  0.00    -0.176 NA
HETATM    3  C3  UNL     1      23.441   1.494  52.170  1.00  0.00     0.067 C 
HETATM    4  C11 UNL     1      22.432   1.007  51.178  1.00  0.00     0.093 C 
HETATM    5  C12 UNL     1      21.202   1.688  51.793  1.00  0.00     0.138 C 
ENDROOT
BRANCH   3   6
HETATM    6  C4  UNL     1      24.678   0.801  52.542  1.00  0.00    -0.010 A 
HETATM    7  C5  UNL     1      25.842   1.128  51.878  1.00  0.00     0.016 A 
HETATM    8  C6  UNL     1      27.014   0.476  52.225  1.00  0.00     0.037 A 
HETATM    9  C7  UNL     1      27.007  -0.486  53.222  1.00  0.00     0.068 A 
HETATM   10  C9  UNL     1      25.820  -0.797  53.875  1.00  0.00     0.037 A 
HETATM   11  C10 UNL     1      24.652  -0.155  53.537  1.00  0.00     0.016 A 
BRANCH   9  12
HETATM   12  O1  UNL     1      28.088  -1.221  53.680  1.00  0.00    -0.356 OA
HETATM   13  C8  UNL     1      29.294  -0.553  53.974  1.00  0.00     0.210 C 
ENDBRANCH   9  12
ENDBRANCH   3   6
BRANCH   1  14
HETATM   14  C2  UNL     1      21.522   4.407  51.907  1.00  0.00     0.103 C 
HETATM   15  C1  UNL     1      22.428   5.286  51.565  1.00  0.00     0.031 C 
ENDBRANCH   1  14
BRANCH   5  16
HETATM   16  C13 UNL     1      20.949   0.953  53.073  1.00  0.00     0.001 C 
HETATM   17  C14 UNL     1      19.916   0.129  53.110  1.00  0.00    -0.002 C 
BRANCH  17  18
HETATM   18  C15 UNL     1      19.074  -0.044  51.958  1.00  0.00    -0.003 C 
HETATM   19  C16 UNL     1      17.895  -0.597  51.996  1.00  0.00    -0.012 C 
BRANCH  19  20
HETATM   20  C17 UNL     1      17.135  -1.163  53.134  1.00  0.00     0.141 C 
HETATM   21 CL1  UNL     1      17.807  -2.783  53.514  1.00  0.00    -0.126 Cl
ENDBRANCH  19  20
ENDBRANCH  17  18
ENDBRANCH   5  16
TORSDOF 6
ENDMDL
MODEL 3
REMARK VINA RESULT:      -6.7      3.542      6.063
REMARK  6 active torsions:
REMARK  status: ('A' for Active; 'I' for Inactive)
REMARK    1  A    between atoms: C2_2  and  N1_3 
REMARK    2  A    between atoms: C3_5  and  C4_6 
REMARK    3  A    between atoms: C7_9  and  O1_10 
REMARK    4  A    between atoms: C12_15  and  C13_16 
REMARK    5  A    between atoms: C14_17  and  C15_18 
REMARK    6  A    between atoms: C16_19  and  C17_20 
ROOT
HETATM    1  N1  UNL     1      21.506   2.683  51.903  1.00  0.00    -0.273 N 
HETATM    2  N2  UNL     1      22.344   1.707  52.495  1.00  0.00    -0.176 NA
HETATM    3  C3  UNL     1      23.540   2.142  52.654  1.00  0.00     0.067 C 
HETATM    4  C11 UNL     1      23.586   3.547  52.139  1.00  0.00     0.093 C 
HETATM    5  C12 UNL     1      22.471   3.412  51.092  1.00  0.00     0.138 C 
ENDROOT
BRANCH   3   6
HETATM    6  C4  UNL     1      24.669   1.407  53.233  1.00  0.00    -0.010 A 
HETATM    7  C5  UNL     1      24.518   0.060  53.485  1.00  0.00     0.016 A 
HETATM    8  C6  UNL     1      25.581  -0.640  54.032  1.00  0.00     0.037 A 
HETATM    9  C7  UNL     1      26.770   0.012  54.318  1.00  0.00     0.068 A 
HETATM   10  C9  UNL     1      26.895   1.371  54.055  1.00  0.00     0.037 A 
HETATM   11  C10 UNL     1      25.845   2.072  53.511  1.00  0.00     0.016 A 
BRANCH   9  12
HETATM   12  O1  UNL     1      27.917  -0.544  54.864  1.00  0.00    -0.356 OA
HETATM   13  C8  UNL     1      29.161  -0.270  54.262  1.00  0.00     0.210 C 
ENDBRANCH   9  12
ENDBRANCH   3   6
BRANCH   1  14
HETATM   14  C2  UNL     1      20.105   2.659  52.249  1.00  0.00     0.103 C 
HETATM   15  C1  UNL     1      19.212   3.450  51.713  1.00  0.00     0.031 C 
ENDBRANCH   1  14
BRANCH   5  16
HETATM   16  C13 UNL     1      23.045   2.535  50.023  1.00  0.00     0.001 C 
HETATM   17  C14 UNL     1      23.681   3.123  49.026  1.00  0.00    -0.002 C 
BRANCH  17  18
HETATM   18  C15 UNL     1      23.809   4.554  48.980  1.00  0.00    -0.003 C 
HETATM   19  C16 UNL     1      24.944   5.187  49.091  1.00  0.00    -0.012 C 
BRANCH  19  20
HETATM   20  C17 UNL     1      26.317   4.669  49.279  1.00  0.00     0.141 C 
HETATM   21 CL1  UNL     1      27.454   5.748  48.403  1.00  0.00    -0.126 Cl
ENDBRANCH  19  20
ENDBRANCH  17  18
ENDBRANCH   5  16
TORSDOF 6
ENDMDL
MODEL 4
REMARK VINA RESULT:      -6.5      4.322      7.552
REMARK  6 active torsions:
REMARK  status: ('A' for Active; 'I' for Inactive)
REMARK    1  A    between atoms: C2_2  and  N1_3 
REMARK    2  A    between atoms: C3_5  and  C4_6 
REMARK    3  A    between atoms: C7_9  and  O1_10 
REMARK    4  A    between atoms: C12_15  and  C13_16 
REMARK    5  A    between atoms: C14_17  and  C15_18 
REMARK    6  A    between atoms: C16_19  and  C17_20 
ROOT
HETATM    1  N1  UNL     1      22.570   4.152  50.599  1.00  0.00    -0.273 N 
HETATM    2  N2  UNL     1      23.560   5.075  50.180  1.00  0.00    -0.176 NA
HETATM    3  C3  UNL     1      24.585   4.480  49.688  1.00  0.00     0.067 C 
HETATM    4  C11 UNL     1      24.329   3.007  49.750  1.00  0.00     0.093 C 
HETATM    5  C12 UNL     1      23.401   3.016  50.973  1.00  0.00     0.138 C 
ENDROOT
BRANCH   3   6
HETATM    6  C4  UNL     1      25.794   5.116  49.158  1.00  0.00    -0.010 A 
HETATM    7  C5  UNL     1      25.731   6.440  48.781  1.00  0.00     0.016 A 
HETATM    8  C6  UNL     1      26.871   7.047  48.279  1.00  0.00     0.037 A 
HETATM    9  C7  UNL     1      28.048   6.326  48.161  1.00  0.00     0.068 A 
HETATM   10  C9  UNL     1      28.085   4.992  48.549  1.00  0.00     0.037 A 
HETATM   11  C10 UNL     1      26.958   4.383  49.048  1.00  0.00     0.016 A 
BRANCH   9  12
HETATM   12  O1  UNL     1      29.264   6.787  47.681  1.00  0.00    -0.356 OA
HETATM   13  C8  UNL     1      29.977   7.744  48.431  1.00  0.00     0.210 C 
ENDBRANCH   9  12
ENDBRANCH   3   6
BRANCH   1  14
HETATM   14  C2  UNL     1      21.192   4.576  50.534  1.00  0.00     0.103 C 
HETATM   15  C1  UNL     1      20.821   5.828  50.465  1.00  0.00     0.031 C 
ENDBRANCH   1  14
BRANCH   5  16
HETATM   16  C13 UNL     1      24.286   3.356  52.131  1.00  0.00     0.001 C 
HETATM   17  C14 UNL     1      24.407   2.457  53.092  1.00  0.00    -0.002 C 
BRANCH  17  18
HETATM   18  C15 UNL     1      23.707   1.203  53.016  1.00  0.00    -0.003 C 
HETATM   19  C16 UNL     1      24.278   0.042  53.171  1.00  0.00    -0.012 C 
BRANCH  19  20
HETATM   20  C17 UNL     1      25.690  -0.306  53.447  1.00  0.00     0.141 C 
HETATM   21 CL1  UNL     1      26.623  -0.142  51.923  1.00  0.00    -0.126 Cl
ENDBRANCH  19  20
ENDBRANCH  17  18
ENDBRANCH   5  16
TORSDOF 6
ENDMDL
MODEL 5
REMARK VINA RESULT:      -6.4      3.659      6.835
REMARK  6 active torsions:
REMARK  status: ('A' for Active; 'I' for Inactive)
REMARK    1  A    between atoms: C2_2  and  N1_3 
REMARK    2  A    between atoms: C3_5  and  C4_6 
REMARK    3  A    between atoms: C7_9  and  O1_10 
REMARK    4  A    between atoms: C12_15  and  C13_16 
REMARK    5  A    between atoms: C14_17  and  C15_18 
REMARK    6  A    between atoms: C16_19  and  C17_20 
ROOT
HETATM    1  N1  UNL     1      22.851   3.019  52.058  1.00  0.00    -0.273 N 
HETATM    2  N2  UNL     1      23.561   4.084  51.452  1.00  0.00    -0.176 NA
HETATM    3  C3  UNL     1      24.545   3.658  50.748  1.00  0.00     0.067 C 
HETATM    4  C11 UNL     1      24.559   2.164  50.843  1.00  0.00     0.093 C 
HETATM    5  C12 UNL     1      23.921   2.047  52.234  1.00  0.00     0.138 C 
ENDROOT
BRANCH   3   6
HETATM    6  C4  UNL     1      25.492   4.474  49.983  1.00  0.00    -0.010 A 
HETATM    7  C5  UNL     1      26.617   3.868  49.467  1.00  0.00     0.016 A 
HETATM    8  C6  UNL     1      27.516   4.634  48.742  1.00  0.00     0.037 A 
HETATM    9  C7  UNL     1      27.279   5.985  48.545  1.00  0.00     0.068 A 
HETATM   10  C9  UNL     1      26.136   6.571  49.076  1.00  0.00     0.037 A 
HETATM   11  C10 UNL     1      25.239   5.818  49.796  1.00  0.00     0.016 A 
BRANCH   9  12
HETATM   12  O1  UNL     1      28.076   6.879  47.849  1.00  0.00    -0.356 OA
HETATM   13  C8  UNL     1      29.453   6.609  47.718  1.00  0.00     0.210 C 
ENDBRANCH   9  12
ENDBRANCH   3   6
BRANCH   1  14
HETATM   14  C2  UNL     1      21.438   3.205  52.290  1.00  0.00     0.103 C 
HETATM   15  C1  UNL     1      20.650   2.270  52.754  1.00  0.00     0.031 C 
ENDBRANCH   1  14
BRANCH   5  16
HETATM   16  C13 UNL     1      24.959   2.557  53.184  1.00  0.00     0.001 C 
HETATM   17  C14 UNL     1      25.691   1.663  53.826  1.00  0.00    -0.002 C 
BRANCH  17  18
HETATM   18  C15 UNL     1      25.487   0.257  53.611  1.00  0.00    -0.003 C 
HETATM   19  C16 UNL     1      26.442  -0.581  53.319  1.00  0.00    -0.012 C 
BRANCH  19  20
HETATM   20  C17 UNL     1      27.894  -0.356  53.138  1.00  0.00     0.141 C 
HETATM   21 CL1  UNL     1      28.637  -0.116  54.754  1.00  0.00    -0.126 Cl
ENDBRANCH  19  20
ENDBRANCH  17  18
ENDBRANCH   5  16
TORSDOF 6
ENDMDL
MODEL 6
REMARK VINA RESULT:      -6.4      3.660      6.983
REMARK  6 active torsions:
REMARK  status: ('A' for Active; 'I' for Inactive)
REMARK    1  A    between atoms: C2_2  and  N1_3 
REMARK    2  A    between atoms: C3_5  and  C4_6 
REMARK    3  A    between atoms: C7_9  and  O1_10 
REMARK    4  A    between atoms: C12_15  and  C13_16 
REMARK    5  A    between atoms: C14_17  and  C15_18 
REMARK    6  A    between atoms: C16_19  and  C17_20 
ROOT
HETATM    1  N1  UNL     1      20.553   0.383  52.164  1.00  0.00    -0.273 N 
HETATM    2  N2  UNL     1      21.805  -0.170  52.530  1.00  0.00    -0.176 NA
HETATM    3  C3  UNL     1      22.754   0.685  52.414  1.00  0.00     0.067 C 
HETATM    4  C11 UNL     1      22.154   1.967  51.926  1.00  0.00     0.093 C 
HETATM    5  C12 UNL     1      20.970   1.355  51.163  1.00  0.00     0.138 C 
ENDROOT
BRANCH   3   6
HETATM    6  C4  UNL     1      24.173   0.461  52.703  1.00  0.00    -0.010 A 
HETATM    7  C5  UNL     1      25.113   1.093  51.917  1.00  0.00     0.016 A 
HETATM    8  C6  UNL     1      26.456   0.887  52.186  1.00  0.00     0.037 A 
HETATM    9  C7  UNL     1      26.838   0.057  53.229  1.00  0.00     0.068 A 
HETATM   10  C9  UNL     1      25.870  -0.567  54.006  1.00  0.00     0.037 A 
HETATM   11  C10 UNL     1      24.535  -0.367  53.746  1.00  0.00     0.016 A 
BRANCH   9  12
HETATM   12  O1  UNL     1      28.132  -0.249  53.621  1.00  0.00    -0.356 OA
HETATM   13  C8  UNL     1      28.586   0.192  54.881  1.00  0.00     0.210 C 
ENDBRANCH   9  12
ENDBRANCH   3   6
BRANCH   1  14
HETATM   14  C2  UNL     1      19.377  -0.130  52.825  1.00  0.00     0.103 C 
HETATM   15  C1  UNL     1      18.272  -0.441  52.200  1.00  0.00     0.031 C 
ENDBRANCH   1  14
BRANCH   5  16
HETATM   16  C13 UNL     1      21.579   0.677  49.976  1.00  0.00     0.001 C 
HETATM   17  C14 UNL     1      21.316   1.180  48.783  1.00  0.00    -0.002 C 
BRANCH  17  18
HETATM   18  C15 UNL     1      20.473   2.335  48.644  1.00  0.00    -0.003 C 
HETATM   19  C16 UNL     1      20.853   3.450  48.085  1.00  0.00    -0.012 C 
BRANCH  19  20
HETATM   20  C17 UNL     1      22.150   3.827  47.480  1.00  0.00     0.141 C 
HETATM   21 CL1  UNL     1      23.329   4.114  48.802  1.00  0.00    -0.126 Cl
ENDBRANCH  19  20
ENDBRANCH  17  18
ENDBRANCH   5  16
TORSDOF 6
ENDMDL
MODEL 7
REMARK VINA RESULT:      -6.4      2.905      4.616
REMARK  6 active torsions:
REMARK  status: ('A' for Active; 'I' for Inactive)
REMARK    1  A    between atoms: C2_2  and  N1_3 
REMARK    2  A    between atoms: C3_5  and  C4_6 
REMARK    3  A    between atoms: C7_9  and  O1_10 
REMARK    4  A    between atoms: C12_15  and  C13_16 
REMARK    5  A    between atoms: C14_17  and  C15_18 
REMARK    6  A    between atoms: C16_19  and  C17_20 
ROOT
HETATM    1  N1  UNL     1      25.142   0.952  52.219  1.00  0.00    -0.273 N 
HETATM    2  N2  UNL     1      24.050   0.286  52.826  1.00  0.00    -0.176 NA
HETATM    3  C3  UNL     1      22.939   0.580  52.258  1.00  0.00     0.067 C 
HETATM    4  C11 UNL     1      23.235   1.537  51.146  1.00  0.00     0.093 C 
HETATM    5  C12 UNL     1      24.492   2.172  51.759  1.00  0.00     0.138 C 
ENDROOT
BRANCH   3   6
HETATM    6  C4  UNL     1      21.610   0.078  52.622  1.00  0.00    -0.010 A 
HETATM    7  C5  UNL     1      20.526   0.484  51.874  1.00  0.00     0.016 A 
HETATM    8  C6  UNL     1      19.268   0.012  52.211  1.00  0.00     0.037 A 
HETATM    9  C7  UNL     1      19.113  -0.852  53.284  1.00  0.00     0.068 A 
HETATM   10  C9  UNL     1      20.223  -1.245  54.021  1.00  0.00     0.037 A 
HETATM   11  C10 UNL     1      21.475  -0.782  53.692  1.00  0.00     0.016 A 
BRANCH   9  12
HETATM   12  O1  UNL     1      17.929  -1.407  53.744  1.00  0.00    -0.356 OA
HETATM   13  C8  UNL     1      17.686  -2.777  53.524  1.00  0.00     0.210 C 
ENDBRANCH   9  12
ENDBRANCH   3   6
BRANCH   1  14
HETATM   14  C2  UNL     1      26.425   0.290  52.239  1.00  0.00     0.103 C 
HETATM   15  C1  UNL     1      26.606  -0.924  52.690  1.00  0.00     0.031 C 
ENDBRANCH   1  14
BRANCH   5  16
HETATM   16  C13 UNL     1      23.995   2.983  52.915  1.00  0.00     0.001 C 
HETATM   17  C14 UNL     1      23.703   4.252  52.689  1.00  0.00    -0.002 C 
BRANCH  17  18
HETATM   18  C15 UNL     1      23.864   4.820  51.379  1.00  0.00    -0.003 C 
HETATM   19  C16 UNL     1      22.892   5.356  50.695  1.00  0.00    -0.012 C 
BRANCH  19  20
HETATM   20  C17 UNL     1      21.461   5.526  51.030  1.00  0.00     0.141 C 
HETATM   21 CL1  UNL     1      20.600   4.004  50.626  1.00  0.00    -0.126 Cl
ENDBRANCH  19  20
ENDBRANCH  17  18
ENDBRANCH   5  16
TORSDOF 6
ENDMDL
MODEL 8
REMARK VINA RESULT:      -6.3      4.097      6.724
REMARK  6 active torsions:
REMARK  status: ('A' for Active; 'I' for Inactive)
REMARK    1  A    between atoms: C2_2  and  N1_3 
REMARK    2  A    between atoms: C3_5  and  C4_6 
REMARK    3  A    between atoms: C7_9  and  O1_10 
REMARK    4  A    between atoms: C12_15  and  C13_16 
REMARK    5  A    between atoms: C14_17  and  C15_18 
REMARK    6  A    between atoms: C16_19  and  C17_20 
ROOT
HETATM    1  N1  UNL     1      22.858   2.495  50.250  1.00  0.00    -0.273 N 
HETATM    2  N2  UNL     1      24.140   2.069  50.675  1.00  0.00    -0.176 NA
HETATM    3  C3  UNL     1      24.091   1.477  51.812  1.00  0.00     0.067 C 
HETATM    4  C11 UNL     1      22.662   1.466  52.258  1.00  0.00     0.093 C 
HETATM    5  C12 UNL     1      22.217   2.745  51.534  1.00  0.00     0.138 C 
ENDROOT
BRANCH   3   6
HETATM    6  C4  UNL     1      25.221   0.909  52.553  1.00  0.00    -0.010 A 
HETATM    7  C5  UNL     1      24.961   0.176  53.691  1.00  0.00     0.016 A 
HETATM    8  C6  UNL     1      26.024  -0.364  54.395  1.00  0.00     0.037 A 
HETATM    9  C7  UNL     1      27.323  -0.164  53.956  1.00  0.00     0.068 A 
HETATM   10  C9  UNL     1      27.558   0.579  52.805  1.00  0.00     0.037 A 
HETATM   11  C10 UNL     1      26.508   1.118  52.101  1.00  0.00     0.016 A 
BRANCH   9  12
HETATM   12  O1  UNL     1      28.486  -0.635  54.546  1.00  0.00    -0.356 OA
HETATM   13  C8  UNL     1      29.634  -0.813  53.747  1.00  0.00     0.210 C 
ENDBRANCH   9  12
ENDBRANCH   3   6
BRANCH   1  14
HETATM   14  C2  UNL     1      22.607   2.543  48.829  1.00  0.00     0.103 C 
HETATM   15  C1  UNL     1      21.927   1.634  48.181  1.00  0.00     0.031 C 
ENDBRANCH   1  14
BRANCH   5  16
HETATM   16  C13 UNL     1      22.895   3.862  52.264  1.00  0.00     0.001 C 
HETATM   17  C14 UNL     1      22.414   5.082  52.097  1.00  0.00    -0.002 C 
BRANCH  17  18
HETATM   18  C15 UNL     1      21.283   5.313  51.241  1.00  0.00    -0.003 C 
HETATM   19  C16 UNL     1      21.353   5.927  50.094  1.00  0.00    -0.012 C 
BRANCH  19  20
HETATM   20  C17 UNL     1      22.512   6.519  49.390  1.00  0.00     0.141 C 
HETATM   21 CL1  UNL     1      22.893   8.098  50.152  1.00  0.00    -0.126 Cl
ENDBRANCH  19  20
ENDBRANCH  17  18
ENDBRANCH   5  16
TORSDOF 6
ENDMDL
MODEL 9
REMARK VINA RESULT:      -6.2      3.116      6.264
REMARK  6 active torsions:
REMARK  status: ('A' for Active; 'I' for Inactive)
REMARK    1  A    between atoms: C2_2  and  N1_3 
REMARK    2  A    between atoms: C3_5  and  C4_6 
REMARK    3  A    between atoms: C7_9  and  O1_10 
REMARK    4  A    between atoms: C12_15  and  C13_16 
REMARK    5  A    between atoms: C14_17  and  C15_18 
REMARK    6  A    between atoms: C16_19  and  C17_20 
ROOT
HETATM    1  N1  UNL     1      22.862   3.758  50.457  1.00  0.00    -0.273 N 
HETATM    2  N2  UNL     1      24.025   3.367  51.165  1.00  0.00    -0.176 NA
HETATM    3  C3  UNL     1      24.061   2.099  51.354  1.00  0.00     0.067 C 
HETATM    4  C11 UNL     1      22.831   1.511  50.737  1.00  0.00     0.093 C 
HETATM    5  C12 UNL     1      21.922   2.737  50.899  1.00  0.00     0.138 C 
ENDROOT
BRANCH   3   6
HETATM    6  C4  UNL     1      25.112   1.347  52.047  1.00  0.00    -0.010 A 
HETATM    7  C5  UNL     1      26.413   1.793  51.951  1.00  0.00     0.016 A 
HETATM    8  C6  UNL     1      27.411   1.087  52.603  1.00  0.00     0.037 A 
HETATM    9  C7  UNL     1      27.096  -0.045  53.337  1.00  0.00     0.068 A 
HETATM   10  C9  UNL     1      25.777  -0.473  53.417  1.00  0.00     0.037 A 
HETATM   11  C10 UNL     1      24.781   0.221  52.773  1.00  0.00     0.016 A 
BRANCH   9  12
HETATM   12  O1  UNL     1      27.974  -0.854  54.041  1.00  0.00    -0.356 OA
HETATM   13  C8  UNL     1      29.130  -1.335  53.393  1.00  0.00     0.210 C 
ENDBRANCH   9  12
ENDBRANCH   3   6
BRANCH   1  14
HETATM   14  C2  UNL     1      22.957   4.920  49.607  1.00  0.00     0.103 C 
HETATM   15  C1  UNL     1      23.691   4.970  48.526  1.00  0.00     0.031 C 
ENDBRANCH   1  14
BRANCH   5  16
HETATM   16  C13 UNL     1      21.667   2.843  52.370  1.00  0.00     0.001 C 
HETATM   17  C14 UNL     1      20.638   2.175  52.861  1.00  0.00    -0.002 C 
BRANCH  17  18
HETATM   18  C15 UNL     1      19.801   1.382  52.003  1.00  0.00    -0.003 C 
HETATM   19  C16 UNL     1      19.428   0.164  52.277  1.00  0.00    -0.012 C 
BRANCH  19  20
HETATM   20  C17 UNL     1      19.726  -0.693  53.446  1.00  0.00     0.141 C 
HETATM   21 CL1  UNL     1      21.466  -1.130  53.400  1.00  0.00    -0.126 Cl
ENDBRANCH  19  20
ENDBRANCH  17  18
ENDBRANCH   5  16
TORSDOF 6
ENDMDL
