MODEL 1
REMARK VINA RESULT:      -8.2      0.000      0.000
REMARK  2 active torsions:
REMARK  status: ('A' for Active; 'I' for Inactive)
REMARK    1  A    between atoms: N1_1  and  C1_2 
REMARK    2  A    between atoms: C6_8  and  C7_9 
ROOT
HETATM    1  C7  UNL     1      24.313   6.978  49.976  1.00  0.00    -0.023 C 
HETATM    2  C8  UNL     1      23.147   6.388  49.572  1.00  0.00    -0.043 C 
HETATM    3  C9  UNL     1      22.358   6.160  50.848  1.00  0.00     0.096 C 
HETATM    4  C10 UNL     1      23.254   5.671  51.931  1.00  0.00     0.040 C 
HETATM    5  C11 UNL     1      23.225   4.422  52.412  1.00  0.00     0.087 C 
HETATM    6  C12 UNL     1      22.373   3.250  52.053  1.00  0.00     0.192 C 
HETATM    7  N2  UNL     1      23.001   2.248  51.246  1.00  0.00    -0.344 N 
HETATM    8  C13 UNL     1      22.638   1.756  49.937  1.00  0.00     0.128 C 
HETATM    9  C14 UNL     1      22.167   2.729  48.915  1.00  0.00     0.039 C 
HETATM   10  C15 UNL     1      23.020   3.824  48.496  1.00  0.00     0.119 C 
HETATM   11  N3  UNL     1      22.898   4.815  47.607  1.00  0.00    -0.404 N 
HETATM   12  C16 UNL     1      22.162   4.643  46.405  1.00  0.00     0.117 C 
HETATM   13  C17 UNL     1      20.694   4.954  46.518  1.00  0.00     0.019 C 
HETATM   14  C18 UNL     1      20.417   5.965  47.604  1.00  0.00     0.004 C 
HETATM   15  C19 UNL     1      21.597   6.883  47.771  1.00  0.00     0.029 C 
HETATM   16  C20 UNL     1      22.866   6.134  48.149  1.00  0.00     0.109 C 
HETATM   17  C21 UNL     1      24.146   1.915  52.072  1.00  0.00     0.244 C 
HETATM   18  O1  UNL     1      24.817   0.888  51.680  1.00  0.00    -0.271 OA
HETATM   19  C22 UNL     1      24.632   2.625  53.310  1.00  0.00     0.278 C 
HETATM   20  O2  UNL     1      24.079   3.961  53.421  1.00  0.00    -0.343 OA
HETATM   21  N4  UNL     1      24.230   6.578  52.409  1.00  0.00    -0.387 N 
HETATM   22  C23 UNL     1      24.544   7.556  51.345  1.00  0.00     0.159 C 
HETATM   23  H27 UNL     1      24.579   6.432  53.382  1.00  0.00     0.159 HD
ENDROOT
BRANCH   1  24
HETATM   24  C6  UNL     1      25.450   7.071  49.020  1.00  0.00     0.001 A 
HETATM   25  C1  UNL     1      26.337   5.992  49.145  1.00  0.00     0.075 A 
HETATM   26  C2  UNL     1      27.459   5.864  48.349  1.00  0.00     0.143 A 
HETATM   27  F1  UNL     1      28.346   4.851  48.425  1.00  0.00    -0.204 F 
HETATM   28  C3  UNL     1      27.731   6.833  47.385  1.00  0.00     0.045 A 
HETATM   29  C4  UNL     1      26.859   7.895  47.260  1.00  0.00     0.004 A 
HETATM   30  C5  UNL     1      25.749   7.999  48.063  1.00  0.00     0.014 A 
BRANCH  25  31
HETATM   31  N1  UNL     1      26.218   4.907  50.085  1.00  0.00    -0.396 N 
HETATM   32  H1  UNL     1      26.851   4.093  49.825  1.00  0.00     0.156 HD
HETATM   33  H2  UNL     1      25.531   5.168  50.816  1.00  0.00     0.156 HD
ENDBRANCH  25  31
ENDBRANCH   1  24
TORSDOF 2
ENDMDL
MODEL 2
REMARK VINA RESULT:      -8.0      2.106      2.462
REMARK  2 active torsions:
REMARK  status: ('A' for Active; 'I' for Inactive)
REMARK    1  A    between atoms: N1_1  and  C1_2 
REMARK    2  A    between atoms: C6_8  and  C7_9 
ROOT
HETATM    1  C7  UNL     1      23.316   5.943  49.828  1.00  0.00    -0.023 C 
HETATM    2  C8  UNL     1      22.295   5.721  48.945  1.00  0.00    -0.043 C 
HETATM    3  C9  UNL     1      21.025   5.915  49.752  1.00  0.00     0.096 C 
HETATM    4  C10 UNL     1      21.167   5.293  51.097  1.00  0.00     0.040 C 
HETATM    5  C11 UNL     1      20.514   4.188  51.477  1.00  0.00     0.087 C 
HETATM    6  C12 UNL     1      19.539   3.323  50.749  1.00  0.00     0.192 C 
HETATM    7  N2  UNL     1      20.056   2.083  50.254  1.00  0.00    -0.344 N 
HETATM    8  C13 UNL     1      20.120   1.584  48.899  1.00  0.00     0.128 C 
HETATM    9  C14 UNL     1      20.478   2.529  47.807  1.00  0.00     0.039 C 
HETATM   10  C15 UNL     1      21.748   3.230  47.831  1.00  0.00     0.119 C 
HETATM   11  N3  UNL     1      22.352   4.094  47.009  1.00  0.00    -0.404 N 
HETATM   12  C16 UNL     1      22.168   4.030  45.603  1.00  0.00     0.117 C 
HETATM   13  C17 UNL     1      20.990   4.812  45.089  1.00  0.00     0.019 C 
HETATM   14  C18 UNL     1      20.657   5.980  45.986  1.00  0.00     0.004 C 
HETATM   15  C19 UNL     1      21.900   6.476  46.672  1.00  0.00     0.029 C 
HETATM   16  C20 UNL     1      22.557   5.406  47.531  1.00  0.00     0.109 C 
HETATM   17  C21 UNL     1      20.568   1.496  51.478  1.00  0.00     0.244 C 
HETATM   18  O1  UNL     1      20.941   0.268  51.375  1.00  0.00    -0.271 OA
HETATM   19  C22 UNL     1      20.712   2.151  52.828  1.00  0.00     0.278 C 
HETATM   20  O2  UNL     1      20.660   3.596  52.738  1.00  0.00    -0.343 OA
HETATM   21  N4  UNL     1      22.107   5.883  51.977  1.00  0.00    -0.387 N 
HETATM   22  C23 UNL     1      23.146   6.573  51.183  1.00  0.00     0.159 C 
HETATM   23  H27 UNL     1      21.949   5.747  53.000  1.00  0.00     0.159 HD
ENDROOT
BRANCH   1  24
HETATM   24  C6  UNL     1      24.701   5.548  49.453  1.00  0.00     0.001 A 
HETATM   25  C1  UNL     1      25.008   4.242  49.864  1.00  0.00     0.075 A 
HETATM   26  C2  UNL     1      26.235   3.660  49.612  1.00  0.00     0.143 A 
HETATM   27  F1  UNL     1      26.587   2.412  49.983  1.00  0.00    -0.204 F 
HETATM   28  C3  UNL     1      27.211   4.383  48.926  1.00  0.00     0.045 A 
HETATM   29  C4  UNL     1      26.909   5.667  48.520  1.00  0.00     0.004 A 
HETATM   30  C5  UNL     1      25.681   6.223  48.783  1.00  0.00     0.014 A 
BRANCH  25  31
HETATM   31  N1  UNL     1      24.131   3.356  50.585  1.00  0.00    -0.396 N 
HETATM   32  H1  UNL     1      23.121   3.462  50.268  1.00  0.00     0.156 HD
HETATM   33  H2  UNL     1      24.690   2.804  51.261  1.00  0.00     0.156 HD
ENDBRANCH  25  31
ENDBRANCH   1  24
TORSDOF 2
ENDMDL
MODEL 3
REMARK VINA RESULT:      -7.9      6.314      9.441
REMARK  2 active torsions:
REMARK  status: ('A' for Active; 'I' for Inactive)
REMARK    1  A    between atoms: N1_1  and  C1_2 
REMARK    2  A    between atoms: C6_8  and  C7_9 
ROOT
HETATM    1  C7  UNL     1      32.488   6.891  47.995  1.00  0.00    -0.023 C 
HETATM    2  C8  UNL     1      32.459   7.898  47.070  1.00  0.00    -0.043 C 
HETATM    3  C9  UNL     1      32.036   9.133  47.845  1.00  0.00     0.096 C 
HETATM    4  C10 UNL     1      30.947   8.795  48.802  1.00  0.00     0.040 C 
HETATM    5  C11 UNL     1      29.678   9.198  48.656  1.00  0.00     0.087 C 
HETATM    6  C12 UNL     1      29.025  10.026  47.599  1.00  0.00     0.192 C 
HETATM    7  N2  UNL     1      28.241   9.308  46.640  1.00  0.00    -0.344 N 
HETATM    8  C13 UNL     1      28.385   9.227  45.205  1.00  0.00     0.128 C 
HETATM    9  C14 UNL     1      29.753   9.123  44.630  1.00  0.00     0.039 C 
HETATM   10  C15 UNL     1      30.617   8.014  44.987  1.00  0.00     0.119 C 
HETATM   11  N3  UNL     1      31.849   7.639  44.630  1.00  0.00    -0.404 N 
HETATM   12  C16 UNL     1      32.349   7.888  43.324  1.00  0.00     0.117 C 
HETATM   13  C17 UNL     1      33.021   9.224  43.156  1.00  0.00     0.019 C 
HETATM   14  C18 UNL     1      33.609   9.725  44.453  1.00  0.00     0.004 C 
HETATM   15  C19 UNL     1      34.007   8.564  45.323  1.00  0.00     0.029 C 
HETATM   16  C20 UNL     1      32.830   7.663  45.665  1.00  0.00     0.109 C 
HETATM   17  C21 UNL     1      27.309   8.622  47.515  1.00  0.00     0.244 C 
HETATM   18  O1  UNL     1      26.341   8.024  46.911  1.00  0.00    -0.271 OA
HETATM   19  C22 UNL     1      27.347   8.529  49.019  1.00  0.00     0.278 C 
HETATM   20  O2  UNL     1      28.653   8.866  49.550  1.00  0.00    -0.343 OA
HETATM   21  N4  UNL     1      31.286   7.938  49.877  1.00  0.00    -0.387 N 
HETATM   22  C23 UNL     1      32.439   7.100  49.483  1.00  0.00     0.159 C 
HETATM   23  H27 UNL     1      30.702   8.007  50.740  1.00  0.00     0.159 HD
ENDROOT
BRANCH   1  24
HETATM   24  C6  UNL     1      32.574   5.479  47.530  1.00  0.00     0.001 A 
HETATM   25  C1  UNL     1      33.899   5.021  47.473  1.00  0.00     0.075 A 
HETATM   26  C2  UNL     1      34.217   3.735  47.080  1.00  0.00     0.143 A 
HETATM   27  F1  UNL     1      35.469   3.240  47.005  1.00  0.00    -0.204 F 
HETATM   28  C3  UNL     1      33.198   2.853  46.725  1.00  0.00     0.045 A 
HETATM   29  C4  UNL     1      31.893   3.303  46.782  1.00  0.00     0.004 A 
HETATM   30  C5  UNL     1      31.603   4.586  47.177  1.00  0.00     0.014 A 
BRANCH  25  31
HETATM   31  N1  UNL     1      35.073   5.790  47.796  1.00  0.00    -0.396 N 
HETATM   32  H1  UNL     1      35.702   5.918  46.948  1.00  0.00     0.156 HD
HETATM   33  H2  UNL     1      35.040   6.052  48.798  1.00  0.00     0.156 HD
ENDBRANCH  25  31
ENDBRANCH   1  24
TORSDOF 2
ENDMDL
MODEL 4
REMARK VINA RESULT:      -7.6      3.010      5.540
REMARK  2 active torsions:
REMARK  status: ('A' for Active; 'I' for Inactive)
REMARK    1  A    between atoms: N1_1  and  C1_2 
REMARK    2  A    between atoms: C6_8  and  C7_9 
ROOT
HETATM    1  C7  UNL     1      23.141   4.165  48.875  1.00  0.00    -0.023 C 
HETATM    2  C8  UNL     1      23.392   3.119  49.720  1.00  0.00    -0.043 C 
HETATM    3  C9  UNL     1      22.689   1.929  49.094  1.00  0.00     0.096 C 
HETATM    4  C10 UNL     1      21.352   2.330  48.577  1.00  0.00     0.040 C 
HETATM    5  C11 UNL     1      20.195   1.948  49.132  1.00  0.00     0.087 C 
HETATM    6  C12 UNL     1      19.911   1.088  50.319  1.00  0.00     0.192 C 
HETATM    7  N2  UNL     1      19.524   1.780  51.511  1.00  0.00    -0.344 N 
HETATM    8  C13 UNL     1      20.149   1.794  52.814  1.00  0.00     0.128 C 
HETATM    9  C14 UNL     1      21.634   1.845  52.892  1.00  0.00     0.039 C 
HETATM   10  C15 UNL     1      22.363   2.950  52.300  1.00  0.00     0.119 C 
HETATM   11  N3  UNL     1      23.655   3.283  52.230  1.00  0.00    -0.404 N 
HETATM   12  C16 UNL     1      24.559   2.966  53.278  1.00  0.00     0.117 C 
HETATM   13  C17 UNL     1      25.202   1.611  53.162  1.00  0.00     0.019 C 
HETATM   14  C18 UNL     1      25.297   1.155  51.726  1.00  0.00     0.004 C 
HETATM   15  C19 UNL     1      25.417   2.344  50.812  1.00  0.00     0.029 C 
HETATM   16  C20 UNL     1      24.225   3.284  50.922  1.00  0.00     0.109 C 
HETATM   17  C21 UNL     1      18.374   2.524  51.030  1.00  0.00     0.244 C 
HETATM   18  O1  UNL     1      17.690   3.115  51.947  1.00  0.00    -0.271 OA
HETATM   19  C22 UNL     1      17.904   2.681  49.607  1.00  0.00     0.278 C 
HETATM   20  O2  UNL     1      18.939   2.340  48.652  1.00  0.00    -0.343 OA
HETATM   21  N4  UNL     1      21.335   3.226  47.480  1.00  0.00    -0.387 N 
HETATM   22  C23 UNL     1      22.582   4.022  47.486  1.00  0.00     0.159 C 
HETATM   23  H27 UNL     1      20.492   3.208  46.865  1.00  0.00     0.159 HD
ENDROOT
BRANCH   1  24
HETATM   24  C6  UNL     1      23.428   5.552  49.331  1.00  0.00     0.001 A 
HETATM   25  C1  UNL     1      22.329   6.135  49.979  1.00  0.00     0.075 A 
HETATM   26  C2  UNL     1      22.373   7.415  50.497  1.00  0.00     0.143 A 
HETATM   27  F1  UNL     1      21.349   8.026  51.128  1.00  0.00    -0.204 F 
HETATM   28  C3  UNL     1      23.542   8.165  50.378  1.00  0.00     0.045 A 
HETATM   29  C4  UNL     1      24.625   7.592  49.742  1.00  0.00     0.004 A 
HETATM   30  C5  UNL     1      24.556   6.317  49.236  1.00  0.00     0.014 A 
BRANCH  25  31
HETATM   31  N1  UNL     1      21.046   5.515  50.187  1.00  0.00    -0.396 N 
HETATM   32  H1  UNL     1      21.028   4.519  49.816  1.00  0.00     0.156 HD
HETATM   33  H2  UNL     1      20.418   6.189  50.661  1.00  0.00     0.156 HD
ENDBRANCH  25  31
ENDBRANCH   1  24
TORSDOF 2
ENDMDL
MODEL 5
REMARK VINA RESULT:      -7.2      1.959      2.304
REMARK  2 active torsions:
REMARK  status: ('A' for Active; 'I' for Inactive)
REMARK    1  A    between atoms: N1_1  and  C1_2 
REMARK    2  A    between atoms: C6_8  and  C7_9 
ROOT
HETATM    1  C7  UNL     1      24.122   6.391  50.169  1.00  0.00    -0.023 C 
HETATM    2  C8  UNL     1      23.020   6.520  49.369  1.00  0.00    -0.043 C 
HETATM    3  C9  UNL     1      21.837   6.481  50.319  1.00  0.00     0.096 C 
HETATM    4  C10 UNL     1      22.042   5.436  51.359  1.00  0.00     0.040 C 
HETATM    5  C11 UNL     1      21.345   4.294  51.413  1.00  0.00     0.087 C 
HETATM    6  C12 UNL     1      20.256   3.765  50.541  1.00  0.00     0.192 C 
HETATM    7  N2  UNL     1      20.641   2.746  49.612  1.00  0.00    -0.344 N 
HETATM    8  C13 UNL     1      20.559   2.732  48.170  1.00  0.00     0.128 C 
HETATM    9  C14 UNL     1      20.895   3.975  47.424  1.00  0.00     0.039 C 
HETATM   10  C15 UNL     1      22.209   4.575  47.551  1.00  0.00     0.119 C 
HETATM   11  N3  UNL     1      22.804   5.641  47.008  1.00  0.00    -0.404 N 
HETATM   12  C16 UNL     1      22.502   6.063  45.686  1.00  0.00     0.117 C 
HETATM   13  C17 UNL     1      21.345   7.019  45.582  1.00  0.00     0.019 C 
HETATM   14  C18 UNL     1      21.170   7.828  46.845  1.00  0.00     0.004 C 
HETATM   15  C19 UNL     1      22.497   8.014  47.528  1.00  0.00     0.029 C 
HETATM   16  C20 UNL     1      23.143   6.691  47.912  1.00  0.00     0.109 C 
HETATM   17  C21 UNL     1      21.208   1.760  50.514  1.00  0.00     0.244 C 
HETATM   18  O1  UNL     1      21.483   0.625  49.972  1.00  0.00    -0.271 OA
HETATM   19  C22 UNL     1      21.507   1.915  51.983  1.00  0.00     0.278 C 
HETATM   20  O2  UNL     1      21.551   3.307  52.384  1.00  0.00    -0.343 OA
HETATM   21  N4  UNL     1      23.090   5.657  52.286  1.00  0.00    -0.387 N 
HETATM   22  C23 UNL     1      24.108   6.532  51.666  1.00  0.00     0.159 C 
HETATM   23  H27 UNL     1      23.007   5.190  53.216  1.00  0.00     0.159 HD
ENDROOT
BRANCH   1  24
HETATM   24  C6  UNL     1      25.441   6.090  49.547  1.00  0.00     0.001 A 
HETATM   25  C1  UNL     1      26.177   7.254  49.278  1.00  0.00     0.075 A 
HETATM   26  C2  UNL     1      27.437   7.215  48.713  1.00  0.00     0.143 A 
HETATM   27  F1  UNL     1      28.189   8.298  48.431  1.00  0.00    -0.204 F 
HETATM   28  C3  UNL     1      28.008   5.984  48.392  1.00  0.00     0.045 A 
HETATM   29  C4  UNL     1      27.284   4.838  48.656  1.00  0.00     0.004 A 
HETATM   30  C5  UNL     1      26.034   4.904  49.220  1.00  0.00     0.014 A 
BRANCH  25  31
HETATM   31  N1  UNL     1      25.745   8.604  49.536  1.00  0.00    -0.396 N 
HETATM   32  H1  UNL     1      26.551   9.293  49.461  1.00  0.00     0.156 HD
HETATM   33  H2  UNL     1      24.729   8.600  49.741  1.00  0.00     0.156 HD
ENDBRANCH  25  31
ENDBRANCH   1  24
TORSDOF 2
ENDMDL
MODEL 6
REMARK VINA RESULT:      -7.0      2.990      5.168
REMARK  2 active torsions:
REMARK  status: ('A' for Active; 'I' for Inactive)
REMARK    1  A    between atoms: N1_1  and  C1_2 
REMARK    2  A    between atoms: C6_8  and  C7_9 
ROOT
HETATM    1  C7  UNL     1      28.029   9.209  48.654  1.00  0.00    -0.023 C 
HETATM    2  C8  UNL     1      27.038   9.687  47.841  1.00  0.00    -0.043 C 
HETATM    3  C9  UNL     1      25.942  10.147  48.784  1.00  0.00     0.096 C 
HETATM    4  C10 UNL     1      25.766   9.167  49.890  1.00  0.00     0.040 C 
HETATM    5  C11 UNL     1      24.697   8.370  50.014  1.00  0.00     0.087 C 
HETATM    6  C12 UNL     1      23.473   8.229  49.170  1.00  0.00     0.192 C 
HETATM    7  N2  UNL     1      23.438   7.084  48.311  1.00  0.00    -0.344 N 
HETATM    8  C13 UNL     1      23.330   7.012  46.872  1.00  0.00     0.128 C 
HETATM    9  C14 UNL     1      24.088   7.995  46.050  1.00  0.00     0.039 C 
HETATM   10  C15 UNL     1      25.533   8.073  46.147  1.00  0.00     0.119 C 
HETATM   11  N3  UNL     1      26.469   8.807  45.540  1.00  0.00    -0.404 N 
HETATM   12  C16 UNL     1      26.321   9.229  44.192  1.00  0.00     0.117 C 
HETATM   13  C17 UNL     1      25.597  10.537  44.021  1.00  0.00     0.019 C 
HETATM   14  C18 UNL     1      25.756  11.429  45.227  1.00  0.00     0.004 C 
HETATM   15  C19 UNL     1      27.070  11.153  45.906  1.00  0.00     0.029 C 
HETATM   16  C20 UNL     1      27.189   9.710  46.377  1.00  0.00     0.109 C 
HETATM   17  C21 UNL     1      23.616   6.016  49.277  1.00  0.00     0.244 C 
HETATM   18  O1  UNL     1      23.443   4.829  48.810  1.00  0.00    -0.271 OA
HETATM   19  C22 UNL     1      23.979   6.139  50.735  1.00  0.00     0.278 C 
HETATM   20  O2  UNL     1      24.541   7.438  51.047  1.00  0.00    -0.343 OA
HETATM   21  N4  UNL     1      26.838   9.041  50.807  1.00  0.00    -0.387 N 
HETATM   22  C23 UNL     1      28.096   9.437  50.139  1.00  0.00     0.159 C 
HETATM   23  H27 UNL     1      26.605   8.696  51.765  1.00  0.00     0.159 HD
ENDROOT
BRANCH   1  24
HETATM   24  C6  UNL     1      29.132   8.404  48.060  1.00  0.00     0.001 A 
HETATM   25  C1  UNL     1      28.915   7.025  48.200  1.00  0.00     0.075 A 
HETATM   26  C2  UNL     1      29.803   6.087  47.711  1.00  0.00     0.143 A 
HETATM   27  F1  UNL     1      29.649   4.751  47.817  1.00  0.00    -0.204 F 
HETATM   28  C3  UNL     1      30.958   6.510  47.055  1.00  0.00     0.045 A 
HETATM   29  C4  UNL     1      31.172   7.867  46.916  1.00  0.00     0.004 A 
HETATM   30  C5  UNL     1      30.273   8.780  47.410  1.00  0.00     0.014 A 
BRANCH  25  31
HETATM   31  N1  UNL     1      27.787   6.410  48.850  1.00  0.00    -0.396 N 
HETATM   32  H1  UNL     1      27.912   5.358  48.939  1.00  0.00     0.156 HD
HETATM   33  H2  UNL     1      27.094   7.143  49.090  1.00  0.00     0.156 HD
ENDBRANCH  25  31
ENDBRANCH   1  24
TORSDOF 2
ENDMDL
MODEL 7
REMARK VINA RESULT:      -7.0      7.411     11.322
REMARK  2 active torsions:
REMARK  status: ('A' for Active; 'I' for Inactive)
REMARK    1  A    between atoms: N1_1  and  C1_2 
REMARK    2  A    between atoms: C6_8  and  C7_9 
ROOT
HETATM    1  C7  UNL     1      31.575   9.896  47.546  1.00  0.00    -0.023 C 
HETATM    2  C8  UNL     1      32.619   9.014  47.476  1.00  0.00    -0.043 C 
HETATM    3  C9  UNL     1      33.816   9.852  47.065  1.00  0.00     0.096 C 
HETATM    4  C10 UNL     1      33.428  10.829  46.012  1.00  0.00     0.040 C 
HETATM    5  C11 UNL     1      33.820  10.741  44.735  1.00  0.00     0.087 C 
HETATM    6  C12 UNL     1      34.683   9.742  44.039  1.00  0.00     0.192 C 
HETATM    7  N2  UNL     1      33.994   8.780  43.231  1.00  0.00    -0.344 N 
HETATM    8  C13 UNL     1      33.973   7.339  43.328  1.00  0.00     0.128 C 
HETATM    9  C14 UNL     1      33.908   6.715  44.677  1.00  0.00     0.039 C 
HETATM   10  C15 UNL     1      32.796   6.999  45.564  1.00  0.00     0.119 C 
HETATM   11  N3  UNL     1      32.450   6.587  46.787  1.00  0.00    -0.404 N 
HETATM   12  C16 UNL     1      32.758   5.277  47.241  1.00  0.00     0.117 C 
HETATM   13  C17 UNL     1      34.107   5.141  47.893  1.00  0.00     0.019 C 
HETATM   14  C18 UNL     1      34.562   6.437  48.518  1.00  0.00     0.004 C 
HETATM   15  C19 UNL     1      33.372   7.246  48.958  1.00  0.00     0.029 C 
HETATM   16  C20 UNL     1      32.444   7.589  47.802  1.00  0.00     0.109 C 
HETATM   17  C21 UNL     1      33.263   9.656  42.335  1.00  0.00     0.244 C 
HETATM   18  O1  UNL     1      32.678   9.061  41.354  1.00  0.00    -0.271 OA
HETATM   19  C22 UNL     1      33.110  11.153  42.424  1.00  0.00     0.278 C 
HETATM   20  O2  UNL     1      33.441  11.654  43.743  1.00  0.00    -0.343 OA
HETATM   21  N4  UNL     1      32.532  11.857  46.395  1.00  0.00    -0.387 N 
HETATM   22  C23 UNL     1      31.725  11.393  47.544  1.00  0.00     0.159 C 
HETATM   23  H27 UNL     1      32.559  12.741  45.840  1.00  0.00     0.159 HD
ENDROOT
BRANCH   1  24
HETATM   24  C6  UNL     1      30.185   9.372  47.631  1.00  0.00     0.001 A 
HETATM   25  C1  UNL     1      29.663   9.466  48.930  1.00  0.00     0.075 A 
HETATM   26  C2  UNL     1      28.382   9.051  49.241  1.00  0.00     0.143 A 
HETATM   27  F1  UNL     1      27.828   9.116  50.469  1.00  0.00    -0.204 F 
HETATM   28  C3  UNL     1      27.571   8.517  48.241  1.00  0.00     0.045 A 
HETATM   29  C4  UNL     1      28.084   8.425  46.962  1.00  0.00     0.004 A 
HETATM   30  C5  UNL     1      29.360   8.846  46.678  1.00  0.00     0.014 A 
BRANCH  25  31
HETATM   31  N1  UNL     1      30.355   9.982  50.083  1.00  0.00    -0.396 N 
HETATM   32  H1  UNL     1      29.986  10.939  50.365  1.00  0.00     0.156 HD
HETATM   33  H2  UNL     1      31.069   9.294  50.384  1.00  0.00     0.156 HD
ENDBRANCH  25  31
ENDBRANCH   1  24
TORSDOF 2
ENDMDL
MODEL 8
REMARK VINA RESULT:      -6.7      4.955      7.595
REMARK  2 active torsions:
REMARK  status: ('A' for Active; 'I' for Inactive)
REMARK    1  A    between atoms: N1_1  and  C1_2 
REMARK    2  A    between atoms: C6_8  and  C7_9 
ROOT
HETATM    1  C7  UNL     1      28.604  10.736  47.831  1.00  0.00    -0.023 C 
HETATM    2  C8  UNL     1      28.184   9.689  48.605  1.00  0.00    -0.043 C 
HETATM    3  C9  UNL     1      29.267   9.514  49.653  1.00  0.00     0.096 C 
HETATM    4  C10 UNL     1      30.613   9.656  49.035  1.00  0.00     0.040 C 
HETATM    5  C11 UNL     1      31.464   8.637  48.864  1.00  0.00     0.087 C 
HETATM    6  C12 UNL     1      31.344   7.188  49.205  1.00  0.00     0.192 C 
HETATM    7  N2  UNL     1      31.066   6.312  48.108  1.00  0.00    -0.344 N 
HETATM    8  C13 UNL     1      29.949   5.419  47.899  1.00  0.00     0.128 C 
HETATM    9  C14 UNL     1      28.587   5.880  48.282  1.00  0.00     0.039 C 
HETATM   10  C15 UNL     1      28.018   7.070  47.679  1.00  0.00     0.119 C 
HETATM   11  N3  UNL     1      26.846   7.702  47.792  1.00  0.00    -0.404 N 
HETATM   12  C16 UNL     1      25.643   6.992  48.044  1.00  0.00     0.117 C 
HETATM   13  C17 UNL     1      25.336   6.777  49.501  1.00  0.00     0.019 C 
HETATM   14  C18 UNL     1      25.940   7.854  50.368  1.00  0.00     0.004 C 
HETATM   15  C19 UNL     1      26.037   9.144  49.598  1.00  0.00     0.029 C 
HETATM   16  C20 UNL     1      26.900   9.013  48.352  1.00  0.00     0.109 C 
HETATM   17  C21 UNL     1      32.177   6.622  47.227  1.00  0.00     0.244 C 
HETATM   18  O1  UNL     1      32.298   5.839  46.212  1.00  0.00    -0.271 OA
HETATM   19  C22 UNL     1      33.182   7.737  47.362  1.00  0.00     0.278 C 
HETATM   20  O2  UNL     1      32.725   8.771  48.269  1.00  0.00    -0.343 OA
HETATM   21  N4  UNL     1      30.957  10.939  48.544  1.00  0.00    -0.387 N 
HETATM   22  C23 UNL     1      29.720  11.674  48.202  1.00  0.00     0.159 C 
HETATM   23  H27 UNL     1      31.974  11.169  48.486  1.00  0.00     0.159 HD
ENDROOT
BRANCH   1  24
HETATM   24  C6  UNL     1      27.933  10.992  46.528  1.00  0.00     0.001 A 
HETATM   25  C1  UNL     1      28.544  10.299  45.472  1.00  0.00     0.075 A 
HETATM   26  C2  UNL     1      28.080  10.377  44.173  1.00  0.00     0.143 A 
HETATM   27  F1  UNL     1      28.627   9.736  43.120  1.00  0.00    -0.204 F 
HETATM   28  C3  UNL     1      26.969  11.169  43.887  1.00  0.00     0.045 A 
HETATM   29  C4  UNL     1      26.367  11.851  44.925  1.00  0.00     0.004 A 
HETATM   30  C5  UNL     1      26.846  11.756  46.208  1.00  0.00     0.014 A 
BRANCH  25  31
HETATM   31  N1  UNL     1      29.698   9.444  45.580  1.00  0.00    -0.396 N 
HETATM   32  H1  UNL     1      29.428   8.457  45.868  1.00  0.00     0.156 HD
HETATM   33  H2  UNL     1      30.547   9.992  45.349  1.00  0.00     0.156 HD
ENDBRANCH  25  31
ENDBRANCH   1  24
TORSDOF 2
ENDMDL
MODEL 9
REMARK VINA RESULT:      -6.7      3.300      6.215
REMARK  2 active torsions:
REMARK  status: ('A' for Active; 'I' for Inactive)
REMARK    1  A    between atoms: N1_1  and  C1_2 
REMARK    2  A    between atoms: C6_8  and  C7_9 
ROOT
HETATM    1  C7  UNL     1      22.908   6.495  50.405  1.00  0.00    -0.023 C 
HETATM    2  C8  UNL     1      23.810   7.401  49.918  1.00  0.00    -0.043 C 
HETATM    3  C9  UNL     1      23.001   8.654  49.642  1.00  0.00     0.096 C 
HETATM    4  C10 UNL     1      21.696   8.301  49.018  1.00  0.00     0.040 C 
HETATM    5  C11 UNL     1      21.390   8.556  47.739  1.00  0.00     0.087 C 
HETATM    6  C12 UNL     1      22.178   9.208  46.651  1.00  0.00     0.192 C 
HETATM    7  N2  UNL     1      22.745   8.324  45.678  1.00  0.00    -0.344 N 
HETATM    8  C13 UNL     1      24.128   8.121  45.311  1.00  0.00     0.128 C 
HETATM    9  C14 UNL     1      25.156   8.102  46.386  1.00  0.00     0.039 C 
HETATM   10  C15 UNL     1      25.081   7.127  47.458  1.00  0.00     0.119 C 
HETATM   11  N3  UNL     1      25.842   6.847  48.519  1.00  0.00    -0.404 N 
HETATM   12  C16 UNL     1      27.252   7.020  48.485  1.00  0.00     0.117 C 
HETATM   13  C17 UNL     1      27.724   8.394  48.873  1.00  0.00     0.019 C 
HETATM   14  C18 UNL     1      26.759   9.075  49.813  1.00  0.00     0.004 C 
HETATM   15  C19 UNL     1      26.034   8.050  50.643  1.00  0.00     0.029 C 
HETATM   16  C20 UNL     1      25.239   7.070  49.792  1.00  0.00     0.109 C 
HETATM   17  C21 UNL     1      21.556   7.633  45.215  1.00  0.00     0.244 C 
HETATM   18  O1  UNL     1      21.733   6.884  44.183  1.00  0.00    -0.271 OA
HETATM   19  C22 UNL     1      20.167   7.690  45.798  1.00  0.00     0.278 C 
HETATM   20  O2  UNL     1      20.168   8.209  47.151  1.00  0.00    -0.343 OA
HETATM   21  N4  UNL     1      20.775   7.591  49.825  1.00  0.00    -0.387 N 
HETATM   22  C23 UNL     1      21.517   6.841  50.862  1.00  0.00     0.159 C 
HETATM   23  H27 UNL     1      19.763   7.682  49.584  1.00  0.00     0.159 HD
ENDROOT
BRANCH   1  24
HETATM   24  C6  UNL     1      23.297   5.062  50.503  1.00  0.00     0.001 A 
HETATM   25  C1  UNL     1      23.720   4.716  51.795  1.00  0.00     0.075 A 
HETATM   26  C2  UNL     1      24.117   3.433  52.121  1.00  0.00     0.143 A 
HETATM   27  F1  UNL     1      24.533   3.043  53.343  1.00  0.00    -0.204 F 
HETATM   28  C3  UNL     1      24.102   2.440  51.143  1.00  0.00     0.045 A 
HETATM   29  C4  UNL     1      23.685   2.779  49.872  1.00  0.00     0.004 A 
HETATM   30  C5  UNL     1      23.294   4.062  49.573  1.00  0.00     0.014 A 
BRANCH  25  31
HETATM   31  N1  UNL     1      23.805   5.608  52.923  1.00  0.00    -0.396 N 
HETATM   32  H1  UNL     1      24.236   5.129  53.769  1.00  0.00     0.156 HD
HETATM   33  H2  UNL     1      23.422   6.532  52.652  1.00  0.00     0.156 HD
ENDBRANCH  25  31
ENDBRANCH   1  24
TORSDOF 2
ENDMDL
