MODEL 1
REMARK VINA RESULT:      -8.0      0.000      0.000
REMARK  5 active torsions:
REMARK  status: ('A' for Active; 'I' for Inactive)
REMARK    1  A    between atoms: C4_4  and  N1_5 
REMARK    2  A    between atoms: N1_5  and  C5_6 
REMARK    3  A    between atoms: C7_8  and  O1_9 
REMARK    4  A    between atoms: C8_10  and  O2_11 
REMARK    5  A    between atoms: O2_11  and  C9_12 
ROOT
HETATM    1  C5  UNL     1      24.485   3.122  52.292  1.00  0.00     0.073 A 
HETATM    2  C6  UNL     1      23.678   4.187  52.449  1.00  0.00     0.072 A 
HETATM    3  C7  UNL     1      22.508   3.314  52.206  1.00  0.00     0.104 A 
HETATM    4  C8  UNL     1      23.318   2.276  52.055  1.00  0.00     0.136 A 
ENDROOT
BRANCH   1   5
HETATM    5  N1  UNL     1      25.821   2.708  52.293  1.00  0.00    -0.339 N 
HETATM    6  H5  UNL     1      26.613   3.191  51.806  1.00  0.00     0.167 HD
BRANCH   5   7
HETATM    7  C4  UNL     1      26.170   1.530  53.009  1.00  0.00     0.131 A 
HETATM    8  C3  UNL     1      26.370   0.355  52.336  1.00  0.00     0.077 A 
HETATM    9  C2  UNL     1      26.712  -0.836  52.952  1.00  0.00     0.035 A 
HETATM   10  C1  UNL     1      26.934  -2.118  52.251  1.00  0.00     0.070 C 
HETATM   11  N3  UNL     1      26.844  -0.784  54.298  1.00  0.00    -0.247 NA
HETATM   12  C16 UNL     1      26.655   0.355  55.007  1.00  0.00     0.235 A 
HETATM   13  N2  UNL     1      26.324   1.483  54.350  1.00  0.00    -0.224 NA
ENDBRANCH   5   7
ENDBRANCH   1   5
BRANCH   4  14
HETATM   14  O2  UNL     1      22.793   1.019  51.777  1.00  0.00    -0.305 OA
BRANCH  14  15
HETATM   15  C9  UNL     1      22.327   0.191  52.759  1.00  0.00     0.085 A 
HETATM   16  C10 UNL     1      23.116  -0.324  53.779  1.00  0.00     0.080 A 
HETATM   17  C11 UNL     1      22.657  -1.164  54.783  1.00  0.00     0.119 A 
HETATM   18  F1  UNL     1      23.566  -1.570  55.697  1.00  0.00    -0.206 F 
HETATM   19  C12 UNL     1      21.322  -1.503  54.748  1.00  0.00     0.043 A 
HETATM   20  C13 UNL     1      20.483  -1.026  53.761  1.00  0.00     0.012 A 
HETATM   21  C14 UNL     1      20.979  -0.180  52.766  1.00  0.00    -0.028 A 
HETATM   22  C15 UNL     1      20.113   0.346  51.699  1.00  0.00     0.051 C 
ENDBRANCH  14  15
ENDBRANCH   4  14
BRANCH   3  23
HETATM   23  O1  UNL     1      21.239   3.818  52.226  1.00  0.00    -0.358 OA
HETATM   24  H7  UNL     1      20.546   3.776  51.522  1.00  0.00     0.217 HD
ENDBRANCH   3  23
TORSDOF 5
ENDMDL
MODEL 2
REMARK VINA RESULT:      -7.8      1.689      2.244
REMARK  5 active torsions:
REMARK  status: ('A' for Active; 'I' for Inactive)
REMARK    1  A    between atoms: C4_4  and  N1_5 
REMARK    2  A    between atoms: N1_5  and  C5_6 
REMARK    3  A    between atoms: C7_8  and  O1_9 
REMARK    4  A    between atoms: C8_10  and  O2_11 
REMARK    5  A    between atoms: O2_11  and  C9_12 
ROOT
HETATM    1  C5  UNL     1      26.253   3.052  51.003  1.00  0.00     0.073 A 
HETATM    2  C6  UNL     1      26.082   3.237  49.682  1.00  0.00     0.072 A 
HETATM    3  C7  UNL     1      24.645   3.497  49.922  1.00  0.00     0.104 A 
HETATM    4  C8  UNL     1      24.832   3.312  51.221  1.00  0.00     0.136 A 
ENDROOT
BRANCH   1   5
HETATM    5  N1  UNL     1      27.199   2.749  51.988  1.00  0.00    -0.339 N 
HETATM    6  H5  UNL     1      28.064   3.303  52.197  1.00  0.00     0.167 HD
BRANCH   5   7
HETATM    7  C4  UNL     1      27.002   1.595  52.793  1.00  0.00     0.131 A 
HETATM    8  C3  UNL     1      27.015   0.351  52.222  1.00  0.00     0.077 A 
HETATM    9  C2  UNL     1      26.831  -0.822  52.930  1.00  0.00     0.035 A 
HETATM   10  C1  UNL     1      26.842  -2.177  52.340  1.00  0.00     0.070 C 
HETATM   11  N3  UNL     1      26.630  -0.680  54.261  1.00  0.00    -0.247 NA
HETATM   12  C16 UNL     1      26.608   0.529  54.871  1.00  0.00     0.235 A 
HETATM   13  N2  UNL     1      26.793   1.637  54.127  1.00  0.00    -0.224 NA
ENDBRANCH   5   7
ENDBRANCH   1   5
BRANCH   4  14
HETATM   14  O2  UNL     1      23.762   3.426  52.101  1.00  0.00    -0.305 OA
BRANCH  14  15
HETATM   15  C9  UNL     1      22.984   2.356  52.443  1.00  0.00     0.085 A 
HETATM   16  C10 UNL     1      23.489   1.127  52.848  1.00  0.00     0.080 A 
HETATM   17  C11 UNL     1      22.711   0.033  53.199  1.00  0.00     0.119 A 
HETATM   18  F1  UNL     1      23.372  -1.086  53.570  1.00  0.00    -0.206 F 
HETATM   19  C12 UNL     1      21.344   0.194  53.132  1.00  0.00     0.043 A 
HETATM   20  C13 UNL     1      20.778   1.389  52.736  1.00  0.00     0.012 A 
HETATM   21  C14 UNL     1      21.591   2.471  52.391  1.00  0.00    -0.028 A 
HETATM   22  C15 UNL     1      21.021   3.759  51.965  1.00  0.00     0.051 C 
ENDBRANCH  14  15
ENDBRANCH   4  14
BRANCH   3  23
HETATM   23  O1  UNL     1      23.801   3.785  48.889  1.00  0.00    -0.358 OA
HETATM   24  H7  UNL     1      23.004   3.286  48.583  1.00  0.00     0.217 HD
ENDBRANCH   3  23
TORSDOF 5
ENDMDL
MODEL 3
REMARK VINA RESULT:      -7.6      3.674      5.701
REMARK  5 active torsions:
REMARK  status: ('A' for Active; 'I' for Inactive)
REMARK    1  A    between atoms: C4_4  and  N1_5 
REMARK    2  A    between atoms: N1_5  and  C5_6 
REMARK    3  A    between atoms: C7_8  and  O1_9 
REMARK    4  A    between atoms: C8_10  and  O2_11 
REMARK    5  A    between atoms: O2_11  and  C9_12 
ROOT
HETATM    1  C5  UNL     1      25.345   2.664  52.380  1.00  0.00     0.073 A 
HETATM    2  C6  UNL     1      24.170   2.534  53.022  1.00  0.00     0.072 A 
HETATM    3  C7  UNL     1      23.465   2.852  51.760  1.00  0.00     0.104 A 
HETATM    4  C8  UNL     1      24.632   2.976  51.144  1.00  0.00     0.136 A 
ENDROOT
BRANCH   1   5
HETATM    5  N1  UNL     1      26.733   2.598  52.541  1.00  0.00    -0.339 N 
HETATM    6  H5  UNL     1      27.418   3.343  52.268  1.00  0.00     0.167 HD
BRANCH   5   7
HETATM    7  C4  UNL     1      27.299   1.432  53.124  1.00  0.00     0.131 A 
HETATM    8  C3  UNL     1      27.034   0.201  52.587  1.00  0.00     0.077 A 
HETATM    9  C2  UNL     1      27.541  -0.983  53.089  1.00  0.00     0.035 A 
HETATM   10  C1  UNL     1      27.273  -2.324  52.529  1.00  0.00     0.070 C 
HETATM   11  N3  UNL     1      28.340  -0.866  54.176  1.00  0.00    -0.247 NA
HETATM   12  C16 UNL     1      28.631   0.330  54.743  1.00  0.00     0.235 A 
HETATM   13  N2  UNL     1      28.106   1.449  54.207  1.00  0.00    -0.224 NA
ENDBRANCH   5   7
ENDBRANCH   1   5
BRANCH   4  14
HETATM   14  O2  UNL     1      24.675   3.300  49.793  1.00  0.00    -0.305 OA
BRANCH  14  15
HETATM   15  C9  UNL     1      25.462   4.307  49.310  1.00  0.00     0.085 A 
HETATM   16  C10 UNL     1      26.830   4.189  49.097  1.00  0.00     0.080 A 
HETATM   17  C11 UNL     1      27.641   5.201  48.608  1.00  0.00     0.119 A 
HETATM   18  F1  UNL     1      28.953   4.910  48.463  1.00  0.00    -0.206 F 
HETATM   19  C12 UNL     1      27.032   6.403  48.320  1.00  0.00     0.043 A 
HETATM   20  C13 UNL     1      25.677   6.587  48.509  1.00  0.00     0.012 A 
HETATM   21  C14 UNL     1      24.889   5.545  49.003  1.00  0.00    -0.028 A 
HETATM   22  C15 UNL     1      23.442   5.707  49.217  1.00  0.00     0.051 C 
ENDBRANCH  14  15
ENDBRANCH   4  14
BRANCH   3  23
HETATM   23  O1  UNL     1      22.102   2.891  51.707  1.00  0.00    -0.358 OA
HETATM   24  H7  UNL     1      21.487   2.327  51.177  1.00  0.00     0.217 HD
ENDBRANCH   3  23
TORSDOF 5
ENDMDL
MODEL 4
REMARK VINA RESULT:      -7.4      2.856      5.603
REMARK  5 active torsions:
REMARK  status: ('A' for Active; 'I' for Inactive)
REMARK    1  A    between atoms: C4_4  and  N1_5 
REMARK    2  A    between atoms: N1_5  and  C5_6 
REMARK    3  A    between atoms: C7_8  and  O1_9 
REMARK    4  A    between atoms: C8_10  and  O2_11 
REMARK    5  A    between atoms: O2_11  and  C9_12 
ROOT
HETATM    1  C5  UNL     1      22.227  -0.047  53.162  1.00  0.00     0.073 A 
HETATM    2  C6  UNL     1      21.656  -0.508  54.289  1.00  0.00     0.072 A 
HETATM    3  C7  UNL     1      22.960  -1.079  54.695  1.00  0.00     0.104 A 
HETATM    4  C8  UNL     1      23.505  -0.617  53.578  1.00  0.00     0.136 A 
ENDROOT
BRANCH   1   5
HETATM    5  N1  UNL     1      21.982   0.661  51.980  1.00  0.00    -0.339 N 
HETATM    6  H5  UNL     1      21.347   0.357  51.204  1.00  0.00     0.167 HD
BRANCH   5   7
HETATM    7  C4  UNL     1      22.636   1.908  51.782  1.00  0.00     0.131 A 
HETATM    8  C3  UNL     1      22.853   2.373  50.514  1.00  0.00     0.077 A 
HETATM    9  C2  UNL     1      23.480   3.572  50.230  1.00  0.00     0.035 A 
HETATM   10  C1  UNL     1      23.726   4.099  48.872  1.00  0.00     0.070 C 
HETATM   11  N3  UNL     1      23.885   4.291  51.304  1.00  0.00    -0.247 NA
HETATM   12  C16 UNL     1      23.694   3.872  52.578  1.00  0.00     0.235 A 
HETATM   13  N2  UNL     1      23.075   2.694  52.789  1.00  0.00    -0.224 NA
ENDBRANCH   5   7
ENDBRANCH   1   5
BRANCH   4  14
HETATM   14  O2  UNL     1      24.853  -0.839  53.319  1.00  0.00    -0.305 OA
BRANCH  14  15
HETATM   15  C9  UNL     1      25.719   0.182  53.047  1.00  0.00     0.085 A 
HETATM   16  C10 UNL     1      25.838   0.789  51.803  1.00  0.00     0.080 A 
HETATM   17  C11 UNL     1      26.712   1.825  51.512  1.00  0.00     0.119 A 
HETATM   18  F1  UNL     1      26.693   2.298  50.246  1.00  0.00    -0.206 F 
HETATM   19  C12 UNL     1      27.513   2.271  52.541  1.00  0.00     0.043 A 
HETATM   20  C13 UNL     1      27.446   1.710  53.800  1.00  0.00     0.012 A 
HETATM   21  C14 UNL     1      26.553   0.668  54.059  1.00  0.00    -0.028 A 
HETATM   22  C15 UNL     1      26.456   0.048  55.390  1.00  0.00     0.051 C 
ENDBRANCH  14  15
ENDBRANCH   4  14
BRANCH   3  23
HETATM   23  O1  UNL     1      23.095  -1.755  55.873  1.00  0.00    -0.358 OA
HETATM   24  H7  UNL     1      22.637  -1.595  56.734  1.00  0.00     0.217 HD
ENDBRANCH   3  23
TORSDOF 5
ENDMDL
MODEL 5
REMARK VINA RESULT:      -7.2      2.578      4.282
REMARK  5 active torsions:
REMARK  status: ('A' for Active; 'I' for Inactive)
REMARK    1  A    between atoms: C4_4  and  N1_5 
REMARK    2  A    between atoms: N1_5  and  C5_6 
REMARK    3  A    between atoms: C7_8  and  O1_9 
REMARK    4  A    between atoms: C8_10  and  O2_11 
REMARK    5  A    between atoms: O2_11  and  C9_12 
ROOT
HETATM    1  C5  UNL     1      23.310  -0.589  53.501  1.00  0.00     0.073 A 
HETATM    2  C6  UNL     1      22.477  -1.116  54.417  1.00  0.00     0.072 A 
HETATM    3  C7  UNL     1      21.617   0.083  54.298  1.00  0.00     0.104 A 
HETATM    4  C8  UNL     1      22.449   0.586  53.397  1.00  0.00     0.136 A 
ENDROOT
BRANCH   1   5
HETATM    5  N1  UNL     1      24.495  -0.812  52.793  1.00  0.00    -0.339 N 
HETATM    6  H5  UNL     1      24.563  -1.127  51.795  1.00  0.00     0.167 HD
BRANCH   5   7
HETATM    7  C4  UNL     1      25.736  -0.603  53.454  1.00  0.00     0.131 A 
HETATM    8  C3  UNL     1      26.873  -1.200  52.980  1.00  0.00     0.077 A 
HETATM    9  C2  UNL     1      28.119  -1.052  53.560  1.00  0.00     0.035 A 
HETATM   10  C1  UNL     1      29.363  -1.682  53.070  1.00  0.00     0.070 C 
HETATM   11  N3  UNL     1      28.165  -0.261  54.659  1.00  0.00    -0.247 NA
HETATM   12  C16 UNL     1      27.067   0.350  55.165  1.00  0.00     0.235 A 
HETATM   13  N2  UNL     1      25.881   0.166  54.554  1.00  0.00    -0.224 NA
ENDBRANCH   5   7
ENDBRANCH   1   5
BRANCH   4  14
HETATM   14  O2  UNL     1      22.189   1.827  52.826  1.00  0.00    -0.305 OA
BRANCH  14  15
HETATM   15  C9  UNL     1      22.443   2.090  51.510  1.00  0.00     0.085 A 
HETATM   16  C10 UNL     1      21.907   1.362  50.455  1.00  0.00     0.080 A 
HETATM   17  C11 UNL     1      22.156   1.617  49.115  1.00  0.00     0.119 A 
HETATM   18  F1  UNL     1      21.549   0.807  48.220  1.00  0.00    -0.206 F 
HETATM   19  C12 UNL     1      22.996   2.671  48.827  1.00  0.00     0.043 A 
HETATM   20  C13 UNL     1      23.562   3.434  49.829  1.00  0.00     0.012 A 
HETATM   21  C14 UNL     1      23.290   3.149  51.169  1.00  0.00    -0.028 A 
HETATM   22  C15 UNL     1      23.876   3.942  52.261  1.00  0.00     0.051 C 
ENDBRANCH  14  15
ENDBRANCH   4  14
BRANCH   3  23
HETATM   23  O1  UNL     1      20.476   0.206  55.037  1.00  0.00    -0.358 OA
HETATM   24  H7  UNL     1      20.144  -0.378  55.763  1.00  0.00     0.217 HD
ENDBRANCH   3  23
TORSDOF 5
ENDMDL
MODEL 6
REMARK VINA RESULT:      -7.2      2.672      3.892
REMARK  5 active torsions:
REMARK  status: ('A' for Active; 'I' for Inactive)
REMARK    1  A    between atoms: C4_4  and  N1_5 
REMARK    2  A    between atoms: N1_5  and  C5_6 
REMARK    3  A    between atoms: C7_8  and  O1_9 
REMARK    4  A    between atoms: C8_10  and  O2_11 
REMARK    5  A    between atoms: O2_11  and  C9_12 
ROOT
HETATM    1  C5  UNL     1      24.562  -0.054  53.465  1.00  0.00     0.073 A 
HETATM    2  C6  UNL     1      24.504  -1.006  54.414  1.00  0.00     0.072 A 
HETATM    3  C7  UNL     1      23.043  -0.789  54.516  1.00  0.00     0.104 A 
HETATM    4  C8  UNL     1      23.120   0.146  53.580  1.00  0.00     0.136 A 
ENDROOT
BRANCH   1   5
HETATM    5  N1  UNL     1      25.426   0.632  52.605  1.00  0.00    -0.339 N 
HETATM    6  H5  UNL     1      25.177   1.012  51.661  1.00  0.00     0.167 HD
BRANCH   5   7
HETATM    7  C4  UNL     1      26.769   0.849  53.017  1.00  0.00     0.131 A 
HETATM    8  C3  UNL     1      27.628  -0.209  53.138  1.00  0.00     0.077 A 
HETATM    9  C2  UNL     1      28.948  -0.089  53.533  1.00  0.00     0.035 A 
HETATM   10  C1  UNL     1      29.897  -1.213  53.671  1.00  0.00     0.070 C 
HETATM   11  N3  UNL     1      29.367   1.170  53.803  1.00  0.00    -0.247 NA
HETATM   12  C16 UNL     1      28.554   2.249  53.698  1.00  0.00     0.235 A 
HETATM   13  N2  UNL     1      27.278   2.066  53.309  1.00  0.00    -0.224 NA
ENDBRANCH   5   7
ENDBRANCH   1   5
BRANCH   4  14
HETATM   14  O2  UNL     1      21.972   0.816  53.171  1.00  0.00    -0.305 OA
BRANCH  14  15
HETATM   15  C9  UNL     1      21.648   0.964  51.852  1.00  0.00     0.085 A 
HETATM   16  C10 UNL     1      22.494   1.520  50.902  1.00  0.00     0.080 A 
HETATM   17  C11 UNL     1      22.178   1.676  49.560  1.00  0.00     0.119 A 
HETATM   18  F1  UNL     1      23.124   2.237  48.775  1.00  0.00    -0.206 F 
HETATM   19  C12 UNL     1      20.931   1.246  49.160  1.00  0.00     0.043 A 
HETATM   20  C13 UNL     1      20.042   0.685  50.055  1.00  0.00     0.012 A 
HETATM   21  C14 UNL     1      20.394   0.542  51.399  1.00  0.00    -0.028 A 
HETATM   22  C15 UNL     1      19.470  -0.051  52.379  1.00  0.00     0.051 C 
ENDBRANCH  14  15
ENDBRANCH   4  14
BRANCH   3  23
HETATM   23  O1  UNL     1      22.285  -1.513  55.390  1.00  0.00    -0.358 OA
HETATM   24  H7  UNL     1      22.583  -2.117  56.115  1.00  0.00     0.217 HD
ENDBRANCH   3  23
TORSDOF 5
ENDMDL
MODEL 7
REMARK VINA RESULT:      -7.2      3.421      5.732
REMARK  5 active torsions:
REMARK  status: ('A' for Active; 'I' for Inactive)
REMARK    1  A    between atoms: C4_4  and  N1_5 
REMARK    2  A    between atoms: N1_5  and  C5_6 
REMARK    3  A    between atoms: C7_8  and  O1_9 
REMARK    4  A    between atoms: C8_10  and  O2_11 
REMARK    5  A    between atoms: O2_11  and  C9_12 
ROOT
HETATM    1  C5  UNL     1      24.770   2.566  52.764  1.00  0.00     0.073 A 
HETATM    2  C6  UNL     1      23.500   2.131  52.849  1.00  0.00     0.072 A 
HETATM    3  C7  UNL     1      23.270   2.587  51.460  1.00  0.00     0.104 A 
HETATM    4  C8  UNL     1      24.524   3.010  51.395  1.00  0.00     0.136 A 
ENDROOT
BRANCH   1   5
HETATM    5  N1  UNL     1      25.974   2.681  53.468  1.00  0.00    -0.339 N 
HETATM    6  H5  UNL     1      26.376   3.569  53.854  1.00  0.00     0.167 HD
BRANCH   5   7
HETATM    7  C4  UNL     1      26.746   1.509  53.697  1.00  0.00     0.131 A 
HETATM    8  C3  UNL     1      26.489   0.370  52.984  1.00  0.00     0.077 A 
HETATM    9  C2  UNL     1      27.189  -0.812  53.143  1.00  0.00     0.035 A 
HETATM   10  C1  UNL     1      26.934  -2.056  52.387  1.00  0.00     0.070 C 
HETATM   11  N3  UNL     1      28.176  -0.790  54.070  1.00  0.00    -0.247 NA
HETATM   12  C16 UNL     1      28.467   0.314  54.801  1.00  0.00     0.235 A 
HETATM   13  N2  UNL     1      27.748   1.435  54.600  1.00  0.00    -0.224 NA
ENDBRANCH   5   7
ENDBRANCH   1   5
BRANCH   4  14
HETATM   14  O2  UNL     1      24.998   3.605  50.231  1.00  0.00    -0.305 OA
BRANCH  14  15
HETATM   15  C9  UNL     1      25.206   4.951  50.134  1.00  0.00     0.085 A 
HETATM   16  C10 UNL     1      24.366   5.909  50.688  1.00  0.00     0.080 A 
HETATM   17  C11 UNL     1      24.566   7.278  50.599  1.00  0.00     0.119 A 
HETATM   18  F1  UNL     1      23.646   8.066  51.199  1.00  0.00    -0.206 F 
HETATM   19  C12 UNL     1      25.680   7.702  49.907  1.00  0.00     0.043 A 
HETATM   20  C13 UNL     1      26.555   6.802  49.332  1.00  0.00     0.012 A 
HETATM   21  C14 UNL     1      26.324   5.429  49.442  1.00  0.00    -0.028 A 
HETATM   22  C15 UNL     1      27.236   4.443  48.841  1.00  0.00     0.051 C 
ENDBRANCH  14  15
ENDBRANCH   4  14
BRANCH   3  23
HETATM   23  O1  UNL     1      22.054   2.429  50.861  1.00  0.00    -0.358 OA
HETATM   24  H7  UNL     1      21.182   2.820  51.118  1.00  0.00     0.217 HD
ENDBRANCH   3  23
TORSDOF 5
ENDMDL
MODEL 8
REMARK VINA RESULT:      -7.1      2.782      4.665
REMARK  5 active torsions:
REMARK  status: ('A' for Active; 'I' for Inactive)
REMARK    1  A    between atoms: C4_4  and  N1_5 
REMARK    2  A    between atoms: N1_5  and  C5_6 
REMARK    3  A    between atoms: C7_8  and  O1_9 
REMARK    4  A    between atoms: C8_10  and  O2_11 
REMARK    5  A    between atoms: O2_11  and  C9_12 
ROOT
HETATM    1  C5  UNL     1      25.186   2.157  52.591  1.00  0.00     0.073 A 
HETATM    2  C6  UNL     1      26.176   2.428  53.461  1.00  0.00     0.072 A 
HETATM    3  C7  UNL     1      25.987   1.089  54.064  1.00  0.00     0.104 A 
HETATM    4  C8  UNL     1      25.014   0.841  53.199  1.00  0.00     0.136 A 
ENDROOT
BRANCH   1   5
HETATM    5  N1  UNL     1      24.453   2.676  51.518  1.00  0.00    -0.339 N 
HETATM    6  H5  UNL     1      23.572   2.267  51.123  1.00  0.00     0.167 HD
BRANCH   5   7
HETATM    7  C4  UNL     1      24.915   3.861  50.883  1.00  0.00     0.131 A 
HETATM    8  C3  UNL     1      26.025   3.820  50.082  1.00  0.00     0.077 A 
HETATM    9  C2  UNL     1      26.542   4.923  49.428  1.00  0.00     0.035 A 
HETATM   10  C1  UNL     1      27.736   4.907  48.558  1.00  0.00     0.070 C 
HETATM   11  N3  UNL     1      25.878   6.087  49.623  1.00  0.00    -0.247 NA
HETATM   12  C16 UNL     1      24.777   6.177  50.407  1.00  0.00     0.235 A 
HETATM   13  N2  UNL     1      24.321   5.066  51.017  1.00  0.00    -0.224 NA
ENDBRANCH   5   7
ENDBRANCH   1   5
BRANCH   4  14
HETATM   14  O2  UNL     1      24.346  -0.378  53.234  1.00  0.00    -0.305 OA
BRANCH  14  15
HETATM   15  C9  UNL     1      22.986  -0.461  53.329  1.00  0.00     0.085 A 
HETATM   16  C10 UNL     1      22.111  -0.049  52.332  1.00  0.00     0.080 A 
HETATM   17  C11 UNL     1      20.729  -0.127  52.415  1.00  0.00     0.119 A 
HETATM   18  F1  UNL     1      20.031   0.320  51.348  1.00  0.00    -0.206 F 
HETATM   19  C12 UNL     1      20.203  -0.651  53.577  1.00  0.00     0.043 A 
HETATM   20  C13 UNL     1      21.018  -1.078  54.606  1.00  0.00     0.012 A 
HETATM   21  C14 UNL     1      22.406  -0.986  54.489  1.00  0.00    -0.028 A 
HETATM   22  C15 UNL     1      23.303  -1.431  55.567  1.00  0.00     0.051 C 
ENDBRANCH  14  15
ENDBRANCH   4  14
BRANCH   3  23
HETATM   23  O1  UNL     1      26.757   0.676  55.112  1.00  0.00    -0.358 OA
HETATM   24  H7  UNL     1      27.547   0.082  55.103  1.00  0.00     0.217 HD
ENDBRANCH   3  23
TORSDOF 5
ENDMDL
MODEL 9
REMARK VINA RESULT:      -6.9      2.960      4.427
REMARK  5 active torsions:
REMARK  status: ('A' for Active; 'I' for Inactive)
REMARK    1  A    between atoms: C4_4  and  N1_5 
REMARK    2  A    between atoms: N1_5  and  C5_6 
REMARK    3  A    between atoms: C7_8  and  O1_9 
REMARK    4  A    between atoms: C8_10  and  O2_11 
REMARK    5  A    between atoms: O2_11  and  C9_12 
ROOT
HETATM    1  C5  UNL     1      24.576   0.414  52.708  1.00  0.00     0.073 A 
HETATM    2  C6  UNL     1      24.171  -0.255  53.801  1.00  0.00     0.072 A 
HETATM    3  C7  UNL     1      22.774   0.127  53.496  1.00  0.00     0.104 A 
HETATM    4  C8  UNL     1      23.192   0.782  52.422  1.00  0.00     0.136 A 
ENDROOT
BRANCH   1   5
HETATM    5  N1  UNL     1      25.699   0.770  51.953  1.00  0.00    -0.339 N 
HETATM    6  H5  UNL     1      25.719   0.915  50.915  1.00  0.00     0.167 HD
BRANCH   5   7
HETATM    7  C4  UNL     1      26.940   0.957  52.620  1.00  0.00     0.131 A 
HETATM    8  C3  UNL     1      27.747  -0.117  52.880  1.00  0.00     0.077 A 
HETATM    9  C2  UNL     1      28.967  -0.025  53.524  1.00  0.00     0.035 A 
HETATM   10  C1  UNL     1      29.858  -1.167  53.817  1.00  0.00     0.070 C 
HETATM   11  N3  UNL     1      29.341   1.221  53.898  1.00  0.00    -0.247 NA
HETATM   12  C16 UNL     1      28.577   2.315  53.663  1.00  0.00     0.235 A 
HETATM   13  N2  UNL     1      27.397   2.160  53.031  1.00  0.00    -0.224 NA
ENDBRANCH   5   7
ENDBRANCH   1   5
BRANCH   4  14
HETATM   14  O2  UNL     1      22.276   1.439  51.609  1.00  0.00    -0.305 OA
BRANCH  14  15
HETATM   15  C9  UNL     1      22.660   2.366  50.681  1.00  0.00     0.085 A 
HETATM   16  C10 UNL     1      23.421   3.490  50.976  1.00  0.00     0.080 A 
HETATM   17  C11 UNL     1      23.818   4.438  50.045  1.00  0.00     0.119 A 
HETATM   18  F1  UNL     1      24.558   5.470  50.508  1.00  0.00    -0.206 F 
HETATM   19  C12 UNL     1      23.420   4.236  48.741  1.00  0.00     0.043 A 
HETATM   20  C13 UNL     1      22.662   3.140  48.382  1.00  0.00     0.012 A 
HETATM   21  C14 UNL     1      22.280   2.203  49.345  1.00  0.00    -0.028 A 
HETATM   22  C15 UNL     1      21.472   1.024  48.997  1.00  0.00     0.051 C 
ENDBRANCH  14  15
ENDBRANCH   4  14
BRANCH   3  23
HETATM   23  O1  UNL     1      21.745  -0.272  54.299  1.00  0.00    -0.358 OA
HETATM   24  H7  UNL     1      20.776  -0.282  54.104  1.00  0.00     0.217 HD
ENDBRANCH   3  23
TORSDOF 5
ENDMDL
