MODEL 1
REMARK VINA RESULT:      -7.8      0.000      0.000
REMARK  6 active torsions:
REMARK  status: ('A' for Active; 'I' for Inactive)
REMARK    1  A    between atoms: C2_2  and  C3_3 
REMARK    2  A    between atoms: C2_2  and  C12_14 
REMARK    3  A    between atoms: C4_4  and  C5_5 
REMARK    4  A    between atoms: C5_5  and  N1_6 
REMARK    5  A    between atoms: C5_5  and  C6_7 
REMARK    6  A    between atoms: C12_14  and  C13_15 
ROOT
HETATM    1  C3  UNL     1      23.318   1.825  52.857  1.00  0.00     0.005 C 
HETATM    2  C4  UNL     1      23.343   2.742  51.932  1.00  0.00     0.013 C 
ENDROOT
BRANCH   2   3
HETATM    3  C5  UNL     1      23.643   4.155  51.680  1.00  0.00     0.273 C 
BRANCH   3   4
HETATM    4  N1  UNL     1      23.954   4.801  52.927  1.00  0.00     0.090 N 
HETATM    5  H6  UNL     1      23.614   5.793  52.963  1.00  0.00     0.314 HD
HETATM    6  H7  UNL     1      25.011   4.801  53.033  1.00  0.00     0.314 HD
ENDBRANCH   3   4
BRANCH   3   7
HETATM    7  C6  UNL     1      24.794   4.324  50.726  1.00  0.00    -0.021 A 
HETATM    8  C7  UNL     1      25.590   3.231  50.421  1.00  0.00     0.010 A 
HETATM    9  C8  UNL     1      26.668   3.321  49.547  1.00  0.00     0.002 A 
HETATM   10  C9  UNL     1      26.962   4.553  48.954  1.00  0.00     0.019 A 
HETATM   11  C10 UNL     1      26.150   5.615  49.281  1.00  0.00     0.011 A 
HETATM   12 BR1  UNL     1      26.600   7.276  48.440  1.00  0.00    -0.051 Br
HETATM   13  C11 UNL     1      25.082   5.539  50.143  1.00  0.00     0.028 A 
ENDBRANCH   3   7
ENDBRANCH   2   3
BRANCH   1  14
HETATM   14  C2  UNL     1      22.958   0.412  52.843  1.00  0.00    -0.064 C 
HETATM   15  C1  UNL     1      22.113   0.119  51.897  1.00  0.00     0.019 C 
BRANCH  14  16
HETATM   16  C12 UNL     1      23.679  -0.286  53.931  1.00  0.00     0.076 C 
BRANCH  16  17
HETATM   17  C13 UNL     1      25.141  -0.285  53.748  1.00  0.00    -0.054 A 
HETATM   18  C14 UNL     1      25.950   0.060  54.833  1.00  0.00     0.009 A 
HETATM   19  C15 UNL     1      27.330   0.111  54.831  1.00  0.00     0.019 A 
HETATM   20  C16 UNL     1      27.929  -0.219  53.621  1.00  0.00     0.011 A 
HETATM   21 BR2  UNL     1      29.830  -0.169  53.550  1.00  0.00    -0.051 Br
HETATM   22  C17 UNL     1      27.196  -0.565  52.525  1.00  0.00     0.019 A 
HETATM   23  C18 UNL     1      25.803  -0.607  52.557  1.00  0.00     0.009 A 
ENDBRANCH  16  17
ENDBRANCH  14  16
ENDBRANCH   1  14
TORSDOF 6
ENDMDL
MODEL 2
REMARK VINA RESULT:      -7.7      2.944      6.121
REMARK  6 active torsions:
REMARK  status: ('A' for Active; 'I' for Inactive)
REMARK    1  A    between atoms: C2_2  and  C3_3 
REMARK    2  A    between atoms: C2_2  and  C12_14 
REMARK    3  A    between atoms: C4_4  and  C5_5 
REMARK    4  A    between atoms: C5_5  and  N1_6 
REMARK    5  A    between atoms: C5_5  and  C6_7 
REMARK    6  A    between atoms: C12_14  and  C13_15 
ROOT
HETATM    1  C3  UNL     1      26.181  -0.671  53.620  1.00  0.00     0.005 C 
HETATM    2  C4  UNL     1      25.137  -0.708  54.398  1.00  0.00     0.013 C 
ENDROOT
BRANCH   2   3
HETATM    3  C5  UNL     1      23.862  -1.396  54.629  1.00  0.00     0.273 C 
BRANCH   3   4
HETATM    4  N1  UNL     1      23.649  -1.536  56.044  1.00  0.00     0.090 N 
HETATM    5  H6  UNL     1      22.733  -1.132  56.356  1.00  0.00     0.314 HD
HETATM    6  H7  UNL     1      24.434  -1.018  56.539  1.00  0.00     0.314 HD
ENDBRANCH   3   4
BRANCH   3   7
HETATM    7  C6  UNL     1      22.705  -0.654  54.017  1.00  0.00    -0.021 A 
HETATM    8  C7  UNL     1      21.614  -0.327  54.806  1.00  0.00     0.010 A 
HETATM    9  C8  UNL     1      20.513   0.358  54.302  1.00  0.00     0.002 A 
HETATM   10  C9  UNL     1      20.503   0.729  52.954  1.00  0.00     0.019 A 
HETATM   11  C10 UNL     1      21.603   0.387  52.201  1.00  0.00     0.011 A 
HETATM   12 BR1  UNL     1      21.533   0.921  50.363  1.00  0.00    -0.051 Br
HETATM   13  C11 UNL     1      22.696  -0.289  52.688  1.00  0.00     0.028 A 
ENDBRANCH   3   7
ENDBRANCH   2   3
BRANCH   1  14
HETATM   14  C2  UNL     1      27.381   0.157  53.609  1.00  0.00    -0.064 C 
HETATM   15  C1  UNL     1      28.464  -0.532  53.395  1.00  0.00     0.019 C 
BRANCH  14  16
HETATM   16  C12 UNL     1      27.002   1.568  53.848  1.00  0.00     0.076 C 
BRANCH  16  17
HETATM   17  C13 UNL     1      26.266   2.166  52.720  1.00  0.00    -0.054 A 
HETATM   18  C14 UNL     1      24.971   2.642  52.944  1.00  0.00     0.009 A 
HETATM   19  C15 UNL     1      24.149   3.227  52.002  1.00  0.00     0.019 A 
HETATM   20  C16 UNL     1      24.696   3.334  50.728  1.00  0.00     0.011 A 
HETATM   21 BR2  UNL     1      23.614   4.132  49.382  1.00  0.00    -0.051 Br
HETATM   22  C17 UNL     1      25.952   2.890  50.445  1.00  0.00     0.019 A 
HETATM   23  C18 UNL     1      26.760   2.302  51.417  1.00  0.00     0.009 A 
ENDBRANCH  16  17
ENDBRANCH  14  16
ENDBRANCH   1  14
TORSDOF 6
ENDMDL
MODEL 3
REMARK VINA RESULT:      -7.5      1.778      6.103
REMARK  6 active torsions:
REMARK  status: ('A' for Active; 'I' for Inactive)
REMARK    1  A    between atoms: C2_2  and  C3_3 
REMARK    2  A    between atoms: C2_2  and  C12_14 
REMARK    3  A    between atoms: C4_4  and  C5_5 
REMARK    4  A    between atoms: C5_5  and  N1_6 
REMARK    5  A    between atoms: C5_5  and  C6_7 
REMARK    6  A    between atoms: C12_14  and  C13_15 
ROOT
HETATM    1  C3  UNL     1      23.790   3.109  52.501  1.00  0.00     0.005 C 
HETATM    2  C4  UNL     1      24.190   1.873  52.602  1.00  0.00     0.013 C 
ENDROOT
BRANCH   2   3
HETATM    3  C5  UNL     1      24.786   0.899  53.522  1.00  0.00     0.273 C 
BRANCH   3   4
HETATM    4  N1  UNL     1      24.351  -0.423  53.157  1.00  0.00     0.090 N 
HETATM    5  H6  UNL     1      24.983  -1.173  53.530  1.00  0.00     0.314 HD
HETATM    6  H7  UNL     1      24.350  -0.478  52.096  1.00  0.00     0.314 HD
ENDBRANCH   3   4
BRANCH   3   7
HETATM    7  C6  UNL     1      26.289   0.957  53.507  1.00  0.00    -0.021 A 
HETATM    8  C7  UNL     1      26.922   2.189  53.520  1.00  0.00     0.010 A 
HETATM    9  C8  UNL     1      28.307   2.311  53.507  1.00  0.00     0.002 A 
HETATM   10  C9  UNL     1      29.091   1.153  53.480  1.00  0.00     0.019 A 
HETATM   11  C10 UNL     1      28.428  -0.052  53.468  1.00  0.00     0.011 A 
HETATM   12 BR1  UNL     1      29.553  -1.602  53.431  1.00  0.00    -0.051 Br
HETATM   13  C11 UNL     1      27.060  -0.185  53.480  1.00  0.00     0.028 A 
ENDBRANCH   3   7
ENDBRANCH   2   3
BRANCH   1  14
HETATM   14  C2  UNL     1      23.199   3.873  51.409  1.00  0.00    -0.064 C 
HETATM   15  C1  UNL     1      22.406   4.816  51.830  1.00  0.00     0.019 C 
BRANCH  14  16
HETATM   16  C12 UNL     1      23.688   3.339  50.119  1.00  0.00     0.076 C 
BRANCH  16  17
HETATM   17  C13 UNL     1      24.903   4.020  49.636  1.00  0.00    -0.054 A 
HETATM   18  C14 UNL     1      24.797   5.340  49.193  1.00  0.00     0.009 A 
HETATM   19  C15 UNL     1      25.832   6.119  48.712  1.00  0.00     0.019 A 
HETATM   20  C16 UNL     1      27.073   5.495  48.683  1.00  0.00     0.011 A 
HETATM   21 BR2  UNL     1      28.543   6.513  48.031  1.00  0.00    -0.051 Br
HETATM   22  C17 UNL     1      27.243   4.209  49.101  1.00  0.00     0.019 A 
HETATM   23  C18 UNL     1      26.179   3.447  49.582  1.00  0.00     0.009 A 
ENDBRANCH  16  17
ENDBRANCH  14  16
ENDBRANCH   1  14
TORSDOF 6
ENDMDL
MODEL 4
REMARK VINA RESULT:      -7.5      1.482      2.281
REMARK  6 active torsions:
REMARK  status: ('A' for Active; 'I' for Inactive)
REMARK    1  A    between atoms: C2_2  and  C3_3 
REMARK    2  A    between atoms: C2_2  and  C12_14 
REMARK    3  A    between atoms: C4_4  and  C5_5 
REMARK    4  A    between atoms: C5_5  and  N1_6 
REMARK    5  A    between atoms: C5_5  and  C6_7 
REMARK    6  A    between atoms: C12_14  and  C13_15 
ROOT
HETATM    1  C3  UNL     1      23.814   3.843  51.575  1.00  0.00     0.005 C 
HETATM    2  C4  UNL     1      24.328   4.578  50.631  1.00  0.00     0.013 C 
ENDROOT
BRANCH   2   3
HETATM    3  C5  UNL     1      24.675   5.955  50.265  1.00  0.00     0.273 C 
BRANCH   3   4
HETATM    4  N1  UNL     1      24.738   6.759  51.456  1.00  0.00     0.090 N 
HETATM    5  H6  UNL     1      24.882   6.185  52.323  1.00  0.00     0.314 HD
HETATM    6  H7  UNL     1      23.814   7.276  51.542  1.00  0.00     0.314 HD
ENDBRANCH   3   4
BRANCH   3   7
HETATM    7  C6  UNL     1      25.990   6.030  49.538  1.00  0.00    -0.021 A 
HETATM    8  C7  UNL     1      26.642   4.857  49.190  1.00  0.00     0.010 A 
HETATM    9  C8  UNL     1      27.859   4.858  48.517  1.00  0.00     0.002 A 
HETATM   10  C9  UNL     1      28.448   6.080  48.180  1.00  0.00     0.019 A 
HETATM   11  C10 UNL     1      27.773   7.223  48.542  1.00  0.00     0.011 A 
HETATM   12 BR1  UNL     1      28.627   8.866  48.054  1.00  0.00    -0.051 Br
HETATM   13  C11 UNL     1      26.570   7.235  49.207  1.00  0.00     0.028 A 
ENDBRANCH   3   7
ENDBRANCH   2   3
BRANCH   1  14
HETATM   14  C2  UNL     1      23.568   2.411  51.695  1.00  0.00    -0.064 C 
HETATM   15  C1  UNL     1      23.153   1.879  50.582  1.00  0.00     0.019 C 
BRANCH  14  16
HETATM   16  C12 UNL     1      23.873   1.977  53.077  1.00  0.00     0.076 C 
BRANCH  16  17
HETATM   17  C13 UNL     1      25.220   1.396  53.215  1.00  0.00    -0.054 A 
HETATM   18  C14 UNL     1      25.414   0.064  52.844  1.00  0.00     0.009 A 
HETATM   19  C15 UNL     1      26.606  -0.631  52.910  1.00  0.00     0.019 A 
HETATM   20  C16 UNL     1      27.685   0.098  53.396  1.00  0.00     0.011 A 
HETATM   21 BR2  UNL     1      29.359  -0.800  53.513  1.00  0.00    -0.051 Br
HETATM   22  C17 UNL     1      27.562   1.401  53.775  1.00  0.00     0.019 A 
HETATM   23  C18 UNL     1      26.345   2.076  53.697  1.00  0.00     0.009 A 
ENDBRANCH  16  17
ENDBRANCH  14  16
ENDBRANCH   1  14
TORSDOF 6
ENDMDL
MODEL 5
REMARK VINA RESULT:      -7.4      2.142      5.950
REMARK  6 active torsions:
REMARK  status: ('A' for Active; 'I' for Inactive)
REMARK    1  A    between atoms: C2_2  and  C3_3 
REMARK    2  A    between atoms: C2_2  and  C12_14 
REMARK    3  A    between atoms: C4_4  and  C5_5 
REMARK    4  A    between atoms: C5_5  and  N1_6 
REMARK    5  A    between atoms: C5_5  and  C6_7 
REMARK    6  A    between atoms: C12_14  and  C13_15 
ROOT
HETATM    1  C3  UNL     1      22.728   1.829  50.124  1.00  0.00     0.005 C 
HETATM    2  C4  UNL     1      22.728   1.956  51.421  1.00  0.00     0.013 C 
ENDROOT
BRANCH   2   3
HETATM    3  C5  UNL     1      22.640   1.206  52.678  1.00  0.00     0.273 C 
BRANCH   3   4
HETATM    4  N1  UNL     1      21.827   0.037  52.476  1.00  0.00     0.090 N 
HETATM    5  H6  UNL     1      21.375  -0.298  53.361  1.00  0.00     0.314 HD
HETATM    6  H7  UNL     1      22.459  -0.732  52.106  1.00  0.00     0.314 HD
ENDBRANCH   3   4
BRANCH   3   7
HETATM    7  C6  UNL     1      23.996   0.795  53.185  1.00  0.00    -0.021 A 
HETATM    8  C7  UNL     1      24.131  -0.404  53.866  1.00  0.00     0.010 A 
HETATM    9  C8  UNL     1      25.356  -0.841  54.360  1.00  0.00     0.002 A 
HETATM   10  C9  UNL     1      26.490  -0.047  54.163  1.00  0.00     0.019 A 
HETATM   11  C10 UNL     1      26.317   1.136  53.483  1.00  0.00     0.011 A 
HETATM   12 BR1  UNL     1      27.904   2.181  53.244  1.00  0.00    -0.051 Br
HETATM   13  C11 UNL     1      25.112   1.579  52.991  1.00  0.00     0.028 A 
ENDBRANCH   3   7
ENDBRANCH   2   3
BRANCH   1  14
HETATM   14  C2  UNL     1      22.837   2.791  49.034  1.00  0.00    -0.064 C 
HETATM   15  C1  UNL     1      22.551   2.270  47.876  1.00  0.00     0.019 C 
BRANCH  14  16
HETATM   16  C12 UNL     1      23.248   4.103  49.581  1.00  0.00     0.076 C 
BRANCH  16  17
HETATM   17  C13 UNL     1      24.658   4.428  49.299  1.00  0.00    -0.054 A 
HETATM   18  C14 UNL     1      24.963   5.694  48.792  1.00  0.00     0.009 A 
HETATM   19  C15 UNL     1      26.225   6.157  48.475  1.00  0.00     0.019 A 
HETATM   20  C16 UNL     1      27.257   5.252  48.696  1.00  0.00     0.011 A 
HETATM   21 BR2  UNL     1      29.022   5.828  48.280  1.00  0.00    -0.051 Br
HETATM   22  C17 UNL     1      27.026   4.003  49.189  1.00  0.00     0.019 A 
HETATM   23  C18 UNL     1      25.740   3.563  49.499  1.00  0.00     0.009 A 
ENDBRANCH  16  17
ENDBRANCH  14  16
ENDBRANCH   1  14
TORSDOF 6
ENDMDL
MODEL 6
REMARK VINA RESULT:      -7.3      2.833      5.991
REMARK  6 active torsions:
REMARK  status: ('A' for Active; 'I' for Inactive)
REMARK    1  A    between atoms: C2_2  and  C3_3 
REMARK    2  A    between atoms: C2_2  and  C12_14 
REMARK    3  A    between atoms: C4_4  and  C5_5 
REMARK    4  A    between atoms: C5_5  and  N1_6 
REMARK    5  A    between atoms: C5_5  and  C6_7 
REMARK    6  A    between atoms: C12_14  and  C13_15 
ROOT
HETATM    1  C3  UNL     1      24.641  -0.513  53.931  1.00  0.00     0.005 C 
HETATM    2  C4  UNL     1      23.459  -0.680  53.409  1.00  0.00     0.013 C 
ENDROOT
BRANCH   2   3
HETATM    3  C5  UNL     1      22.066  -1.010  53.728  1.00  0.00     0.273 C 
BRANCH   3   4
HETATM    4  N1  UNL     1      21.752  -0.518  55.042  1.00  0.00     0.090 N 
HETATM    5  H6  UNL     1      21.991   0.497  55.161  1.00  0.00     0.314 HD
HETATM    6  H7  UNL     1      22.320  -1.083  55.740  1.00  0.00     0.314 HD
ENDBRANCH   3   4
BRANCH   3   7
HETATM    7  C6  UNL     1      21.106  -0.423  52.728  1.00  0.00    -0.021 A 
HETATM    8  C7  UNL     1      19.743  -0.517  52.959  1.00  0.00     0.010 A 
HETATM    9  C8  UNL     1      18.804   0.004  52.075  1.00  0.00     0.002 A 
HETATM   10  C9  UNL     1      19.247   0.644  50.914  1.00  0.00     0.019 A 
HETATM   11  C10 UNL     1      20.606   0.718  50.718  1.00  0.00     0.011 A 
HETATM   12 BR1  UNL     1      21.154   1.605  49.111  1.00  0.00    -0.051 Br
HETATM   13  C11 UNL     1      21.544   0.207  51.584  1.00  0.00     0.028 A 
ENDBRANCH   3   7
ENDBRANCH   2   3
BRANCH   1  14
HETATM   14  C2  UNL     1      25.937  -0.166  53.359  1.00  0.00    -0.064 C 
HETATM   15  C1  UNL     1      26.547  -1.192  52.841  1.00  0.00     0.019 C 
BRANCH  14  16
HETATM   16  C12 UNL     1      26.178   1.283  53.541  1.00  0.00     0.076 C 
BRANCH  16  17
HETATM   17  C13 UNL     1      25.706   2.093  52.403  1.00  0.00    -0.054 A 
HETATM   18  C14 UNL     1      24.454   2.706  52.494  1.00  0.00     0.009 A 
HETATM   19  C15 UNL     1      23.866   3.494  51.524  1.00  0.00     0.019 A 
HETATM   20  C16 UNL     1      24.621   3.668  50.370  1.00  0.00     0.011 A 
HETATM   21 BR2  UNL     1      23.868   4.743  48.993  1.00  0.00    -0.051 Br
HETATM   22  C17 UNL     1      25.849   3.096  50.219  1.00  0.00     0.019 A 
HETATM   23  C18 UNL     1      26.417   2.305  51.216  1.00  0.00     0.009 A 
ENDBRANCH  16  17
ENDBRANCH  14  16
ENDBRANCH   1  14
TORSDOF 6
ENDMDL
MODEL 7
REMARK VINA RESULT:      -7.3      1.558      1.970
REMARK  6 active torsions:
REMARK  status: ('A' for Active; 'I' for Inactive)
REMARK    1  A    between atoms: C2_2  and  C3_3 
REMARK    2  A    between atoms: C2_2  and  C12_14 
REMARK    3  A    between atoms: C4_4  and  C5_5 
REMARK    4  A    between atoms: C5_5  and  N1_6 
REMARK    5  A    between atoms: C5_5  and  C6_7 
REMARK    6  A    between atoms: C12_14  and  C13_15 
ROOT
HETATM    1  C3  UNL     1      22.630   1.043  51.487  1.00  0.00     0.005 C 
HETATM    2  C4  UNL     1      23.140   1.971  50.728  1.00  0.00     0.013 C 
ENDROOT
BRANCH   2   3
HETATM    3  C5  UNL     1      22.945   2.709  49.476  1.00  0.00     0.273 C 
BRANCH   3   4
HETATM    4  N1  UNL     1      21.661   3.357  49.504  1.00  0.00     0.090 N 
HETATM    5  H6  UNL     1      21.026   3.027  48.737  1.00  0.00     0.314 HD
HETATM    6  H7  UNL     1      21.826   4.399  49.383  1.00  0.00     0.314 HD
ENDBRANCH   3   4
BRANCH   3   7
HETATM    7  C6  UNL     1      24.022   3.736  49.254  1.00  0.00    -0.021 A 
HETATM    8  C7  UNL     1      25.337   3.415  49.549  1.00  0.00     0.010 A 
HETATM    9  C8  UNL     1      26.379   4.318  49.367  1.00  0.00     0.002 A 
HETATM   10  C9  UNL     1      26.093   5.594  48.870  1.00  0.00     0.019 A 
HETATM   11  C10 UNL     1      24.777   5.876  48.589  1.00  0.00     0.011 A 
HETATM   12 BR1  UNL     1      24.445   7.637  47.912  1.00  0.00    -0.051 Br
HETATM   13  C11 UNL     1      23.738   4.992  48.765  1.00  0.00     0.028 A 
ENDBRANCH   3   7
ENDBRANCH   2   3
BRANCH   1  14
HETATM   14  C2  UNL     1      23.046   0.462  52.758  1.00  0.00    -0.064 C 
HETATM   15  C1  UNL     1      22.472  -0.682  52.998  1.00  0.00     0.019 C 
BRANCH  14  16
HETATM   16  C12 UNL     1      24.020   1.364  53.412  1.00  0.00     0.076 C 
BRANCH  16  17
HETATM   17  C13 UNL     1      25.363   0.770  53.537  1.00  0.00    -0.054 A 
HETATM   18  C14 UNL     1      25.966   0.236  52.396  1.00  0.00     0.009 A 
HETATM   19  C15 UNL     1      27.213  -0.355  52.339  1.00  0.00     0.019 A 
HETATM   20  C16 UNL     1      27.896  -0.403  53.549  1.00  0.00     0.011 A 
HETATM   21 BR2  UNL     1      29.622  -1.205  53.541  1.00  0.00    -0.051 Br
HETATM   22  C17 UNL     1      27.363   0.100  54.698  1.00  0.00     0.019 A 
HETATM   23  C18 UNL     1      26.101   0.691  54.724  1.00  0.00     0.009 A 
ENDBRANCH  16  17
ENDBRANCH  14  16
ENDBRANCH   1  14
TORSDOF 6
ENDMDL
MODEL 8
REMARK VINA RESULT:      -7.3      3.138      5.666
REMARK  6 active torsions:
REMARK  status: ('A' for Active; 'I' for Inactive)
REMARK    1  A    between atoms: C2_2  and  C3_3 
REMARK    2  A    between atoms: C2_2  and  C12_14 
REMARK    3  A    between atoms: C4_4  and  C5_5 
REMARK    4  A    between atoms: C5_5  and  N1_6 
REMARK    5  A    between atoms: C5_5  and  C6_7 
REMARK    6  A    between atoms: C12_14  and  C13_15 
ROOT
HETATM    1  C3  UNL     1      23.570   2.907  50.640  1.00  0.00     0.005 C 
HETATM    2  C4  UNL     1      22.788   1.916  50.318  1.00  0.00     0.013 C 
ENDROOT
BRANCH   2   3
HETATM    3  C5  UNL     1      21.419   1.575  49.918  1.00  0.00     0.273 C 
BRANCH   3   4
HETATM    4  N1  UNL     1      21.460   0.770  48.727  1.00  0.00     0.090 N 
HETATM    5  H6  UNL     1      21.744  -0.221  48.920  1.00  0.00     0.314 HD
HETATM    6  H7  UNL     1      22.174   1.205  48.071  1.00  0.00     0.314 HD
ENDBRANCH   3   4
BRANCH   3   7
HETATM    7  C6  UNL     1      20.685   0.833  51.002  1.00  0.00    -0.021 A 
HETATM    8  C7  UNL     1      19.309   0.690  50.915  1.00  0.00     0.010 A 
HETATM    9  C8  UNL     1      18.572   0.016  51.883  1.00  0.00     0.002 A 
HETATM   10  C9  UNL     1      19.238  -0.536  52.981  1.00  0.00     0.019 A 
HETATM   11  C10 UNL     1      20.602  -0.374  53.034  1.00  0.00     0.011 A 
HETATM   12 BR1  UNL     1      21.459  -1.151  54.561  1.00  0.00    -0.051 Br
HETATM   13  C11 UNL     1      21.342   0.290  52.084  1.00  0.00     0.028 A 
ENDBRANCH   3   7
ENDBRANCH   2   3
BRANCH   1  14
HETATM   14  C2  UNL     1      24.976   2.980  51.017  1.00  0.00    -0.064 C 
HETATM   15  C1  UNL     1      25.745   3.316  50.022  1.00  0.00     0.019 C 
BRANCH  14  16
HETATM   16  C12 UNL     1      25.115   2.642  52.451  1.00  0.00     0.076 C 
BRANCH  16  17
HETATM   17  C13 UNL     1      26.233   1.721  52.721  1.00  0.00    -0.054 A 
HETATM   18  C14 UNL     1      26.078   0.370  52.400  1.00  0.00     0.009 A 
HETATM   19  C15 UNL     1      27.021  -0.621  52.587  1.00  0.00     0.019 A 
HETATM   20  C16 UNL     1      28.219  -0.194  53.147  1.00  0.00     0.011 A 
HETATM   21 BR2  UNL     1      29.563  -1.511  53.432  1.00  0.00    -0.051 Br
HETATM   22  C17 UNL     1      28.434   1.109  53.483  1.00  0.00     0.019 A 
HETATM   23  C18 UNL     1      27.462   2.088  53.282  1.00  0.00     0.009 A 
ENDBRANCH  16  17
ENDBRANCH  14  16
ENDBRANCH   1  14
TORSDOF 6
ENDMDL
MODEL 9
REMARK VINA RESULT:      -7.2      3.670      6.107
REMARK  6 active torsions:
REMARK  status: ('A' for Active; 'I' for Inactive)
REMARK    1  A    between atoms: C2_2  and  C3_3 
REMARK    2  A    between atoms: C2_2  and  C12_14 
REMARK    3  A    between atoms: C4_4  and  C5_5 
REMARK    4  A    between atoms: C5_5  and  N1_6 
REMARK    5  A    between atoms: C5_5  and  C6_7 
REMARK    6  A    between atoms: C12_14  and  C13_15 
ROOT
HETATM    1  C3  UNL     1      22.620   1.253  53.054  1.00  0.00     0.005 C 
HETATM    2  C4  UNL     1      21.906   0.166  52.980  1.00  0.00     0.013 C 
ENDROOT
BRANCH   2   3
HETATM    3  C5  UNL     1      20.881  -0.621  53.672  1.00  0.00     0.273 C 
BRANCH   3   4
HETATM    4  N1  UNL     1      20.740  -0.133  55.018  1.00  0.00     0.090 N 
HETATM    5  H6  UNL     1      20.311  -0.842  55.661  1.00  0.00     0.314 HD
HETATM    6  H7  UNL     1      20.108   0.720  54.985  1.00  0.00     0.314 HD
ENDBRANCH   3   4
BRANCH   3   7
HETATM    7  C6  UNL     1      19.551  -0.554  52.971  1.00  0.00    -0.021 A 
HETATM    8  C7  UNL     1      18.511  -1.359  53.408  1.00  0.00     0.010 A 
HETATM    9  C8  UNL     1      17.259  -1.345  52.804  1.00  0.00     0.002 A 
HETATM   10  C9  UNL     1      17.038  -0.492  51.718  1.00  0.00     0.019 A 
HETATM   11  C10 UNL     1      18.093   0.292  51.312  1.00  0.00     0.011 A 
HETATM   12 BR1  UNL     1      17.733   1.440  49.822  1.00  0.00    -0.051 Br
HETATM   13  C11 UNL     1      19.336   0.287  51.901  1.00  0.00     0.028 A 
ENDBRANCH   3   7
ENDBRANCH   2   3
BRANCH   1  14
HETATM   14  C2  UNL     1      23.628   1.839  52.179  1.00  0.00    -0.064 C 
HETATM   15  C1  UNL     1      23.327   1.720  50.918  1.00  0.00     0.019 C 
BRANCH  14  16
HETATM   16  C12 UNL     1      24.717   2.410  53.002  1.00  0.00     0.076 C 
BRANCH  16  17
HETATM   17  C13 UNL     1      25.883   1.515  53.115  1.00  0.00    -0.054 A 
HETATM   18  C14 UNL     1      27.116   2.067  53.474  1.00  0.00     0.009 A 
HETATM   19  C15 UNL     1      28.301   1.374  53.623  1.00  0.00     0.019 A 
HETATM   20  C16 UNL     1      28.216   0.007  53.387  1.00  0.00     0.011 A 
HETATM   21 BR2  UNL     1      29.815  -1.008  53.576  1.00  0.00    -0.051 Br
HETATM   22  C17 UNL     1      27.044  -0.592  53.034  1.00  0.00     0.019 A 
HETATM   23  C18 UNL     1      25.863   0.134  52.890  1.00  0.00     0.009 A 
ENDBRANCH  16  17
ENDBRANCH  14  16
ENDBRANCH   1  14
TORSDOF 6
ENDMDL
