MODEL 1
REMARK VINA RESULT:      -8.5      0.000      0.000
REMARK  6 active torsions:
REMARK  status: ('A' for Active; 'I' for Inactive)
REMARK    1  A    between atoms: C3_3  and  O1_4 
REMARK    2  A    between atoms: O1_4  and  C4_5 
REMARK    3  A    between atoms: C8_11  and  N3_12 
REMARK    4  A    between atoms: N3_12  and  C9_13 
REMARK    5  A    between atoms: C17_23  and  C18_24 
REMARK    6  A    between atoms: C18_24  and  N4_26 
ROOT
HETATM    1  C1  UNL     1      16.884  -1.021  52.007  1.00  0.00     0.014 C 
HETATM    2  C2  UNL     1      17.798  -0.299  51.703  1.00  0.00    -0.091 C 
HETATM    3  C3  UNL     1      18.898   0.562  51.318  1.00  0.00     0.268 C 
ENDROOT
BRANCH   3   4
HETATM    4  O1  UNL     1      20.153  -0.078  51.461  1.00  0.00    -0.339 OA
BRANCH   4   5
HETATM    5  C4  UNL     1      21.338   0.562  51.737  1.00  0.00     0.080 A 
HETATM    6  C5  UNL     1      21.926   1.257  50.696  1.00  0.00     0.070 A 
HETATM    7  C6  UNL     1      23.117   1.915  50.912  1.00  0.00     0.074 A 
HETATM    8  N1  UNL     1      23.739   2.587  49.950  1.00  0.00    -0.241 NA
HETATM    9  C15 UNL     1      23.683   1.856  52.169  1.00  0.00     0.039 A 
HETATM   10  C7  UNL     1      24.891   3.224  50.101  1.00  0.00     0.236 A 
HETATM   11  N2  UNL     1      25.437   3.160  51.335  1.00  0.00    -0.224 NA
HETATM   12  C8  UNL     1      24.898   2.512  52.377  1.00  0.00     0.142 A 
HETATM   13  C16 UNL     1      23.110   1.169  53.212  1.00  0.00     0.029 A 
HETATM   14  C17 UNL     1      21.913   0.500  53.015  1.00  0.00    -0.002 A 
BRANCH  12  15
HETATM   15  N3  UNL     1      25.586   2.516  53.649  1.00  0.00    -0.340 N 
HETATM   16  H6  UNL     1      25.490   3.098  54.512  1.00  0.00     0.167 HD
BRANCH  15  17
HETATM   17  C9  UNL     1      26.524   1.437  53.434  1.00  0.00     0.035 A 
HETATM   18  C10 UNL     1      27.795   1.988  53.663  1.00  0.00     0.032 A 
HETATM   19  C11 UNL     1      28.942   1.190  53.542  1.00  0.00     0.046 A 
HETATM   20  C12 UNL     1      28.790  -0.134  53.198  1.00  0.00     0.138 A 
HETATM   21  F1  UNL     1      29.840  -0.978  53.058  1.00  0.00    -0.204 F 
HETATM   22  C13 UNL     1      27.537  -0.661  52.975  1.00  0.00     0.074 A 
HETATM   23 CL1  UNL     1      27.233  -2.326  52.532  1.00  0.00    -0.081 Cl
HETATM   24  C14 UNL     1      26.404   0.109  53.089  1.00  0.00     0.056 A 
ENDBRANCH  15  17
ENDBRANCH  12  15
BRANCH  14  25
HETATM   25  C18 UNL     1      21.153  -0.275  53.988  1.00  0.00     0.106 C 
HETATM   26  C19 UNL     1      22.089  -1.291  54.646  1.00  0.00     0.037 C 
BRANCH  25  27
HETATM   27  N4  UNL     1      20.522   0.470  55.032  1.00  0.00    -0.422 N 
HETATM   28  H15 UNL     1      19.534   0.226  55.238  1.00  0.00     0.150 HD
HETATM   29  H16 UNL     1      21.114   0.699  55.854  1.00  0.00     0.150 HD
ENDBRANCH  25  27
ENDBRANCH  14  25
ENDBRANCH   4   5
ENDBRANCH   3   4
TORSDOF 6
ENDMDL
MODEL 2
REMARK VINA RESULT:      -7.4      1.972      2.906
REMARK  6 active torsions:
REMARK  status: ('A' for Active; 'I' for Inactive)
REMARK    1  A    between atoms: C3_3  and  O1_4 
REMARK    2  A    between atoms: O1_4  and  C4_5 
REMARK    3  A    between atoms: C8_11  and  N3_12 
REMARK    4  A    between atoms: N3_12  and  C9_13 
REMARK    5  A    between atoms: C17_23  and  C18_24 
REMARK    6  A    between atoms: C18_24  and  N4_26 
ROOT
HETATM    1  C1  UNL     1      21.253   4.183  46.459  1.00  0.00     0.014 C 
HETATM    2  C2  UNL     1      21.075   3.252  47.201  1.00  0.00    -0.091 C 
HETATM    3  C3  UNL     1      20.841   2.137  48.097  1.00  0.00     0.268 C 
ENDROOT
BRANCH   3   4
HETATM    4  O1  UNL     1      20.993   2.502  49.457  1.00  0.00    -0.339 OA
BRANCH   4   5
HETATM    5  C4  UNL     1      22.190   2.554  50.131  1.00  0.00     0.080 A 
HETATM    6  C5  UNL     1      23.303   2.915  49.393  1.00  0.00     0.070 A 
HETATM    7  C6  UNL     1      24.531   2.980  50.014  1.00  0.00     0.074 A 
HETATM    8  N1  UNL     1      25.640   3.305  49.358  1.00  0.00    -0.241 NA
HETATM    9  C15 UNL     1      24.606   2.680  51.359  1.00  0.00     0.039 A 
HETATM   10  C7  UNL     1      26.845   3.368  49.903  1.00  0.00     0.236 A 
HETATM   11  N2  UNL     1      26.909   3.072  51.220  1.00  0.00    -0.224 NA
HETATM   12  C8  UNL     1      25.856   2.732  51.978  1.00  0.00     0.142 A 
HETATM   13  C16 UNL     1      23.508   2.320  52.103  1.00  0.00     0.029 A 
HETATM   14  C17 UNL     1      22.265   2.248  51.498  1.00  0.00    -0.002 A 
BRANCH  12  15
HETATM   15  N3  UNL     1      26.057   2.435  53.379  1.00  0.00    -0.340 N 
HETATM   16  H6  UNL     1      25.770   2.918  54.260  1.00  0.00     0.167 HD
BRANCH  15  17
HETATM   17  C9  UNL     1      26.818   1.210  53.273  1.00  0.00     0.035 A 
HETATM   18  C10 UNL     1      28.093   1.510  53.777  1.00  0.00     0.032 A 
HETATM   19  C11 UNL     1      29.085   0.519  53.823  1.00  0.00     0.046 A 
HETATM   20  C12 UNL     1      28.777  -0.742  53.365  1.00  0.00     0.138 A 
HETATM   21  F1  UNL     1      29.671  -1.760  53.370  1.00  0.00    -0.204 F 
HETATM   22  C13 UNL     1      27.522  -1.022  52.872  1.00  0.00     0.074 A 
HETATM   23 CL1  UNL     1      27.028  -2.587  52.265  1.00  0.00    -0.081 Cl
HETATM   24  C14 UNL     1      26.540  -0.062  52.820  1.00  0.00     0.056 A 
ENDBRANCH  15  17
ENDBRANCH  12  15
BRANCH  14  25
HETATM   25  C18 UNL     1      20.992   1.891  52.112  1.00  0.00     0.106 C 
HETATM   26  C19 UNL     1      21.265   0.997  53.323  1.00  0.00     0.037 C 
BRANCH  25  27
HETATM   27  N4  UNL     1      20.178   2.980  52.554  1.00  0.00    -0.422 N 
HETATM   28  H15 UNL     1      19.530   3.385  51.851  1.00  0.00     0.150 HD
HETATM   29  H16 UNL     1      19.813   2.915  53.524  1.00  0.00     0.150 HD
ENDBRANCH  25  27
ENDBRANCH  14  25
ENDBRANCH   4   5
ENDBRANCH   3   4
TORSDOF 6
ENDMDL
MODEL 3
REMARK VINA RESULT:      -7.3      4.293      7.045
REMARK  6 active torsions:
REMARK  status: ('A' for Active; 'I' for Inactive)
REMARK    1  A    between atoms: C3_3  and  O1_4 
REMARK    2  A    between atoms: O1_4  and  C4_5 
REMARK    3  A    between atoms: C8_11  and  N3_12 
REMARK    4  A    between atoms: N3_12  and  C9_13 
REMARK    5  A    between atoms: C17_23  and  C18_24 
REMARK    6  A    between atoms: C18_24  and  N4_26 
ROOT
HETATM    1  C1  UNL     1      28.769   0.529  54.744  1.00  0.00     0.014 C 
HETATM    2  C2  UNL     1      28.050  -0.086  54.000  1.00  0.00    -0.091 C 
HETATM    3  C3  UNL     1      27.187  -0.812  53.090  1.00  0.00     0.268 C 
ENDROOT
BRANCH   3   4
HETATM    4  O1  UNL     1      25.864  -0.309  53.092  1.00  0.00    -0.339 OA
BRANCH   4   5
HETATM    5  C4  UNL     1      25.433   0.782  52.374  1.00  0.00     0.080 A 
HETATM    6  C5  UNL     1      26.377   1.422  51.591  1.00  0.00     0.070 A 
HETATM    7  C6  UNL     1      26.005   2.523  50.852  1.00  0.00     0.074 A 
HETATM    8  N1  UNL     1      26.867   3.191  50.093  1.00  0.00    -0.241 NA
HETATM    9  C15 UNL     1      24.695   2.950  50.921  1.00  0.00     0.039 A 
HETATM   10  C7  UNL     1      26.565   4.262  49.376  1.00  0.00     0.236 A 
HETATM   11  N2  UNL     1      25.280   4.673  49.449  1.00  0.00    -0.224 NA
HETATM   12  C8  UNL     1      24.328   4.077  50.182  1.00  0.00     0.142 A 
HETATM   13  C16 UNL     1      23.747   2.324  51.695  1.00  0.00     0.029 A 
HETATM   14  C17 UNL     1      24.101   1.216  52.446  1.00  0.00    -0.002 A 
BRANCH  12  15
HETATM   15  N3  UNL     1      22.987   4.618  50.179  1.00  0.00    -0.340 N 
HETATM   16  H6  UNL     1      22.356   4.969  50.934  1.00  0.00     0.167 HD
BRANCH  15  17
HETATM   17  C9  UNL     1      22.689   4.552  48.765  1.00  0.00     0.035 A 
HETATM   18  C10 UNL     1      22.320   3.221  48.516  1.00  0.00     0.032 A 
HETATM   19  C11 UNL     1      21.958   2.820  47.222  1.00  0.00     0.046 A 
HETATM   20  C12 UNL     1      21.974   3.756  46.213  1.00  0.00     0.138 A 
HETATM   21  F1  UNL     1      21.640   3.459  44.934  1.00  0.00    -0.204 F 
HETATM   22  C13 UNL     1      22.339   5.058  46.472  1.00  0.00     0.074 A 
HETATM   23 CL1  UNL     1      22.394   6.324  45.265  1.00  0.00    -0.081 Cl
HETATM   24  C14 UNL     1      22.697   5.467  47.734  1.00  0.00     0.056 A 
ENDBRANCH  15  17
ENDBRANCH  12  15
BRANCH  14  25
HETATM   25  C18 UNL     1      23.248   0.419  53.318  1.00  0.00     0.106 C 
HETATM   26  C19 UNL     1      21.836   1.007  53.295  1.00  0.00     0.037 C 
BRANCH  25  27
HETATM   27  N4  UNL     1      23.142  -0.970  52.999  1.00  0.00    -0.422 N 
HETATM   28  H15 UNL     1      23.154  -1.629  53.802  1.00  0.00     0.150 HD
HETATM   29  H16 UNL     1      22.499  -1.214  52.222  1.00  0.00     0.150 HD
ENDBRANCH  25  27
ENDBRANCH  14  25
ENDBRANCH   4   5
ENDBRANCH   3   4
TORSDOF 6
ENDMDL
MODEL 4
REMARK VINA RESULT:      -7.2      8.452     10.906
REMARK  6 active torsions:
REMARK  status: ('A' for Active; 'I' for Inactive)
REMARK    1  A    between atoms: C3_3  and  O1_4 
REMARK    2  A    between atoms: O1_4  and  C4_5 
REMARK    3  A    between atoms: C8_11  and  N3_12 
REMARK    4  A    between atoms: N3_12  and  C9_13 
REMARK    5  A    between atoms: C17_23  and  C18_24 
REMARK    6  A    between atoms: C18_24  and  N4_26 
ROOT
HETATM    1  C1  UNL     1      26.800   8.686  44.181  1.00  0.00     0.014 C 
HETATM    2  C2  UNL     1      26.780   9.164  45.286  1.00  0.00    -0.091 C 
HETATM    3  C3  UNL     1      26.776   9.742  46.615  1.00  0.00     0.268 C 
ENDROOT
BRANCH   3   4
HETATM    4  O1  UNL     1      27.102   8.791  47.612  1.00  0.00    -0.339 OA
BRANCH   4   5
HETATM    5  C4  UNL     1      28.361   8.286  47.839  1.00  0.00     0.080 A 
HETATM    6  C5  UNL     1      29.425   9.128  47.573  1.00  0.00     0.070 A 
HETATM    7  C6  UNL     1      30.710   8.676  47.777  1.00  0.00     0.074 A 
HETATM    8  N1  UNL     1      31.775   9.430  47.525  1.00  0.00    -0.241 NA
HETATM    9  C15 UNL     1      30.889   7.389  48.243  1.00  0.00     0.039 A 
HETATM   10  C7  UNL     1      33.029   9.039  47.690  1.00  0.00     0.236 A 
HETATM   11  N2  UNL     1      33.195   7.778  48.147  1.00  0.00    -0.224 NA
HETATM   12  C8  UNL     1      32.195   6.932  48.433  1.00  0.00     0.142 A 
HETATM   13  C16 UNL     1      29.840   6.542  48.512  1.00  0.00     0.029 A 
HETATM   14  C17 UNL     1      28.541   6.978  48.312  1.00  0.00    -0.002 A 
BRANCH  12  15
HETATM   15  N3  UNL     1      32.504   5.604  48.913  1.00  0.00    -0.340 N 
HETATM   16  H6  UNL     1      32.365   5.125  49.832  1.00  0.00     0.167 HD
BRANCH  15  17
HETATM   17  C9  UNL     1      33.108   5.038  47.727  1.00  0.00     0.035 A 
HETATM   18  C10 UNL     1      34.189   4.266  48.182  1.00  0.00     0.032 A 
HETATM   19  C11 UNL     1      34.991   3.568  47.268  1.00  0.00     0.046 A 
HETATM   20  C12 UNL     1      34.693   3.658  45.927  1.00  0.00     0.138 A 
HETATM   21  F1  UNL     1      35.413   3.019  44.974  1.00  0.00    -0.204 F 
HETATM   22  C13 UNL     1      33.631   4.420  45.495  1.00  0.00     0.074 A 
HETATM   23 CL1  UNL     1      33.168   4.604  43.817  1.00  0.00    -0.081 Cl
HETATM   24  C14 UNL     1      32.835   5.111  46.378  1.00  0.00     0.056 A 
ENDBRANCH  15  17
ENDBRANCH  12  15
BRANCH  14  25
HETATM   25  C18 UNL     1      27.307   6.237  48.540  1.00  0.00     0.106 C 
HETATM   26  C19 UNL     1      27.638   4.746  48.629  1.00  0.00     0.037 C 
BRANCH  25  27
HETATM   27  N4  UNL     1      26.569   6.586  49.713  1.00  0.00    -0.422 N 
HETATM   28  H15 UNL     1      27.117   6.993  50.497  1.00  0.00     0.150 HD
HETATM   29  H16 UNL     1      25.627   6.994  49.558  1.00  0.00     0.150 HD
ENDBRANCH  25  27
ENDBRANCH  14  25
ENDBRANCH   4   5
ENDBRANCH   3   4
TORSDOF 6
ENDMDL
MODEL 5
REMARK VINA RESULT:      -7.1     10.308     13.084
REMARK  6 active torsions:
REMARK  status: ('A' for Active; 'I' for Inactive)
REMARK    1  A    between atoms: C3_3  and  O1_4 
REMARK    2  A    between atoms: O1_4  and  C4_5 
REMARK    3  A    between atoms: C8_11  and  N3_12 
REMARK    4  A    between atoms: N3_12  and  C9_13 
REMARK    5  A    between atoms: C17_23  and  C18_24 
REMARK    6  A    between atoms: C18_24  and  N4_26 
ROOT
HETATM    1  C1  UNL     1      35.113   3.967  45.172  1.00  0.00     0.014 C 
HETATM    2  C2  UNL     1      33.999   3.807  45.600  1.00  0.00    -0.091 C 
HETATM    3  C3  UNL     1      32.654   3.633  46.111  1.00  0.00     0.268 C 
ENDROOT
BRANCH   3   4
HETATM    4  O1  UNL     1      32.544   4.019  47.468  1.00  0.00    -0.339 OA
BRANCH   4   5
HETATM    5  C4  UNL     1      31.971   5.189  47.911  1.00  0.00     0.080 A 
HETATM    6  C5  UNL     1      30.590   5.258  47.870  1.00  0.00     0.070 A 
HETATM    7  C6  UNL     1      29.961   6.407  48.298  1.00  0.00     0.074 A 
HETATM    8  N1  UNL     1      28.639   6.542  48.269  1.00  0.00    -0.241 NA
HETATM    9  C15 UNL     1      30.737   7.452  48.754  1.00  0.00     0.039 A 
HETATM   10  C7  UNL     1      27.986   7.628  48.653  1.00  0.00     0.236 A 
HETATM   11  N2  UNL     1      28.754   8.646  49.099  1.00  0.00    -0.224 NA
HETATM   12  C8  UNL     1      30.092   8.619  49.171  1.00  0.00     0.142 A 
HETATM   13  C16 UNL     1      32.109   7.396  48.800  1.00  0.00     0.029 A 
HETATM   14  C17 UNL     1      32.761   6.251  48.374  1.00  0.00    -0.002 A 
BRANCH  12  15
HETATM   15  N3  UNL     1      30.801   9.779  49.665  1.00  0.00    -0.340 N 
HETATM   16  H6  UNL     1      31.309   9.981  50.555  1.00  0.00     0.167 HD
BRANCH  15  17
HETATM   17  C9  UNL     1      30.626  10.679  48.546  1.00  0.00     0.035 A 
HETATM   18  C10 UNL     1      30.006  11.823  49.072  1.00  0.00     0.032 A 
HETATM   19  C11 UNL     1      29.700  12.907  48.236  1.00  0.00     0.046 A 
HETATM   20  C12 UNL     1      30.020  12.819  46.900  1.00  0.00     0.138 A 
HETATM   21  F1  UNL     1      29.761  13.816  46.019  1.00  0.00    -0.204 F 
HETATM   22  C13 UNL     1      30.627  11.690  46.397  1.00  0.00     0.074 A 
HETATM   23 CL1  UNL     1      31.075  11.475  44.719  1.00  0.00    -0.081 Cl
HETATM   24  C14 UNL     1      30.934  10.620  47.204  1.00  0.00     0.056 A 
ENDBRANCH  15  17
ENDBRANCH  12  15
BRANCH  14  25
HETATM   25  C18 UNL     1      34.196   5.999  48.348  1.00  0.00     0.106 C 
HETATM   26  C19 UNL     1      34.932   7.329  48.517  1.00  0.00     0.037 C 
BRANCH  25  27
HETATM   27  N4  UNL     1      34.697   5.100  49.341  1.00  0.00    -0.422 N 
HETATM   28  H15 UNL     1      34.907   5.512  50.271  1.00  0.00     0.150 HD
HETATM   29  H16 UNL     1      34.280   4.149  49.350  1.00  0.00     0.150 HD
ENDBRANCH  25  27
ENDBRANCH  14  25
ENDBRANCH   4   5
ENDBRANCH   3   4
TORSDOF 6
ENDMDL
MODEL 6
REMARK VINA RESULT:      -7.0      2.253      3.615
REMARK  6 active torsions:
REMARK  status: ('A' for Active; 'I' for Inactive)
REMARK    1  A    between atoms: C3_3  and  O1_4 
REMARK    2  A    between atoms: O1_4  and  C4_5 
REMARK    3  A    between atoms: C8_11  and  N3_12 
REMARK    4  A    between atoms: N3_12  and  C9_13 
REMARK    5  A    between atoms: C17_23  and  C18_24 
REMARK    6  A    between atoms: C18_24  and  N4_26 
ROOT
HETATM    1  C1  UNL     1      18.527   2.065  49.258  1.00  0.00     0.014 C 
HETATM    2  C2  UNL     1      18.263   2.565  50.321  1.00  0.00    -0.091 C 
HETATM    3  C3  UNL     1      17.945   3.183  51.592  1.00  0.00     0.268 C 
ENDROOT
BRANCH   3   4
HETATM    4  O1  UNL     1      19.104   3.624  52.277  1.00  0.00    -0.339 OA
BRANCH   4   5
HETATM    5  C4  UNL     1      20.328   2.998  52.240  1.00  0.00     0.080 A 
HETATM    6  C5  UNL     1      20.417   1.771  52.871  1.00  0.00     0.070 A 
HETATM    7  C6  UNL     1      21.619   1.098  52.871  1.00  0.00     0.074 A 
HETATM    8  N1  UNL     1      21.773  -0.076  53.472  1.00  0.00    -0.241 NA
HETATM    9  C15 UNL     1      22.698   1.678  52.235  1.00  0.00     0.039 A 
HETATM   10  C7  UNL     1      22.909  -0.756  53.514  1.00  0.00     0.236 A 
HETATM   11  N2  UNL     1      23.959  -0.181  52.889  1.00  0.00    -0.224 NA
HETATM   12  C8  UNL     1      23.917   0.999  52.252  1.00  0.00     0.142 A 
HETATM   13  C16 UNL     1      22.623   2.897  51.604  1.00  0.00     0.029 A 
HETATM   14  C17 UNL     1      21.424   3.590  51.594  1.00  0.00    -0.002 A 
BRANCH  12  15
HETATM   15  N3  UNL     1      25.115   1.510  51.624  1.00  0.00    -0.340 N 
HETATM   16  H6  UNL     1      25.281   2.157  50.820  1.00  0.00     0.167 HD
BRANCH  15  17
HETATM   17  C9  UNL     1      26.123   0.860  52.432  1.00  0.00     0.035 A 
HETATM   18  C10 UNL     1      26.283   1.672  53.566  1.00  0.00     0.032 A 
HETATM   19  C11 UNL     1      27.197   1.314  54.567  1.00  0.00     0.046 A 
HETATM   20  C12 UNL     1      27.926   0.156  54.411  1.00  0.00     0.138 A 
HETATM   21  F1  UNL     1      28.831  -0.267  55.325  1.00  0.00    -0.204 F 
HETATM   22  C13 UNL     1      27.759  -0.630  53.293  1.00  0.00     0.074 A 
HETATM   23 CL1  UNL     1      28.633  -2.117  52.995  1.00  0.00    -0.081 Cl
HETATM   24  C14 UNL     1      26.868  -0.293  52.303  1.00  0.00     0.056 A 
ENDBRANCH  15  17
ENDBRANCH  12  15
BRANCH  14  25
HETATM   25  C18 UNL     1      21.144   4.882  50.982  1.00  0.00     0.106 C 
HETATM   26  C19 UNL     1      22.355   5.795  51.187  1.00  0.00     0.037 C 
BRANCH  25  27
HETATM   27  N4  UNL     1      20.849   4.866  49.583  1.00  0.00    -0.422 N 
HETATM   28  H15 UNL     1      20.970   3.956  49.098  1.00  0.00     0.150 HD
HETATM   29  H16 UNL     1      20.036   5.438  49.280  1.00  0.00     0.150 HD
ENDBRANCH  25  27
ENDBRANCH  14  25
ENDBRANCH   4   5
ENDBRANCH   3   4
TORSDOF 6
ENDMDL
MODEL 7
REMARK VINA RESULT:      -6.9      4.816      8.060
REMARK  6 active torsions:
REMARK  status: ('A' for Active; 'I' for Inactive)
REMARK    1  A    between atoms: C3_3  and  O1_4 
REMARK    2  A    between atoms: O1_4  and  C4_5 
REMARK    3  A    between atoms: C8_11  and  N3_12 
REMARK    4  A    between atoms: N3_12  and  C9_13 
REMARK    5  A    between atoms: C17_23  and  C18_24 
REMARK    6  A    between atoms: C18_24  and  N4_26 
ROOT
HETATM    1  C1  UNL     1      25.818  10.172  46.246  1.00  0.00     0.014 C 
HETATM    2  C2  UNL     1      26.178  10.242  47.393  1.00  0.00    -0.091 C 
HETATM    3  C3  UNL     1      26.629  10.331  48.767  1.00  0.00     0.268 C 
ENDROOT
BRANCH   3   4
HETATM    4  O1  UNL     1      27.239   9.132  49.208  1.00  0.00    -0.339 OA
BRANCH   4   5
HETATM    5  C4  UNL     1      26.584   7.939  49.406  1.00  0.00     0.080 A 
HETATM    6  C5  UNL     1      25.387   7.996  50.098  1.00  0.00     0.070 A 
HETATM    7  C6  UNL     1      24.687   6.833  50.330  1.00  0.00     0.074 A 
HETATM    8  N1  UNL     1      23.540   6.818  51.001  1.00  0.00    -0.241 NA
HETATM    9  C15 UNL     1      25.209   5.645  49.860  1.00  0.00     0.039 A 
HETATM   10  C7  UNL     1      22.836   5.728  51.264  1.00  0.00     0.236 A 
HETATM   11  N2  UNL     1      23.355   4.570  50.800  1.00  0.00    -0.224 NA
HETATM   12  C8  UNL     1      24.502   4.468  50.112  1.00  0.00     0.142 A 
HETATM   13  C16 UNL     1      26.397   5.575  49.172  1.00  0.00     0.029 A 
HETATM   14  C17 UNL     1      27.116   6.733  48.929  1.00  0.00    -0.002 A 
BRANCH  12  15
HETATM   15  N3  UNL     1      24.953   3.166  49.673  1.00  0.00    -0.340 N 
HETATM   16  H6  UNL     1      24.927   2.674  48.751  1.00  0.00     0.167 HD
BRANCH  15  17
HETATM   17  C9  UNL     1      25.494   2.653  50.912  1.00  0.00     0.035 A 
HETATM   18  C10 UNL     1      24.450   1.930  51.512  1.00  0.00     0.032 A 
HETATM   19  C11 UNL     1      24.652   1.289  52.742  1.00  0.00     0.046 A 
HETATM   20  C12 UNL     1      25.888   1.386  53.341  1.00  0.00     0.138 A 
HETATM   21  F1  UNL     1      26.174   0.801  54.529  1.00  0.00    -0.204 F 
HETATM   22  C13 UNL     1      26.903   2.099  52.741  1.00  0.00     0.074 A 
HETATM   23 CL1  UNL     1      28.507   2.286  53.415  1.00  0.00    -0.081 Cl
HETATM   24  C14 UNL     1      26.721   2.733  51.535  1.00  0.00     0.056 A 
ENDBRANCH  15  17
ENDBRANCH  12  15
BRANCH  14  25
HETATM   25  C18 UNL     1      28.383   6.865  48.221  1.00  0.00     0.106 C 
HETATM   26  C19 UNL     1      29.050   5.490  48.146  1.00  0.00     0.037 C 
BRANCH  25  27
HETATM   27  N4  UNL     1      28.311   7.382  46.890  1.00  0.00    -0.422 N 
HETATM   28  H15 UNL     1      28.901   6.907  46.179  1.00  0.00     0.150 HD
HETATM   29  H16 UNL     1      27.373   7.690  46.568  1.00  0.00     0.150 HD
ENDBRANCH  25  27
ENDBRANCH  14  25
ENDBRANCH   4   5
ENDBRANCH   3   4
TORSDOF 6
ENDMDL
MODEL 8
REMARK VINA RESULT:      -6.9      4.212      7.130
REMARK  6 active torsions:
REMARK  status: ('A' for Active; 'I' for Inactive)
REMARK    1  A    between atoms: C3_3  and  O1_4 
REMARK    2  A    between atoms: O1_4  and  C4_5 
REMARK    3  A    between atoms: C8_11  and  N3_12 
REMARK    4  A    between atoms: N3_12  and  C9_13 
REMARK    5  A    between atoms: C17_23  and  C18_24 
REMARK    6  A    between atoms: C18_24  and  N4_26 
ROOT
HETATM    1  C1  UNL     1      27.007   0.246  55.235  1.00  0.00     0.014 C 
HETATM    2  C2  UNL     1      26.406  -0.243  54.314  1.00  0.00    -0.091 C 
HETATM    3  C3  UNL     1      25.700  -0.837  53.196  1.00  0.00     0.268 C 
ENDROOT
BRANCH   3   4
HETATM    4  O1  UNL     1      25.572   0.060  52.107  1.00  0.00    -0.339 OA
BRANCH   4   5
HETATM    5  C4  UNL     1      24.641   1.068  52.021  1.00  0.00     0.080 A 
HETATM    6  C5  UNL     1      23.359   0.766  52.444  1.00  0.00     0.070 A 
HETATM    7  C6  UNL     1      22.382   1.734  52.377  1.00  0.00     0.074 A 
HETATM    8  N1  UNL     1      21.128   1.503  52.753  1.00  0.00    -0.241 NA
HETATM    9  C15 UNL     1      22.721   2.979  51.887  1.00  0.00     0.039 A 
HETATM   10  C7  UNL     1      20.149   2.393  52.695  1.00  0.00     0.236 A 
HETATM   11  N2  UNL     1      20.491   3.609  52.214  1.00  0.00    -0.224 NA
HETATM   12  C8  UNL     1      21.722   3.951  51.807  1.00  0.00     0.142 A 
HETATM   13  C16 UNL     1      23.990   3.292  51.463  1.00  0.00     0.029 A 
HETATM   14  C17 UNL     1      24.986   2.332  51.522  1.00  0.00    -0.002 A 
BRANCH  12  15
HETATM   15  N3  UNL     1      21.958   5.288  51.308  1.00  0.00    -0.340 N 
HETATM   16  H6  UNL     1      22.172   6.198  51.775  1.00  0.00     0.167 HD
BRANCH  15  17
HETATM   17  C9  UNL     1      21.813   5.058  49.888  1.00  0.00     0.035 A 
HETATM   18  C10 UNL     1      22.884   5.734  49.282  1.00  0.00     0.032 A 
HETATM   19  C11 UNL     1      23.041   5.704  47.889  1.00  0.00     0.046 A 
HETATM   20  C12 UNL     1      22.125   5.001  47.138  1.00  0.00     0.138 A 
HETATM   21  F1  UNL     1      22.197   4.918  45.788  1.00  0.00    -0.204 F 
HETATM   22  C13 UNL     1      21.078   4.344  47.746  1.00  0.00     0.074 A 
HETATM   23 CL1  UNL     1      19.861   3.426  46.887  1.00  0.00    -0.081 Cl
HETATM   24  C14 UNL     1      20.911   4.364  49.110  1.00  0.00     0.056 A 
ENDBRANCH  15  17
ENDBRANCH  12  15
BRANCH  14  25
HETATM   25  C18 UNL     1      26.382   2.469  51.126  1.00  0.00     0.106 C 
HETATM   26  C19 UNL     1      26.496   3.609  50.112  1.00  0.00     0.037 C 
BRANCH  25  27
HETATM   27  N4  UNL     1      27.313   2.735  52.179  1.00  0.00    -0.422 N 
HETATM   28  H15 UNL     1      27.488   3.735  52.397  1.00  0.00     0.150 HD
HETATM   29  H16 UNL     1      27.278   2.092  52.994  1.00  0.00     0.150 HD
ENDBRANCH  25  27
ENDBRANCH  14  25
ENDBRANCH   4   5
ENDBRANCH   3   4
TORSDOF 6
ENDMDL
MODEL 9
REMARK VINA RESULT:      -6.9      3.701      6.143
REMARK  6 active torsions:
REMARK  status: ('A' for Active; 'I' for Inactive)
REMARK    1  A    between atoms: C3_3  and  O1_4 
REMARK    2  A    between atoms: O1_4  and  C4_5 
REMARK    3  A    between atoms: C8_11  and  N3_12 
REMARK    4  A    between atoms: N3_12  and  C9_13 
REMARK    5  A    between atoms: C17_23  and  C18_24 
REMARK    6  A    between atoms: C18_24  and  N4_26 
ROOT
HETATM    1  C1  UNL     1      23.045   6.891  44.339  1.00  0.00     0.014 C 
HETATM    2  C2  UNL     1      22.830   7.033  45.514  1.00  0.00    -0.091 C 
HETATM    3  C3  UNL     1      22.585   7.218  46.931  1.00  0.00     0.268 C 
ENDROOT
BRANCH   3   4
HETATM    4  O1  UNL     1      23.470   6.455  47.730  1.00  0.00    -0.339 OA
BRANCH   4   5
HETATM    5  C4  UNL     1      23.097   5.413  48.547  1.00  0.00     0.080 A 
HETATM    6  C5  UNL     1      22.686   4.250  47.921  1.00  0.00     0.070 A 
HETATM    7  C6  UNL     1      22.296   3.174  48.687  1.00  0.00     0.074 A 
HETATM    8  N1  UNL     1      21.877   2.035  48.147  1.00  0.00    -0.241 NA
HETATM    9  C15 UNL     1      22.330   3.297  50.061  1.00  0.00     0.039 A 
HETATM   10  C7  UNL     1      21.478   0.977  48.837  1.00  0.00     0.236 A 
HETATM   11  N2  UNL     1      21.515   1.107  50.181  1.00  0.00    -0.224 NA
HETATM   12  C8  UNL     1      21.919   2.208  50.832  1.00  0.00     0.142 A 
HETATM   13  C16 UNL     1      22.736   4.447  50.696  1.00  0.00     0.029 A 
HETATM   14  C17 UNL     1      23.131   5.540  49.943  1.00  0.00    -0.002 A 
BRANCH  12  15
HETATM   15  N3  UNL     1      21.908   2.222  52.278  1.00  0.00    -0.340 N 
HETATM   16  H6  UNL     1      21.279   2.668  52.983  1.00  0.00     0.167 HD
BRANCH  15  17
HETATM   17  C9  UNL     1      23.072   1.408  52.549  1.00  0.00     0.035 A 
HETATM   18  C10 UNL     1      22.644   0.423  53.454  1.00  0.00     0.032 A 
HETATM   19  C11 UNL     1      23.544  -0.545  53.920  1.00  0.00     0.046 A 
HETATM   20  C12 UNL     1      24.845  -0.506  53.472  1.00  0.00     0.138 A 
HETATM   21  F1  UNL     1      25.783  -1.399  53.868  1.00  0.00    -0.204 F 
HETATM   22  C13 UNL     1      25.251   0.467  52.585  1.00  0.00     0.074 A 
HETATM   23 CL1  UNL     1      26.878   0.609  51.955  1.00  0.00    -0.081 Cl
HETATM   24  C14 UNL     1      24.381   1.423  52.119  1.00  0.00     0.056 A 
ENDBRANCH  15  17
ENDBRANCH  12  15
BRANCH  14  25
HETATM   25  C18 UNL     1      23.593   6.836  50.425  1.00  0.00     0.106 C 
HETATM   26  C19 UNL     1      22.385   7.763  50.578  1.00  0.00     0.037 C 
BRANCH  25  27
HETATM   27  N4  UNL     1      24.293   6.831  51.672  1.00  0.00    -0.422 N 
HETATM   28  H15 UNL     1      24.349   5.919  52.165  1.00  0.00     0.150 HD
HETATM   29  H16 UNL     1      25.141   7.427  51.723  1.00  0.00     0.150 HD
ENDBRANCH  25  27
ENDBRANCH  14  25
ENDBRANCH   4   5
ENDBRANCH   3   4
TORSDOF 6
ENDMDL
