MODEL 1
REMARK VINA RESULT:      -7.8      0.000      0.000
REMARK  3 active torsions:
REMARK  status: ('A' for Active; 'I' for Inactive)
REMARK    1  A    between atoms: C5_6  and  N2_7 
REMARK    2  A    between atoms: N2_7  and  C6_8 
REMARK    3  A    between atoms: C9_12  and  C10_13 
ROOT
HETATM    1  C6  UNL     1      23.190   1.808  52.750  1.00  0.00     0.729 A 
HETATM    2  N3  UNL     1      22.572   0.618  52.842  1.00  0.00    -0.075 NA
HETATM    3  C7  UNL     1      23.223  -0.498  53.273  1.00  0.00     0.139 A 
HETATM    4  C8  UNL     1      24.551  -0.335  53.608  1.00  0.00     0.053 A 
HETATM    5  C9  UNL     1      25.212   0.872  53.524  1.00  0.00     0.089 A 
HETATM    6  N5  UNL     1      24.492   1.917  53.090  1.00  0.00    -0.062 NA
ENDROOT
BRANCH   1   7
HETATM    7  N2  UNL     1      22.481   2.955  52.296  1.00  0.00    -0.165 N 
HETATM    8  H7  UNL     1      21.498   3.117  52.607  1.00  0.00     0.186 HD
BRANCH   7   9
HETATM    9  C5  UNL     1      23.107   3.882  51.421  1.00  0.00     0.177 C 
HETATM   10  N1  UNL     1      23.224   5.061  51.931  1.00  0.00    -0.263 NA
HETATM   11  C4  UNL     1      23.801   6.262  51.358  1.00  0.00     0.179 C 
HETATM   12  C3  UNL     1      25.034   6.017  50.592  1.00  0.00    -0.002 C 
HETATM   13  C2  UNL     1      25.263   5.302  49.481  1.00  0.00    -0.072 C 
HETATM   14  C1  UNL     1      26.643   5.208  48.884  1.00  0.00     0.044 C 
HETATM   15  C15 UNL     1      24.184   4.560  48.767  1.00  0.00     0.079 C 
HETATM   16  S1  UNL     1      23.593   3.250  49.839  1.00  0.00    -0.083 SA
HETATM   17  C16 UNL     1      23.053   5.502  48.375  1.00  0.00     0.026 C 
ENDBRANCH   7   9
ENDBRANCH   1   7
BRANCH   5  18
HETATM   18  C10 UNL     1      26.613   1.076  53.871  1.00  0.00     0.011 A 
HETATM   19  C11 UNL     1      27.259   2.137  53.274  1.00  0.00     0.017 A 
HETATM   20  C12 UNL     1      28.592   2.396  53.553  1.00  0.00     0.020 A 
HETATM   21  C13 UNL     1      29.251   1.557  54.447  1.00  0.00     0.116 A 
HETATM   22  N4  UNL     1      28.601   0.521  55.021  1.00  0.00    -0.272 NA
HETATM   23  C14 UNL     1      27.302   0.274  54.745  1.00  0.00     0.130 A 
ENDBRANCH   5  18
TORSDOF 3
ENDMDL
MODEL 2
REMARK VINA RESULT:      -7.7      1.603      1.856
REMARK  3 active torsions:
REMARK  status: ('A' for Active; 'I' for Inactive)
REMARK    1  A    between atoms: C5_6  and  N2_7 
REMARK    2  A    between atoms: N2_7  and  C6_8 
REMARK    3  A    between atoms: C9_12  and  C10_13 
ROOT
HETATM    1  C6  UNL     1      21.944   0.895  53.083  1.00  0.00     0.729 A 
HETATM    2  N3  UNL     1      21.151   0.082  53.802  1.00  0.00    -0.075 NA
HETATM    3  C7  UNL     1      21.662  -0.906  54.590  1.00  0.00     0.139 A 
HETATM    4  C8  UNL     1      23.036  -1.021  54.606  1.00  0.00     0.053 A 
HETATM    5  C9  UNL     1      23.874  -0.202  53.879  1.00  0.00     0.089 A 
HETATM    6  N5  UNL     1      23.284   0.743  53.131  1.00  0.00    -0.062 NA
ENDROOT
BRANCH   1   7
HETATM    7  N2  UNL     1      21.378   1.917  52.271  1.00  0.00    -0.165 N 
HETATM    8  H7  UNL     1      20.343   2.039  52.232  1.00  0.00     0.186 HD
BRANCH   7   9
HETATM    9  C5  UNL     1      22.220   2.773  51.511  1.00  0.00     0.177 C 
HETATM   10  N1  UNL     1      22.441   3.907  52.085  1.00  0.00    -0.263 NA
HETATM   11  C4  UNL     1      23.238   5.031  51.634  1.00  0.00     0.179 C 
HETATM   12  C3  UNL     1      24.502   4.637  50.992  1.00  0.00    -0.002 C 
HETATM   13  C2  UNL     1      24.753   3.933  49.878  1.00  0.00    -0.072 C 
HETATM   14  C1  UNL     1      26.165   3.663  49.427  1.00  0.00     0.044 C 
HETATM   15  C15 UNL     1      23.668   3.374  49.020  1.00  0.00     0.079 C 
HETATM   16  S1  UNL     1      22.786   2.129  49.961  1.00  0.00    -0.083 SA
HETATM   17  C16 UNL     1      22.729   4.479  48.556  1.00  0.00     0.026 C 
ENDBRANCH   7   9
ENDBRANCH   1   7
BRANCH   5  18
HETATM   18  C10 UNL     1      25.328  -0.298  53.876  1.00  0.00     0.011 A 
HETATM   19  C11 UNL     1      25.931  -0.647  52.686  1.00  0.00     0.017 A 
HETATM   20  C12 UNL     1      27.310  -0.759  52.603  1.00  0.00     0.020 A 
HETATM   21  C13 UNL     1      28.059  -0.511  53.748  1.00  0.00     0.116 A 
HETATM   22  N4  UNL     1      27.450  -0.171  54.905  1.00  0.00    -0.272 NA
HETATM   23  C14 UNL     1      26.106  -0.063  54.980  1.00  0.00     0.130 A 
ENDBRANCH   5  18
TORSDOF 3
ENDMDL
MODEL 3
REMARK VINA RESULT:      -7.6      1.718      2.391
REMARK  3 active torsions:
REMARK  status: ('A' for Active; 'I' for Inactive)
REMARK    1  A    between atoms: C5_6  and  N2_7 
REMARK    2  A    between atoms: N2_7  and  C6_8 
REMARK    3  A    between atoms: C9_12  and  C10_13 
ROOT
HETATM    1  C6  UNL     1      22.297   1.263  52.979  1.00  0.00     0.729 A 
HETATM    2  N3  UNL     1      21.412   0.416  53.531  1.00  0.00    -0.075 NA
HETATM    3  C7  UNL     1      21.810  -0.694  54.215  1.00  0.00     0.139 A 
HETATM    4  C8  UNL     1      23.171  -0.895  54.306  1.00  0.00     0.053 A 
HETATM    5  C9  UNL     1      24.103  -0.044  53.751  1.00  0.00     0.089 A 
HETATM    6  N5  UNL     1      23.620   1.023  53.096  1.00  0.00    -0.062 NA
ENDROOT
BRANCH   1   7
HETATM    7  N2  UNL     1      21.848   2.413  52.271  1.00  0.00    -0.165 N 
HETATM    8  H7  UNL     1      20.973   2.898  52.566  1.00  0.00     0.186 HD
BRANCH   7   9
HETATM    9  C5  UNL     1      22.589   2.904  51.163  1.00  0.00     0.177 C 
HETATM   10  N1  UNL     1      22.309   2.300  50.058  1.00  0.00    -0.263 NA
HETATM   11  C4  UNL     1      22.847   2.511  48.728  1.00  0.00     0.179 C 
HETATM   12  C3  UNL     1      23.037   3.930  48.388  1.00  0.00    -0.002 C 
HETATM   13  C2  UNL     1      23.824   4.876  48.924  1.00  0.00    -0.072 C 
HETATM   14  C1  UNL     1      23.835   6.281  48.381  1.00  0.00     0.044 C 
HETATM   15  C15 UNL     1      24.730   4.607  50.078  1.00  0.00     0.079 C 
HETATM   16  S1  UNL     1      23.724   4.220  51.510  1.00  0.00    -0.083 SA
HETATM   17  C16 UNL     1      25.687   3.468  49.754  1.00  0.00     0.026 C 
ENDBRANCH   7   9
ENDBRANCH   1   7
BRANCH   5  18
HETATM   18  C10 UNL     1      25.546  -0.229  53.831  1.00  0.00     0.011 A 
HETATM   19  C11 UNL     1      26.180  -0.717  52.708  1.00  0.00     0.017 A 
HETATM   20  C12 UNL     1      27.550  -0.920  52.707  1.00  0.00     0.020 A 
HETATM   21  C13 UNL     1      28.260  -0.619  53.865  1.00  0.00     0.116 A 
HETATM   22  N4  UNL     1      27.622  -0.142  54.956  1.00  0.00    -0.272 NA
HETATM   23  C14 UNL     1      26.285   0.054  54.951  1.00  0.00     0.130 A 
ENDBRANCH   5  18
TORSDOF 3
ENDMDL
MODEL 4
REMARK VINA RESULT:      -7.5      1.731      1.941
REMARK  3 active torsions:
REMARK  status: ('A' for Active; 'I' for Inactive)
REMARK    1  A    between atoms: C5_6  and  N2_7 
REMARK    2  A    between atoms: N2_7  and  C6_8 
REMARK    3  A    between atoms: C9_12  and  C10_13 
ROOT
HETATM    1  C6  UNL     1      24.451   2.153  53.068  1.00  0.00     0.729 A 
HETATM    2  N3  UNL     1      23.273   1.507  53.111  1.00  0.00    -0.075 NA
HETATM    3  C7  UNL     1      23.200   0.150  53.200  1.00  0.00     0.139 A 
HETATM    4  C8  UNL     1      24.405  -0.521  53.242  1.00  0.00     0.053 A 
HETATM    5  C9  UNL     1      25.628   0.112  53.199  1.00  0.00     0.089 A 
HETATM    6  N5  UNL     1      25.604   1.451  53.112  1.00  0.00    -0.062 NA
ENDROOT
BRANCH   1   7
HETATM    7  N2  UNL     1      24.491   3.572  52.976  1.00  0.00    -0.165 N 
HETATM    8  H7  UNL     1      24.886   4.134  53.761  1.00  0.00     0.186 HD
BRANCH   7   9
HETATM    9  C5  UNL     1      23.996   4.226  51.816  1.00  0.00     0.177 C 
HETATM   10  N1  UNL     1      23.031   5.044  52.069  1.00  0.00    -0.263 NA
HETATM   11  C4  UNL     1      22.274   5.887  51.163  1.00  0.00     0.179 C 
HETATM   12  C3  UNL     1      23.098   6.526  50.125  1.00  0.00    -0.002 C 
HETATM   13  C2  UNL     1      23.832   6.008  49.128  1.00  0.00    -0.072 C 
HETATM   14  C1  UNL     1      24.597   6.895  48.181  1.00  0.00     0.044 C 
HETATM   15  C15 UNL     1      23.940   4.539  48.890  1.00  0.00     0.079 C 
HETATM   16  S1  UNL     1      24.785   3.800  50.288  1.00  0.00    -0.083 SA
HETATM   17  C16 UNL     1      22.561   3.924  48.693  1.00  0.00     0.026 C 
ENDBRANCH   7   9
ENDBRANCH   1   7
BRANCH   5  18
HETATM   18  C10 UNL     1      26.916  -0.568  53.242  1.00  0.00     0.011 A 
HETATM   19  C11 UNL     1      28.014   0.188  53.593  1.00  0.00     0.017 A 
HETATM   20  C12 UNL     1      29.273  -0.388  53.656  1.00  0.00     0.020 A 
HETATM   21  C13 UNL     1      29.392  -1.741  53.357  1.00  0.00     0.116 A 
HETATM   22  N4  UNL     1      28.304  -2.466  53.014  1.00  0.00    -0.272 NA
HETATM   23  C14 UNL     1      27.080  -1.899  52.954  1.00  0.00     0.130 A 
ENDBRANCH   5  18
TORSDOF 3
ENDMDL
MODEL 5
REMARK VINA RESULT:      -7.3      2.218      4.466
REMARK  3 active torsions:
REMARK  status: ('A' for Active; 'I' for Inactive)
REMARK    1  A    between atoms: C5_6  and  N2_7 
REMARK    2  A    between atoms: N2_7  and  C6_8 
REMARK    3  A    between atoms: C9_12  and  C10_13 
ROOT
HETATM    1  C6  UNL     1      25.805   2.007  52.173  1.00  0.00     0.729 A 
HETATM    2  N3  UNL     1      26.984   1.362  52.160  1.00  0.00    -0.075 NA
HETATM    3  C7  UNL     1      27.115   0.095  52.645  1.00  0.00     0.139 A 
HETATM    4  C8  UNL     1      25.969  -0.484  53.149  1.00  0.00     0.053 A 
HETATM    5  C9  UNL     1      24.746   0.153  53.176  1.00  0.00     0.089 A 
HETATM    6  N5  UNL     1      24.711   1.398  52.677  1.00  0.00    -0.062 NA
ENDROOT
BRANCH   1   7
HETATM    7  N2  UNL     1      25.703   3.329  51.658  1.00  0.00    -0.165 N 
HETATM    8  H7  UNL     1      26.548   3.940  51.617  1.00  0.00     0.186 HD
BRANCH   7   9
HETATM    9  C5  UNL     1      24.452   3.822  51.198  1.00  0.00     0.177 C 
HETATM   10  N1  UNL     1      24.237   3.573  49.951  1.00  0.00    -0.263 NA
HETATM   11  C4  UNL     1      23.092   3.907  49.126  1.00  0.00     0.179 C 
HETATM   12  C3  UNL     1      21.801   3.736  49.812  1.00  0.00    -0.002 C 
HETATM   13  C2  UNL     1      21.279   4.340  50.890  1.00  0.00    -0.072 C 
HETATM   14  C1  UNL     1      19.909   3.978  51.401  1.00  0.00     0.044 C 
HETATM   15  C15 UNL     1      22.008   5.398  51.648  1.00  0.00     0.079 C 
HETATM   16  S1  UNL     1      23.457   4.659  52.401  1.00  0.00    -0.083 SA
HETATM   17  C16 UNL     1      22.393   6.550  50.729  1.00  0.00     0.026 C 
ENDBRANCH   7   9
ENDBRANCH   1   7
BRANCH   5  18
HETATM   18  C10 UNL     1      23.519  -0.432  53.700  1.00  0.00     0.011 A 
HETATM   19  C11 UNL     1      22.361  -0.203  52.988  1.00  0.00     0.017 A 
HETATM   20  C12 UNL     1      21.153  -0.726  53.423  1.00  0.00     0.020 A 
HETATM   21  C13 UNL     1      21.148  -1.483  54.590  1.00  0.00     0.116 A 
HETATM   22  N4  UNL     1      22.293  -1.697  55.274  1.00  0.00    -0.272 NA
HETATM   23  C14 UNL     1      23.467  -1.185  54.846  1.00  0.00     0.130 A 
ENDBRANCH   5  18
TORSDOF 3
ENDMDL
MODEL 6
REMARK VINA RESULT:      -7.1      1.620      2.318
REMARK  3 active torsions:
REMARK  status: ('A' for Active; 'I' for Inactive)
REMARK    1  A    between atoms: C5_6  and  N2_7 
REMARK    2  A    between atoms: N2_7  and  C6_8 
REMARK    3  A    between atoms: C9_12  and  C10_13 
ROOT
HETATM    1  C6  UNL     1      24.166   2.887  52.820  1.00  0.00     0.729 A 
HETATM    2  N3  UNL     1      23.045   2.150  52.751  1.00  0.00    -0.075 NA
HETATM    3  C7  UNL     1      23.072   0.790  52.836  1.00  0.00     0.139 A 
HETATM    4  C8  UNL     1      24.317   0.217  52.996  1.00  0.00     0.053 A 
HETATM    5  C9  UNL     1      25.484   0.947  53.070  1.00  0.00     0.089 A 
HETATM    6  N5  UNL     1      25.362   2.279  52.977  1.00  0.00    -0.062 NA
ENDROOT
BRANCH   1   7
HETATM    7  N2  UNL     1      24.102   4.305  52.728  1.00  0.00    -0.165 N 
HETATM    8  H7  UNL     1      24.277   4.891  53.573  1.00  0.00     0.186 HD
BRANCH   7   9
HETATM    9  C5  UNL     1      23.799   4.927  51.486  1.00  0.00     0.177 C 
HETATM   10  N1  UNL     1      24.794   4.928  50.664  1.00  0.00    -0.263 NA
HETATM   11  C4  UNL     1      24.878   5.460  49.318  1.00  0.00     0.179 C 
HETATM   12  C3  UNL     1      23.672   5.216  48.511  1.00  0.00    -0.002 C 
HETATM   13  C2  UNL     1      22.404   5.626  48.659  1.00  0.00    -0.072 C 
HETATM   14  C1  UNL     1      21.335   5.231  47.674  1.00  0.00     0.044 C 
HETATM   15  C15 UNL     1      21.968   6.491  49.794  1.00  0.00     0.079 C 
HETATM   16  S1  UNL     1      22.155   5.563  51.317  1.00  0.00    -0.083 SA
HETATM   17  C16 UNL     1      22.781   7.778  49.832  1.00  0.00     0.026 C 
ENDBRANCH   7   9
ENDBRANCH   1   7
BRANCH   5  18
HETATM   18  C10 UNL     1      26.812   0.371  53.239  1.00  0.00     0.011 A 
HETATM   19  C11 UNL     1      27.849   1.246  53.483  1.00  0.00     0.017 A 
HETATM   20  C12 UNL     1      29.141   0.774  53.655  1.00  0.00     0.020 A 
HETATM   21  C13 UNL     1      29.356  -0.598  53.575  1.00  0.00     0.116 A 
HETATM   22  N4  UNL     1      28.327  -1.440  53.334  1.00  0.00    -0.272 NA
HETATM   23  C14 UNL     1      27.070  -0.975  53.167  1.00  0.00     0.130 A 
ENDBRANCH   5  18
TORSDOF 3
ENDMDL
MODEL 7
REMARK VINA RESULT:      -7.1      2.626      6.381
REMARK  3 active torsions:
REMARK  status: ('A' for Active; 'I' for Inactive)
REMARK    1  A    between atoms: C5_6  and  N2_7 
REMARK    2  A    between atoms: N2_7  and  C6_8 
REMARK    3  A    between atoms: C9_12  and  C10_13 
ROOT
HETATM    1  C6  UNL     1      24.034   5.135  50.796  1.00  0.00     0.729 A 
HETATM    2  N3  UNL     1      22.976   5.534  50.068  1.00  0.00    -0.075 NA
HETATM    3  C7  UNL     1      23.122   6.083  48.830  1.00  0.00     0.139 A 
HETATM    4  C8  UNL     1      24.416   6.204  48.368  1.00  0.00     0.053 A 
HETATM    5  C9  UNL     1      25.520   5.805  49.091  1.00  0.00     0.089 A 
HETATM    6  N5  UNL     1      25.282   5.276  50.300  1.00  0.00    -0.062 NA
ENDROOT
BRANCH   1   7
HETATM    7  N2  UNL     1      23.846   4.566  52.086  1.00  0.00    -0.165 N 
HETATM    8  H7  UNL     1      24.026   5.138  52.939  1.00  0.00     0.186 HD
BRANCH   7   9
HETATM    9  C5  UNL     1      23.412   3.219  52.215  1.00  0.00     0.177 C 
HETATM   10  N1  UNL     1      24.384   2.372  52.224  1.00  0.00    -0.263 NA
HETATM   11  C4  UNL     1      24.349   0.927  52.338  1.00  0.00     0.179 C 
HETATM   12  C3  UNL     1      23.363   0.436  53.314  1.00  0.00    -0.002 C 
HETATM   13  C2  UNL     1      22.025   0.534  53.353  1.00  0.00    -0.072 C 
HETATM   14  C1  UNL     1      21.232  -0.067  54.484  1.00  0.00     0.044 C 
HETATM   15  C15 UNL     1      21.240   1.234  52.296  1.00  0.00     0.079 C 
HETATM   16  S1  UNL     1      21.661   2.976  52.338  1.00  0.00    -0.083 SA
HETATM   17  C16 UNL     1      21.528   0.632  50.927  1.00  0.00     0.026 C 
ENDBRANCH   7   9
ENDBRANCH   1   7
BRANCH   5  18
HETATM   18  C10 UNL     1      26.898   5.920  48.630  1.00  0.00     0.011 A 
HETATM   19  C11 UNL     1      27.284   7.133  48.101  1.00  0.00     0.017 A 
HETATM   20  C12 UNL     1      28.577   7.320  47.641  1.00  0.00     0.020 A 
HETATM   21  C13 UNL     1      29.467   6.254  47.730  1.00  0.00     0.116 A 
HETATM   22  N4  UNL     1      29.070   5.072  48.251  1.00  0.00    -0.272 NA
HETATM   23  C14 UNL     1      27.808   4.896  48.698  1.00  0.00     0.130 A 
ENDBRANCH   5  18
TORSDOF 3
ENDMDL
MODEL 8
REMARK VINA RESULT:      -7.1      2.089      4.060
REMARK  3 active torsions:
REMARK  status: ('A' for Active; 'I' for Inactive)
REMARK    1  A    between atoms: C5_6  and  N2_7 
REMARK    2  A    between atoms: N2_7  and  C6_8 
REMARK    3  A    between atoms: C9_12  and  C10_13 
ROOT
HETATM    1  C6  UNL     1      25.677   2.090  52.002  1.00  0.00     0.729 A 
HETATM    2  N3  UNL     1      26.830   1.406  51.907  1.00  0.00    -0.075 NA
HETATM    3  C7  UNL     1      26.936   0.116  52.335  1.00  0.00     0.139 A 
HETATM    4  C8  UNL     1      25.794  -0.442  52.869  1.00  0.00     0.053 A 
HETATM    5  C9  UNL     1      24.599   0.235  52.980  1.00  0.00     0.089 A 
HETATM    6  N5  UNL     1      24.586   1.499  52.533  1.00  0.00    -0.062 NA
ENDROOT
BRANCH   1   7
HETATM    7  N2  UNL     1      25.599   3.435  51.545  1.00  0.00    -0.165 N 
HETATM    8  H7  UNL     1      26.428   4.063  51.628  1.00  0.00     0.186 HD
BRANCH   7   9
HETATM    9  C5  UNL     1      24.395   3.927  50.974  1.00  0.00     0.177 C 
HETATM   10  N1  UNL     1      23.759   4.738  51.751  1.00  0.00    -0.263 NA
HETATM   11  C4  UNL     1      22.510   5.439  51.530  1.00  0.00     0.179 C 
HETATM   12  C3  UNL     1      22.365   5.973  50.166  1.00  0.00    -0.002 C 
HETATM   13  C2  UNL     1      22.304   5.362  48.974  1.00  0.00    -0.072 C 
HETATM   14  C1  UNL     1      22.151   6.151  47.700  1.00  0.00     0.044 C 
HETATM   15  C15 UNL     1      22.383   3.879  48.826  1.00  0.00     0.079 C 
HETATM   16  S1  UNL     1      24.013   3.344  49.345  1.00  0.00    -0.083 SA
HETATM   17  C16 UNL     1      21.294   3.200  49.647  1.00  0.00     0.026 C 
ENDBRANCH   7   9
ENDBRANCH   1   7
BRANCH   5  18
HETATM   18  C10 UNL     1      23.376  -0.329  53.539  1.00  0.00     0.011 A 
HETATM   19  C11 UNL     1      22.205  -0.094  52.851  1.00  0.00     0.017 A 
HETATM   20  C12 UNL     1      21.002  -0.597  53.319  1.00  0.00     0.020 A 
HETATM   21  C13 UNL     1      21.013  -1.338  54.496  1.00  0.00     0.116 A 
HETATM   22  N4  UNL     1      22.171  -1.556  55.158  1.00  0.00    -0.272 NA
HETATM   23  C14 UNL     1      23.341  -1.064  54.696  1.00  0.00     0.130 A 
ENDBRANCH   5  18
TORSDOF 3
ENDMDL
MODEL 9
REMARK VINA RESULT:      -6.9      2.740      6.767
REMARK  3 active torsions:
REMARK  status: ('A' for Active; 'I' for Inactive)
REMARK    1  A    between atoms: C5_6  and  N2_7 
REMARK    2  A    between atoms: N2_7  and  C6_8 
REMARK    3  A    between atoms: C9_12  and  C10_13 
ROOT
HETATM    1  C6  UNL     1      24.745   4.701  50.078  1.00  0.00     0.729 A 
HETATM    2  N3  UNL     1      24.046   5.600  50.792  1.00  0.00    -0.075 NA
HETATM    3  C7  UNL     1      24.390   6.918  50.822  1.00  0.00     0.139 A 
HETATM    4  C8  UNL     1      25.497   7.274  50.079  1.00  0.00     0.053 A 
HETATM    5  C9  UNL     1      26.234   6.375  49.338  1.00  0.00     0.089 A 
HETATM    6  N5  UNL     1      25.822   5.099  49.366  1.00  0.00    -0.062 NA
ENDROOT
BRANCH   1   7
HETATM    7  N2  UNL     1      24.358   3.333  50.067  1.00  0.00    -0.165 N 
HETATM    8  H7  UNL     1      23.771   2.962  49.288  1.00  0.00     0.186 HD
BRANCH   7   9
HETATM    9  C5  UNL     1      24.770   2.466  51.115  1.00  0.00     0.177 C 
HETATM   10  N1  UNL     1      23.793   2.070  51.859  1.00  0.00    -0.263 NA
HETATM   11  C4  UNL     1      23.807   1.191  53.012  1.00  0.00     0.179 C 
HETATM   12  C3  UNL     1      24.710   0.038  52.864  1.00  0.00    -0.002 C 
HETATM   13  C2  UNL     1      26.041  -0.036  52.713  1.00  0.00    -0.072 C 
HETATM   14  C1  UNL     1      26.738  -1.365  52.581  1.00  0.00     0.044 C 
HETATM   15  C15 UNL     1      26.912   1.174  52.665  1.00  0.00     0.079 C 
HETATM   16  S1  UNL     1      26.503   2.108  51.191  1.00  0.00    -0.083 SA
HETATM   17  C16 UNL     1      26.728   2.017  53.920  1.00  0.00     0.026 C 
ENDBRANCH   7   9
ENDBRANCH   1   7
BRANCH   5  18
HETATM   18  C10 UNL     1      27.405   6.721  48.544  1.00  0.00     0.011 A 
HETATM   19  C11 UNL     1      28.398   5.770  48.443  1.00  0.00     0.017 A 
HETATM   20  C12 UNL     1      29.543   6.024  47.705  1.00  0.00     0.020 A 
HETATM   21  C13 UNL     1      29.658   7.259  47.075  1.00  0.00     0.116 A 
HETATM   22  N4  UNL     1      28.675   8.179  47.186  1.00  0.00    -0.272 NA
HETATM   23  C14 UNL     1      27.561   7.925  47.906  1.00  0.00     0.130 A 
ENDBRANCH   5  18
TORSDOF 3
ENDMDL
