MODEL 1
REMARK VINA RESULT:      -8.0      0.000      0.000
REMARK  6 active torsions:
REMARK  status: ('A' for Active; 'I' for Inactive)
REMARK    1  A    between atoms: O1_2  and  C2_3 
REMARK    2  A    between atoms: C2_3  and  C3_4 
REMARK    3  A    between atoms: C4_5  and  O2_6 
REMARK    4  A    between atoms: C9_13  and  N3_14 
REMARK    5  A    between atoms: N3_14  and  C10_15 
REMARK    6  A    between atoms: C10_15  and  C11_16 
ROOT
HETATM    1  C3  UNL     1      24.387   0.900  52.628  1.00  0.00     0.035 A 
HETATM    2  C4  UNL     1      24.139  -0.279  53.489  1.00  0.00     0.083 A 
HETATM    3  C6  UNL     1      25.329  -0.523  53.991  1.00  0.00     0.070 A 
HETATM    4  C7  UNL     1      26.337   0.388  53.541  1.00  0.00     0.075 A 
HETATM    5  N1  UNL     1      27.650   0.422  53.857  1.00  0.00    -0.241 NA
HETATM    6  C8  UNL     1      28.463   1.360  53.335  1.00  0.00     0.235 A 
HETATM    7  N2  UNL     1      27.940   2.264  52.489  1.00  0.00    -0.224 NA
HETATM    8  C9  UNL     1      26.641   2.244  52.166  1.00  0.00     0.138 A 
HETATM    9  C19 UNL     1      25.782   1.303  52.678  1.00  0.00     0.053 A 
ENDROOT
BRANCH   8  10
HETATM   10  N3  UNL     1      26.074   3.201  51.294  1.00  0.00    -0.370 N 
HETATM   11  H10 UNL     1      25.543   4.045  51.562  1.00  0.00     0.161 HD
BRANCH  10  12
HETATM   12  C10 UNL     1      26.260   2.983  49.860  1.00  0.00     0.149 C 
BRANCH  12  13
HETATM   13  C11 UNL     1      27.089   4.016  49.253  1.00  0.00     0.004 C 
HETATM   14  C12 UNL     1      27.278   5.176  48.724  1.00  0.00    -0.039 A 
HETATM   15  C13 UNL     1      26.121   6.041  48.603  1.00  0.00     0.007 A 
HETATM   16  C18 UNL     1      28.560   5.656  48.232  1.00  0.00     0.007 A 
HETATM   17  C14 UNL     1      26.187   7.242  48.065  1.00  0.00    -0.018 A 
HETATM   18  C15 UNL     1      27.433   7.831  47.533  1.00  0.00     0.026 A 
HETATM   19  C16 UNL     1      27.730   9.050  48.399  1.00  0.00     0.018 C 
HETATM   20  C17 UNL     1      28.532   6.865  47.712  1.00  0.00    -0.018 A 
ENDBRANCH  12  13
ENDBRANCH  10  12
ENDBRANCH   8  10
BRANCH   1  21
HETATM   21  C2  UNL     1      23.491   1.521  51.903  1.00  0.00     0.149 C 
BRANCH  21  22
HETATM   22  O1  UNL     1      22.623   2.213  51.129  1.00  0.00    -0.367 OA
HETATM   23  C1  UNL     1      22.536   2.043  49.721  1.00  0.00     0.208 C 
ENDBRANCH  21  22
ENDBRANCH   1  21
BRANCH   2  24
HETATM   24  O2  UNL     1      22.922  -0.921  53.674  1.00  0.00    -0.355 OA
HETATM   25  C5  UNL     1      22.536  -1.270  55.001  1.00  0.00     0.210 C 
ENDBRANCH   2  24
TORSDOF 6
ENDMDL
MODEL 2
REMARK VINA RESULT:      -7.8      2.154      3.469
REMARK  6 active torsions:
REMARK  status: ('A' for Active; 'I' for Inactive)
REMARK    1  A    between atoms: O1_2  and  C2_3 
REMARK    2  A    between atoms: C2_3  and  C3_4 
REMARK    3  A    between atoms: C4_5  and  O2_6 
REMARK    4  A    between atoms: C9_13  and  N3_14 
REMARK    5  A    between atoms: N3_14  and  C10_15 
REMARK    6  A    between atoms: C10_15  and  C11_16 
ROOT
HETATM    1  C3  UNL     1      25.497   1.010  52.790  1.00  0.00     0.035 A 
HETATM    2  C4  UNL     1      25.324  -0.354  53.341  1.00  0.00     0.083 A 
HETATM    3  C6  UNL     1      24.016  -0.479  53.392  1.00  0.00     0.070 A 
HETATM    4  C7  UNL     1      23.312   0.676  52.924  1.00  0.00     0.075 A 
HETATM    5  N1  UNL     1      21.979   0.880  52.842  1.00  0.00    -0.241 NA
HETATM    6  C8  UNL     1      21.486   2.041  52.372  1.00  0.00     0.235 A 
HETATM    7  N2  UNL     1      22.348   2.996  51.984  1.00  0.00    -0.224 NA
HETATM    8  C9  UNL     1      23.672   2.809  52.059  1.00  0.00     0.138 A 
HETATM    9  C19 UNL     1      24.212   1.639  52.533  1.00  0.00     0.053 A 
ENDROOT
BRANCH   8  10
HETATM   10  N3  UNL     1      24.590   3.797  51.637  1.00  0.00    -0.370 N 
HETATM   11  H10 UNL     1      25.332   4.236  52.204  1.00  0.00     0.161 HD
BRANCH  10  12
HETATM   12  C10 UNL     1      24.489   4.246  50.248  1.00  0.00     0.149 C 
BRANCH  12  13
HETATM   13  C11 UNL     1      25.796   4.516  49.664  1.00  0.00     0.004 C 
HETATM   14  C12 UNL     1      26.640   5.250  49.025  1.00  0.00    -0.039 A 
HETATM   15  C13 UNL     1      26.180   6.553  48.584  1.00  0.00     0.007 A 
HETATM   16  C18 UNL     1      28.003   4.851  48.707  1.00  0.00     0.007 A 
HETATM   17  C14 UNL     1      26.947   7.384  47.909  1.00  0.00    -0.018 A 
HETATM   18  C15 UNL     1      28.343   7.084  47.532  1.00  0.00     0.026 A 
HETATM   19  C16 UNL     1      29.209   8.104  48.264  1.00  0.00     0.018 C 
HETATM   20  C17 UNL     1      28.695   5.743  48.032  1.00  0.00    -0.018 A 
ENDBRANCH  12  13
ENDBRANCH  10  12
ENDBRANCH   8  10
BRANCH   1  21
HETATM   21  C2  UNL     1      26.641   1.601  52.553  1.00  0.00     0.149 C 
BRANCH  21  22
HETATM   22  O1  UNL     1      27.834   2.219  52.387  1.00  0.00    -0.367 OA
HETATM   23  C1  UNL     1      28.720   2.491  53.463  1.00  0.00     0.208 C 
ENDBRANCH  21  22
ENDBRANCH   1  21
BRANCH   2  24
HETATM   24  O2  UNL     1      26.339  -1.232  53.696  1.00  0.00    -0.355 OA
HETATM   25  C5  UNL     1      26.989  -1.968  52.663  1.00  0.00     0.210 C 
ENDBRANCH   2  24
TORSDOF 6
ENDMDL
MODEL 3
REMARK VINA RESULT:      -7.7      1.430      1.574
REMARK  6 active torsions:
REMARK  status: ('A' for Active; 'I' for Inactive)
REMARK    1  A    between atoms: O1_2  and  C2_3 
REMARK    2  A    between atoms: C2_3  and  C3_4 
REMARK    3  A    between atoms: C4_5  and  O2_6 
REMARK    4  A    between atoms: C9_13  and  N3_14 
REMARK    5  A    between atoms: N3_14  and  C10_15 
REMARK    6  A    between atoms: C10_15  and  C11_16 
ROOT
HETATM    1  C3  UNL     1      23.445   1.805  52.529  1.00  0.00     0.035 A 
HETATM    2  C4  UNL     1      22.623   0.777  53.207  1.00  0.00     0.083 A 
HETATM    3  C6  UNL     1      23.495  -0.177  53.446  1.00  0.00     0.070 A 
HETATM    4  C7  UNL     1      24.817   0.129  52.989  1.00  0.00     0.075 A 
HETATM    5  N1  UNL     1      25.937  -0.621  53.073  1.00  0.00    -0.241 NA
HETATM    6  C8  UNL     1      27.108  -0.171  52.585  1.00  0.00     0.235 A 
HETATM    7  N2  UNL     1      27.140   1.042  52.008  1.00  0.00    -0.224 NA
HETATM    8  C9  UNL     1      26.039   1.798  51.917  1.00  0.00     0.138 A 
HETATM    9  C19 UNL     1      24.828   1.373  52.403  1.00  0.00     0.053 A 
ENDROOT
BRANCH   8  10
HETATM   10  N3  UNL     1      26.063   3.084  51.332  1.00  0.00    -0.370 N 
HETATM   11  H10 UNL     1      26.160   3.987  51.824  1.00  0.00     0.161 HD
BRANCH  10  12
HETATM   12  C10 UNL     1      25.946   3.152  49.876  1.00  0.00     0.149 C 
BRANCH  12  13
HETATM   13  C11 UNL     1      26.966   4.007  49.284  1.00  0.00     0.004 C 
HETATM   14  C12 UNL     1      27.375   5.098  48.731  1.00  0.00    -0.039 A 
HETATM   15  C13 UNL     1      26.388   6.139  48.521  1.00  0.00     0.007 A 
HETATM   16  C18 UNL     1      28.742   5.337  48.296  1.00  0.00     0.007 A 
HETATM   17  C14 UNL     1      26.683   7.290  47.952  1.00  0.00    -0.018 A 
HETATM   18  C15 UNL     1      28.035   7.641  47.471  1.00  0.00     0.026 A 
HETATM   19  C16 UNL     1      28.491   8.826  48.315  1.00  0.00     0.018 C 
HETATM   20  C17 UNL     1      28.944   6.513  47.739  1.00  0.00    -0.018 A 
ENDBRANCH  12  13
ENDBRANCH  10  12
ENDBRANCH   8  10
BRANCH   1  21
HETATM   21  C2  UNL     1      23.017   2.960  52.086  1.00  0.00     0.149 C 
BRANCH  21  22
HETATM   22  O1  UNL     1      22.502   4.137  51.660  1.00  0.00    -0.367 OA
HETATM   23  C1  UNL     1      23.270   5.328  51.565  1.00  0.00     0.208 C 
ENDBRANCH  21  22
ENDBRANCH   1  21
BRANCH   2  24
HETATM   24  O2  UNL     1      21.267   0.864  53.489  1.00  0.00    -0.355 OA
HETATM   25  C5  UNL     1      20.635  -0.244  54.127  1.00  0.00     0.210 C 
ENDBRANCH   2  24
TORSDOF 6
ENDMDL
MODEL 4
REMARK VINA RESULT:      -7.5      1.857      3.313
REMARK  6 active torsions:
REMARK  status: ('A' for Active; 'I' for Inactive)
REMARK    1  A    between atoms: O1_2  and  C2_3 
REMARK    2  A    between atoms: C2_3  and  C3_4 
REMARK    3  A    between atoms: C4_5  and  O2_6 
REMARK    4  A    between atoms: C9_13  and  N3_14 
REMARK    5  A    between atoms: N3_14  and  C10_15 
REMARK    6  A    between atoms: C10_15  and  C11_16 
ROOT
HETATM    1  C3  UNL     1      23.890   1.181  52.490  1.00  0.00     0.035 A 
HETATM    2  C4  UNL     1      22.756   0.387  53.017  1.00  0.00     0.083 A 
HETATM    3  C6  UNL     1      21.745   1.220  52.905  1.00  0.00     0.070 A 
HETATM    4  C7  UNL     1      22.109   2.489  52.352  1.00  0.00     0.075 A 
HETATM    5  N1  UNL     1      21.325   3.561  52.104  1.00  0.00    -0.241 NA
HETATM    6  C8  UNL     1      21.840   4.686  51.575  1.00  0.00     0.235 A 
HETATM    7  N2  UNL     1      23.155   4.722  51.297  1.00  0.00    -0.224 NA
HETATM    8  C9  UNL     1      23.945   3.668  51.537  1.00  0.00     0.138 A 
HETATM    9  C19 UNL     1      23.456   2.504  52.076  1.00  0.00     0.053 A 
ENDROOT
BRANCH   8  10
HETATM   10  N3  UNL     1      25.325   3.686  51.231  1.00  0.00    -0.370 N 
HETATM   11  H10 UNL     1      26.092   3.995  51.848  1.00  0.00     0.161 HD
BRANCH  10  12
HETATM   12  C10 UNL     1      25.716   3.212  49.904  1.00  0.00     0.149 C 
BRANCH  12  13
HETATM   13  C11 UNL     1      26.791   4.011  49.332  1.00  0.00     0.004 C 
HETATM   14  C12 UNL     1      27.270   5.083  48.800  1.00  0.00    -0.039 A 
HETATM   15  C13 UNL     1      26.351   6.187  48.602  1.00  0.00     0.007 A 
HETATM   16  C18 UNL     1      28.653   5.244  48.377  1.00  0.00     0.007 A 
HETATM   17  C14 UNL     1      26.721   7.326  48.053  1.00  0.00    -0.018 A 
HETATM   18  C15 UNL     1      28.096   7.600  47.586  1.00  0.00     0.026 A 
HETATM   19  C16 UNL     1      28.619   8.741  48.453  1.00  0.00     0.018 C 
HETATM   20  C17 UNL     1      28.931   6.414  47.841  1.00  0.00    -0.018 A 
ENDBRANCH  12  13
ENDBRANCH  10  12
ENDBRANCH   8  10
BRANCH   1  21
HETATM   21  C2  UNL     1      25.131   0.776  52.397  1.00  0.00     0.149 C 
BRANCH  21  22
HETATM   22  O1  UNL     1      26.413   0.376  52.223  1.00  0.00    -0.367 OA
HETATM   23  C1  UNL     1      27.519   1.053  52.802  1.00  0.00     0.208 C 
ENDBRANCH  21  22
ENDBRANCH   1  21
BRANCH   2  24
HETATM   24  O2  UNL     1      22.817  -0.914  53.497  1.00  0.00    -0.355 OA
HETATM   25  C5  UNL     1      22.221  -1.198  54.761  1.00  0.00     0.210 C 
ENDBRANCH   2  24
TORSDOF 6
ENDMDL
MODEL 5
REMARK VINA RESULT:      -7.4      2.281      3.244
REMARK  6 active torsions:
REMARK  status: ('A' for Active; 'I' for Inactive)
REMARK    1  A    between atoms: O1_2  and  C2_3 
REMARK    2  A    between atoms: C2_3  and  C3_4 
REMARK    3  A    between atoms: C4_5  and  O2_6 
REMARK    4  A    between atoms: C9_13  and  N3_14 
REMARK    5  A    between atoms: N3_14  and  C10_15 
REMARK    6  A    between atoms: C10_15  and  C11_16 
ROOT
HETATM    1  C3  UNL     1      23.580   1.203  52.880  1.00  0.00     0.035 A 
HETATM    2  C4  UNL     1      22.774   0.060  53.365  1.00  0.00     0.083 A 
HETATM    3  C6  UNL     1      23.690  -0.843  53.637  1.00  0.00     0.070 A 
HETATM    4  C7  UNL     1      25.026  -0.399  53.376  1.00  0.00     0.075 A 
HETATM    5  N1  UNL     1      26.188  -1.067  53.541  1.00  0.00    -0.241 NA
HETATM    6  C8  UNL     1      27.366  -0.489  53.242  1.00  0.00     0.235 A 
HETATM    7  N2  UNL     1      27.363   0.770  52.773  1.00  0.00    -0.224 NA
HETATM    8  C9  UNL     1      26.219   1.446  52.603  1.00  0.00     0.138 A 
HETATM    9  C19 UNL     1      25.000   0.889  52.897  1.00  0.00     0.053 A 
ENDROOT
BRANCH   8  10
HETATM   10  N3  UNL     1      26.203   2.777  52.130  1.00  0.00    -0.370 N 
HETATM   11  H10 UNL     1      25.927   3.620  52.659  1.00  0.00     0.161 HD
BRANCH  10  12
HETATM   12  C10 UNL     1      26.627   2.995  50.747  1.00  0.00     0.149 C 
BRANCH  12  13
HETATM   13  C11 UNL     1      25.729   3.893  50.034  1.00  0.00     0.004 C 
HETATM   14  C12 UNL     1      24.674   4.155  49.342  1.00  0.00    -0.039 A 
HETATM   15  C13 UNL     1      23.804   3.040  49.021  1.00  0.00     0.007 A 
HETATM   16  C18 UNL     1      24.316   5.478  48.855  1.00  0.00     0.007 A 
HETATM   17  C14 UNL     1      22.707   3.180  48.306  1.00  0.00    -0.018 A 
HETATM   18  C15 UNL     1      22.247   4.474  47.761  1.00  0.00     0.026 A 
HETATM   19  C16 UNL     1      20.915   4.773  48.441  1.00  0.00     0.018 C 
HETATM   20  C17 UNL     1      23.205   5.523  48.151  1.00  0.00    -0.018 A 
ENDBRANCH  12  13
ENDBRANCH  10  12
ENDBRANCH   8  10
BRANCH   1  21
HETATM   21  C2  UNL     1      23.110   2.358  52.480  1.00  0.00     0.149 C 
BRANCH  21  22
HETATM   22  O1  UNL     1      22.621   3.574  52.144  1.00  0.00    -0.367 OA
HETATM   23  C1  UNL     1      21.231   3.859  52.084  1.00  0.00     0.208 C 
ENDBRANCH  21  22
ENDBRANCH   1  21
BRANCH   2  24
HETATM   24  O2  UNL     1      21.391   0.019  53.480  1.00  0.00    -0.355 OA
HETATM   25  C5  UNL     1      20.807   0.328  54.743  1.00  0.00     0.210 C 
ENDBRANCH   2  24
TORSDOF 6
ENDMDL
MODEL 6
REMARK VINA RESULT:      -7.2      2.126      3.875
REMARK  6 active torsions:
REMARK  status: ('A' for Active; 'I' for Inactive)
REMARK    1  A    between atoms: O1_2  and  C2_3 
REMARK    2  A    between atoms: C2_3  and  C3_4 
REMARK    3  A    between atoms: C4_5  and  O2_6 
REMARK    4  A    between atoms: C9_13  and  N3_14 
REMARK    5  A    between atoms: N3_14  and  C10_15 
REMARK    6  A    between atoms: C10_15  and  C11_16 
ROOT
HETATM    1  C3  UNL     1      25.656   1.844  52.220  1.00  0.00     0.035 A 
HETATM    2  C4  UNL     1      24.931   0.690  52.799  1.00  0.00     0.083 A 
HETATM    3  C6  UNL     1      23.743   0.789  52.244  1.00  0.00     0.070 A 
HETATM    4  C7  UNL     1      23.620   1.901  51.351  1.00  0.00     0.075 A 
HETATM    5  N1  UNL     1      22.550   2.289  50.624  1.00  0.00    -0.241 NA
HETATM    6  C8  UNL     1      22.612   3.372  49.827  1.00  0.00     0.235 A 
HETATM    7  N2  UNL     1      23.764   4.063  49.770  1.00  0.00    -0.224 NA
HETATM    8  C9  UNL     1      24.833   3.691  50.484  1.00  0.00     0.138 A 
HETATM    9  C19 UNL     1      24.808   2.593  51.307  1.00  0.00     0.053 A 
ENDROOT
BRANCH   8  10
HETATM   10  N3  UNL     1      26.056   4.396  50.418  1.00  0.00    -0.370 N 
HETATM   11  H10 UNL     1      26.424   5.065  51.114  1.00  0.00     0.161 HD
BRANCH  10  12
HETATM   12  C10 UNL     1      26.898   4.155  49.247  1.00  0.00     0.149 C 
BRANCH  12  13
HETATM   13  C11 UNL     1      27.296   5.395  48.594  1.00  0.00     0.004 C 
HETATM   14  C12 UNL     1      28.166   6.205  48.096  1.00  0.00    -0.039 A 
HETATM   15  C13 UNL     1      29.553   5.786  48.132  1.00  0.00     0.007 A 
HETATM   16  C18 UNL     1      27.846   7.504  47.523  1.00  0.00     0.007 A 
HETATM   17  C14 UNL     1      30.532   6.536  47.668  1.00  0.00    -0.018 A 
HETATM   18  C15 UNL     1      30.325   7.869  47.067  1.00  0.00     0.026 A 
HETATM   19  C16 UNL     1      30.765   7.752  45.611  1.00  0.00     0.018 C 
HETATM   20  C17 UNL     1      28.886   8.183  47.085  1.00  0.00    -0.018 A 
ENDBRANCH  12  13
ENDBRANCH  10  12
ENDBRANCH   8  10
BRANCH   1  21
HETATM   21  C2  UNL     1      26.897   2.176  52.474  1.00  0.00     0.149 C 
BRANCH  21  22
HETATM   22  O1  UNL     1      28.189   2.531  52.659  1.00  0.00    -0.367 OA
HETATM   23  C1  UNL     1      28.929   2.182  53.820  1.00  0.00     0.208 C 
ENDBRANCH  21  22
ENDBRANCH   1  21
BRANCH   2  24
HETATM   24  O2  UNL     1      25.441  -0.231  53.704  1.00  0.00    -0.355 OA
HETATM   25  C5  UNL     1      26.365  -1.206  53.228  1.00  0.00     0.210 C 
ENDBRANCH   2  24
TORSDOF 6
ENDMDL
MODEL 7
REMARK VINA RESULT:      -7.2      3.448      7.188
REMARK  6 active torsions:
REMARK  status: ('A' for Active; 'I' for Inactive)
REMARK    1  A    between atoms: O1_2  and  C2_3 
REMARK    2  A    between atoms: C2_3  and  C3_4 
REMARK    3  A    between atoms: C4_5  and  O2_6 
REMARK    4  A    between atoms: C9_13  and  N3_14 
REMARK    5  A    between atoms: N3_14  and  C10_15 
REMARK    6  A    between atoms: C10_15  and  C11_16 
ROOT
HETATM    1  C3  UNL     1      23.413   3.275  52.226  1.00  0.00     0.035 A 
HETATM    2  C4  UNL     1      22.901   4.663  52.168  1.00  0.00     0.083 A 
HETATM    3  C6  UNL     1      21.599   4.487  52.121  1.00  0.00     0.070 A 
HETATM    4  C7  UNL     1      21.207   3.110  52.145  1.00  0.00     0.075 A 
HETATM    5  N1  UNL     1      19.963   2.583  52.110  1.00  0.00    -0.241 NA
HETATM    6  C8  UNL     1      19.777   1.250  52.142  1.00  0.00     0.235 A 
HETATM    7  N2  UNL     1      20.856   0.452  52.207  1.00  0.00    -0.224 NA
HETATM    8  C9  UNL     1      22.095   0.959  52.242  1.00  0.00     0.138 A 
HETATM    9  C19 UNL     1      22.324   2.312  52.212  1.00  0.00     0.053 A 
ENDROOT
BRANCH   8  10
HETATM   10  N3  UNL     1      23.237   0.132  52.331  1.00  0.00    -0.370 N 
HETATM   11  H10 UNL     1      23.935  -0.043  51.590  1.00  0.00     0.161 HD
BRANCH  10  12
HETATM   12  C10 UNL     1      23.466  -0.548  53.605  1.00  0.00     0.149 C 
BRANCH  12  13
HETATM   13  C11 UNL     1      24.790  -0.270  54.144  1.00  0.00     0.004 C 
HETATM   14  C12 UNL     1      26.076  -0.361  54.141  1.00  0.00    -0.039 A 
HETATM   15  C13 UNL     1      26.679  -1.132  53.071  1.00  0.00     0.007 A 
HETATM   16  C18 UNL     1      26.946   0.239  55.141  1.00  0.00     0.007 A 
HETATM   17  C14 UNL     1      27.980  -1.310  52.972  1.00  0.00    -0.018 A 
HETATM   18  C15 UNL     1      28.956  -0.748  53.929  1.00  0.00     0.026 A 
HETATM   19  C16 UNL     1      29.812   0.234  53.136  1.00  0.00     0.018 C 
HETATM   20  C17 UNL     1      28.229   0.010  54.962  1.00  0.00    -0.018 A 
ENDBRANCH  12  13
ENDBRANCH  10  12
ENDBRANCH   8  10
BRANCH   1  21
HETATM   21  C2  UNL     1      24.673   2.924  52.283  1.00  0.00     0.149 C 
BRANCH  21  22
HETATM   22  O1  UNL     1      25.962   2.511  52.282  1.00  0.00    -0.367 OA
HETATM   23  C1  UNL     1      26.598   1.967  51.134  1.00  0.00     0.208 C 
ENDBRANCH  21  22
ENDBRANCH   1  21
BRANCH   2  24
HETATM   24  O2  UNL     1      23.665   5.822  52.165  1.00  0.00    -0.355 OA
HETATM   25  C5  UNL     1      24.095   6.346  50.911  1.00  0.00     0.210 C 
ENDBRANCH   2  24
TORSDOF 6
ENDMDL
MODEL 8
REMARK VINA RESULT:      -7.1      3.651      7.831
REMARK  6 active torsions:
REMARK  status: ('A' for Active; 'I' for Inactive)
REMARK    1  A    between atoms: O1_2  and  C2_3 
REMARK    2  A    between atoms: C2_3  and  C3_4 
REMARK    3  A    between atoms: C4_5  and  O2_6 
REMARK    4  A    between atoms: C9_13  and  N3_14 
REMARK    5  A    between atoms: N3_14  and  C10_15 
REMARK    6  A    between atoms: C10_15  and  C11_16 
ROOT
HETATM    1  C3  UNL     1      26.099   0.922  52.923  1.00  0.00     0.035 A 
HETATM    2  C4  UNL     1      27.373   0.715  53.649  1.00  0.00     0.083 A 
HETATM    3  C6  UNL     1      27.016  -0.079  54.634  1.00  0.00     0.070 A 
HETATM    4  C7  UNL     1      25.625  -0.415  54.622  1.00  0.00     0.075 A 
HETATM    5  N1  UNL     1      24.936  -1.199  55.480  1.00  0.00    -0.241 NA
HETATM    6  C8  UNL     1      23.616  -1.409  55.316  1.00  0.00     0.235 A 
HETATM    7  N2  UNL     1      22.996  -0.820  54.280  1.00  0.00    -0.224 NA
HETATM    8  C9  UNL     1      23.665  -0.040  53.422  1.00  0.00     0.138 A 
HETATM    9  C19 UNL     1      25.010   0.197  53.556  1.00  0.00     0.053 A 
ENDROOT
BRANCH   8  10
HETATM   10  N3  UNL     1      23.028   0.570  52.316  1.00  0.00    -0.370 N 
HETATM   11  H10 UNL     1      23.240   0.416  51.317  1.00  0.00     0.161 HD
BRANCH  10  12
HETATM   12  C10 UNL     1      21.951   1.514  52.609  1.00  0.00     0.149 C 
BRANCH  12  13
HETATM   13  C11 UNL     1      20.696   1.126  51.979  1.00  0.00     0.004 C 
HETATM   14  C12 UNL     1      19.584   0.476  51.934  1.00  0.00    -0.039 A 
HETATM   15  C13 UNL     1      19.275  -0.378  53.063  1.00  0.00     0.007 A 
HETATM   16  C18 UNL     1      18.643   0.532  50.826  1.00  0.00     0.007 A 
HETATM   17  C14 UNL     1      18.176  -1.103  53.123  1.00  0.00    -0.018 A 
HETATM   18  C15 UNL     1      17.152  -1.124  52.059  1.00  0.00     0.026 A 
HETATM   19  C16 UNL     1      15.882  -0.552  52.680  1.00  0.00     0.018 C 
HETATM   20  C17 UNL     1      17.575  -0.223  50.972  1.00  0.00    -0.018 A 
ENDBRANCH  12  13
ENDBRANCH  10  12
ENDBRANCH   8  10
BRANCH   1  21
HETATM   21  C2  UNL     1      25.938   1.655  51.849  1.00  0.00     0.149 C 
BRANCH  21  22
HETATM   22  O1  UNL     1      25.711   2.448  50.777  1.00  0.00    -0.367 OA
HETATM   23  C1  UNL     1      24.701   3.447  50.754  1.00  0.00     0.208 C 
ENDBRANCH  21  22
ENDBRANCH   1  21
BRANCH   2  24
HETATM   24  O2  UNL     1      28.606   1.258  53.316  1.00  0.00    -0.355 OA
HETATM   25  C5  UNL     1      29.316   1.988  54.314  1.00  0.00     0.210 C 
ENDBRANCH   2  24
TORSDOF 6
ENDMDL
MODEL 9
REMARK VINA RESULT:      -7.1      4.332      6.350
REMARK  6 active torsions:
REMARK  status: ('A' for Active; 'I' for Inactive)
REMARK    1  A    between atoms: O1_2  and  C2_3 
REMARK    2  A    between atoms: C2_3  and  C3_4 
REMARK    3  A    between atoms: C4_5  and  O2_6 
REMARK    4  A    between atoms: C9_13  and  N3_14 
REMARK    5  A    between atoms: N3_14  and  C10_15 
REMARK    6  A    between atoms: C10_15  and  C11_16 
ROOT
HETATM    1  C3  UNL     1      19.858   0.515  51.995  1.00  0.00     0.035 A 
HETATM    2  C4  UNL     1      18.645  -0.320  52.151  1.00  0.00     0.083 A 
HETATM    3  C6  UNL     1      18.979  -1.131  53.131  1.00  0.00     0.070 A 
HETATM    4  C7  UNL     1      20.300  -0.906  53.634  1.00  0.00     0.075 A 
HETATM    5  N1  UNL     1      20.951  -1.553  54.625  1.00  0.00    -0.241 NA
HETATM    6  C8  UNL     1      22.204  -1.205  54.972  1.00  0.00     0.235 A 
HETATM    7  N2  UNL     1      22.798  -0.199  54.308  1.00  0.00    -0.224 NA
HETATM    8  C9  UNL     1      22.167   0.453  53.323  1.00  0.00     0.138 A 
HETATM    9  C19 UNL     1      20.889   0.127  52.943  1.00  0.00     0.053 A 
ENDROOT
BRANCH   8  10
HETATM   10  N3  UNL     1      22.772   1.526  52.632  1.00  0.00    -0.370 N 
HETATM   11  H10 UNL     1      22.599   2.534  52.778  1.00  0.00     0.161 HD
BRANCH  10  12
HETATM   12  C10 UNL     1      23.752   1.183  51.602  1.00  0.00     0.149 C 
BRANCH  12  13
HETATM   13  C11 UNL     1      25.111   1.522  52.005  1.00  0.00     0.004 C 
HETATM   14  C12 UNL     1      26.213   1.299  52.635  1.00  0.00    -0.039 A 
HETATM   15  C13 UNL     1      26.293   0.076  53.410  1.00  0.00     0.007 A 
HETATM   16  C18 UNL     1      27.358   2.196  52.631  1.00  0.00     0.007 A 
HETATM   17  C14 UNL     1      27.361  -0.251  54.109  1.00  0.00    -0.018 A 
HETATM   18  C15 UNL     1      28.579   0.582  54.177  1.00  0.00     0.026 A 
HETATM   19  C16 UNL     1      29.694  -0.243  53.543  1.00  0.00     0.018 C 
HETATM   20  C17 UNL     1      28.379   1.788  53.355  1.00  0.00    -0.018 A 
ENDBRANCH  12  13
ENDBRANCH  10  12
ENDBRANCH   8  10
BRANCH   1  21
HETATM   21  C2  UNL     1      20.016   1.482  51.127  1.00  0.00     0.149 C 
BRANCH  21  22
HETATM   22  O1  UNL     1      20.109   2.461  50.196  1.00  0.00    -0.367 OA
HETATM   23  C1  UNL     1      19.323   2.480  49.013  1.00  0.00     0.208 C 
ENDBRANCH  21  22
ENDBRANCH   1  21
BRANCH   2  24
HETATM   24  O2  UNL     1      17.476  -0.218  51.411  1.00  0.00    -0.355 OA
HETATM   25  C5  UNL     1      16.431   0.617  51.906  1.00  0.00     0.210 C 
ENDBRANCH   2  24
TORSDOF 6
ENDMDL
