MODEL 1
REMARK VINA RESULT:      -6.1      0.000      0.000
REMARK  8 active torsions:
REMARK  status: ('A' for Active; 'I' for Inactive)
REMARK    1  A    between atoms: C2_2  and  C3_3 
REMARK    2  A    between atoms: C3_3  and  C4_4 
REMARK    3  A    between atoms: C5_5  and  C6_6 
REMARK    4  A    between atoms: C5_5  and  N1_9 
REMARK    5  A    between atoms: C6_6  and  O1_7 
REMARK       I    between atoms: N1_9  and  C8_10 
REMARK    6  A    between atoms: C8_10  and  C9_12 
REMARK    7  A    between atoms: C10_13  and  C11_14 
REMARK    8  A    between atoms: C11_14  and  N2_16 
ROOT
HETATM    1  N1  UNL     1      25.603   0.445  52.557  1.00  0.00    -0.326 N 
HETATM    2  C8  UNL     1      26.129   1.733  52.287  1.00  0.00     0.245 C 
HETATM    3  O2  UNL     1      26.239   2.535  53.244  1.00  0.00    -0.268 OA
HETATM    4  H14 UNL     1      25.492  -0.263  51.786  1.00  0.00     0.169 HD
ENDROOT
BRANCH   2   5
HETATM    5  C9  UNL     1      26.510   2.055  50.922  1.00  0.00     0.072 C 
HETATM    6  C10 UNL     1      26.024   3.095  50.269  1.00  0.00     0.003 C 
BRANCH   6   7
HETATM    7  C11 UNL     1      25.096   4.210  50.458  1.00  0.00     0.098 C 
HETATM    8  C12 UNL     1      25.683   5.401  49.712  1.00  0.00     0.036 C 
BRANCH   7   9
HETATM    9  N2  UNL     1      23.735   3.986  50.230  1.00  0.00    -0.401 N 
HETATM   10  C13 UNL     1      22.792   4.169  51.260  1.00  0.00     0.143 C 
HETATM   11  C14 UNL     1      22.606   2.902  52.045  1.00  0.00     0.187 C 
HETATM   12  O3  UNL     1      22.981   1.773  51.351  1.00  0.00    -0.388 OA
HETATM   13  C15 UNL     1      22.658   1.851  49.994  1.00  0.00     0.187 C 
HETATM   14  C16 UNL     1      23.343   2.993  49.308  1.00  0.00     0.143 C 
ENDBRANCH   7   9
ENDBRANCH   6   7
ENDBRANCH   2   5
BRANCH   1  15
HETATM   15  C5  UNL     1      25.161  -0.117  53.777  1.00  0.00     0.032 C 
HETATM   16  C4  UNL     1      23.905  -0.522  53.867  1.00  0.00     0.001 C 
BRANCH  16  17
HETATM   17  C3  UNL     1      23.169  -1.128  54.979  1.00  0.00     0.029 C 
BRANCH  17  18
HETATM   18  C2  UNL     1      21.714  -1.226  54.532  1.00  0.00    -0.001 C 
HETATM   19  C1  UNL     1      21.072   0.121  54.488  1.00  0.00     0.005 C 
ENDBRANCH  17  18
ENDBRANCH  16  17
BRANCH  15  20
HETATM   20  C6  UNL     1      26.121  -0.222  54.900  1.00  0.00     0.223 C 
BRANCH  20  21
HETATM   21  O1  UNL     1      27.361  -0.720  54.528  1.00  0.00    -0.390 OA
HETATM   22  C7  UNL     1      28.396   0.150  54.868  1.00  0.00     0.201 C 
ENDBRANCH  20  21
ENDBRANCH  15  20
ENDBRANCH   1  15
TORSDOF 8
ENDMDL
MODEL 2
REMARK VINA RESULT:      -5.7      1.532      2.207
REMARK  8 active torsions:
REMARK  status: ('A' for Active; 'I' for Inactive)
REMARK    1  A    between atoms: C2_2  and  C3_3 
REMARK    2  A    between atoms: C3_3  and  C4_4 
REMARK    3  A    between atoms: C5_5  and  C6_6 
REMARK    4  A    between atoms: C5_5  and  N1_9 
REMARK    5  A    between atoms: C6_6  and  O1_7 
REMARK       I    between atoms: N1_9  and  C8_10 
REMARK    6  A    between atoms: C8_10  and  C9_12 
REMARK    7  A    between atoms: C10_13  and  C11_14 
REMARK    8  A    between atoms: C11_14  and  N2_16 
ROOT
HETATM    1  N1  UNL     1      25.136   0.601  52.552  1.00  0.00    -0.326 N 
HETATM    2  C8  UNL     1      25.324   1.994  52.375  1.00  0.00     0.245 C 
HETATM    3  O2  UNL     1      25.113   2.745  53.356  1.00  0.00    -0.268 OA
HETATM    4  H14 UNL     1      25.302  -0.069  51.757  1.00  0.00     0.169 HD
ENDROOT
BRANCH   2   5
HETATM    5  C9  UNL     1      25.748   2.478  51.072  1.00  0.00     0.072 C 
HETATM    6  C10 UNL     1      24.928   3.078  50.229  1.00  0.00     0.003 C 
BRANCH   6   7
HETATM    7  C11 UNL     1      23.529   3.494  50.121  1.00  0.00     0.098 C 
HETATM    8  C12 UNL     1      22.709   2.228  49.912  1.00  0.00     0.036 C 
BRANCH   7   9
HETATM    9  N2  UNL     1      23.023   4.371  51.085  1.00  0.00    -0.401 N 
HETATM   10  C13 UNL     1      21.643   4.422  51.360  1.00  0.00     0.143 C 
HETATM   11  C14 UNL     1      20.957   5.415  50.466  1.00  0.00     0.187 C 
HETATM   12  O3  UNL     1      21.812   6.363  49.950  1.00  0.00    -0.388 OA
HETATM   13  C15 UNL     1      22.791   6.753  50.868  1.00  0.00     0.187 C 
HETATM   14  C16 UNL     1      23.662   5.611  51.294  1.00  0.00     0.143 C 
ENDBRANCH   7   9
ENDBRANCH   6   7
ENDBRANCH   2   5
BRANCH   1  15
HETATM   15  C5  UNL     1      24.733  -0.121  53.699  1.00  0.00     0.032 C 
HETATM   16  C4  UNL     1      23.461  -0.466  53.814  1.00  0.00     0.001 C 
BRANCH  16  17
HETATM   17  C3  UNL     1      22.756  -1.198  54.868  1.00  0.00     0.029 C 
BRANCH  17  18
HETATM   18  C2  UNL     1      21.277  -1.177  54.494  1.00  0.00    -0.001 C 
HETATM   19  C1  UNL     1      20.772   0.223  54.377  1.00  0.00     0.005 C 
ENDBRANCH  17  18
ENDBRANCH  16  17
BRANCH  15  20
HETATM   20  C6  UNL     1      25.751  -0.455  54.722  1.00  0.00     0.223 C 
BRANCH  20  21
HETATM   21  O1  UNL     1      27.014  -0.688  54.197  1.00  0.00    -0.390 OA
HETATM   22  C7  UNL     1      27.971   0.164  54.743  1.00  0.00     0.201 C 
ENDBRANCH  20  21
ENDBRANCH  15  20
ENDBRANCH   1  15
TORSDOF 8
ENDMDL
MODEL 3
REMARK VINA RESULT:      -5.7      1.838      6.709
REMARK  8 active torsions:
REMARK  status: ('A' for Active; 'I' for Inactive)
REMARK    1  A    between atoms: C2_2  and  C3_3 
REMARK    2  A    between atoms: C3_3  and  C4_4 
REMARK    3  A    between atoms: C5_5  and  C6_6 
REMARK    4  A    between atoms: C5_5  and  N1_9 
REMARK    5  A    between atoms: C6_6  and  O1_7 
REMARK       I    between atoms: N1_9  and  C8_10 
REMARK    6  A    between atoms: C8_10  and  C9_12 
REMARK    7  A    between atoms: C10_13  and  C11_14 
REMARK    8  A    between atoms: C11_14  and  N2_16 
ROOT
HETATM    1  N1  UNL     1      23.344   2.025  50.826  1.00  0.00    -0.326 N 
HETATM    2  C8  UNL     1      23.549   1.799  52.209  1.00  0.00     0.245 C 
HETATM    3  O2  UNL     1      23.671   2.798  52.957  1.00  0.00    -0.268 OA
HETATM    4  H14 UNL     1      23.235   1.218  50.159  1.00  0.00     0.169 HD
ENDROOT
BRANCH   2   5
HETATM    5  C9  UNL     1      23.608   0.428  52.688  1.00  0.00     0.072 C 
HETATM    6  C10 UNL     1      24.584  -0.021  53.456  1.00  0.00     0.003 C 
BRANCH   6   7
HETATM    7  C11 UNL     1      25.816   0.439  54.096  1.00  0.00     0.098 C 
HETATM    8  C12 UNL     1      26.019  -0.427  55.333  1.00  0.00     0.036 C 
BRANCH   7   9
HETATM    9  N2  UNL     1      26.954   0.606  53.302  1.00  0.00    -0.401 N 
HETATM   10  C13 UNL     1      28.095  -0.194  53.499  1.00  0.00     0.143 C 
HETATM   11  C14 UNL     1      29.019   0.432  54.504  1.00  0.00     0.187 C 
HETATM   12  O3  UNL     1      28.831   1.789  54.643  1.00  0.00    -0.388 OA
HETATM   13  C15 UNL     1      28.534   2.413  53.429  1.00  0.00     0.187 C 
HETATM   14  C16 UNL     1      27.272   1.890  52.812  1.00  0.00     0.143 C 
ENDBRANCH   7   9
ENDBRANCH   6   7
ENDBRANCH   2   5
BRANCH   1  15
HETATM   15  C5  UNL     1      23.248   3.241  50.110  1.00  0.00     0.032 C 
HETATM   16  C4  UNL     1      24.365   3.852  49.751  1.00  0.00     0.001 C 
BRANCH  16  17
HETATM   17  C3  UNL     1      24.583   5.102  49.020  1.00  0.00     0.029 C 
BRANCH  17  18
HETATM   18  C2  UNL     1      26.094   5.268  48.887  1.00  0.00    -0.001 C 
HETATM   19  C1  UNL     1      26.813   4.057  49.380  1.00  0.00     0.005 C 
ENDBRANCH  17  18
ENDBRANCH  16  17
BRANCH  15  20
HETATM   20  C6  UNL     1      21.903   3.778  49.799  1.00  0.00     0.223 C 
BRANCH  20  21
HETATM   21  O1  UNL     1      21.405   4.632  50.772  1.00  0.00    -0.390 OA
HETATM   22  C7  UNL     1      20.511   3.988  51.625  1.00  0.00     0.201 C 
ENDBRANCH  20  21
ENDBRANCH  15  20
ENDBRANCH   1  15
TORSDOF 8
ENDMDL
MODEL 4
REMARK VINA RESULT:      -5.6      1.555      3.366
REMARK  8 active torsions:
REMARK  status: ('A' for Active; 'I' for Inactive)
REMARK    1  A    between atoms: C2_2  and  C3_3 
REMARK    2  A    between atoms: C3_3  and  C4_4 
REMARK    3  A    between atoms: C5_5  and  C6_6 
REMARK    4  A    between atoms: C5_5  and  N1_9 
REMARK    5  A    between atoms: C6_6  and  O1_7 
REMARK       I    between atoms: N1_9  and  C8_10 
REMARK    6  A    between atoms: C8_10  and  C9_12 
REMARK    7  A    between atoms: C10_13  and  C11_14 
REMARK    8  A    between atoms: C11_14  and  N2_16 
ROOT
HETATM    1  N1  UNL     1      25.647   1.555  51.326  1.00  0.00    -0.326 N 
HETATM    2  C8  UNL     1      26.462   2.659  50.976  1.00  0.00     0.245 C 
HETATM    3  O2  UNL     1      27.541   2.814  51.597  1.00  0.00    -0.268 OA
HETATM    4  H14 UNL     1      24.733   1.383  50.832  1.00  0.00     0.169 HD
ENDROOT
BRANCH   2   5
HETATM    5  C9  UNL     1      26.009   3.551  49.922  1.00  0.00     0.072 C 
HETATM    6  C10 UNL     1      24.931   4.306  50.037  1.00  0.00     0.003 C 
BRANCH   6   7
HETATM    7  C11 UNL     1      23.867   4.612  50.993  1.00  0.00     0.098 C 
HETATM    8  C12 UNL     1      23.933   6.111  51.258  1.00  0.00     0.036 C 
BRANCH   7   9
HETATM    9  N2  UNL     1      22.586   4.115  50.741  1.00  0.00    -0.401 N 
HETATM   10  C13 UNL     1      21.776   3.640  51.791  1.00  0.00     0.143 C 
HETATM   11  C14 UNL     1      22.018   2.177  52.031  1.00  0.00     0.187 C 
HETATM   12  O3  UNL     1      22.560   1.530  50.943  1.00  0.00    -0.388 OA
HETATM   13  C15 UNL     1      22.045   2.001  49.732  1.00  0.00     0.187 C 
HETATM   14  C16 UNL     1      22.328   3.457  49.520  1.00  0.00     0.143 C 
ENDBRANCH   7   9
ENDBRANCH   6   7
ENDBRANCH   2   5
BRANCH   1  15
HETATM   15  C5  UNL     1      25.850   0.550  52.300  1.00  0.00     0.032 C 
HETATM   16  C4  UNL     1      26.907  -0.238  52.185  1.00  0.00     0.001 C 
BRANCH  16  17
HETATM   17  C3  UNL     1      27.372  -1.348  53.018  1.00  0.00     0.029 C 
BRANCH  17  18
HETATM   18  C2  UNL     1      28.440  -0.776  53.945  1.00  0.00    -0.001 C 
HETATM   19  C1  UNL     1      29.805  -0.963  53.374  1.00  0.00     0.005 C 
ENDBRANCH  17  18
ENDBRANCH  16  17
BRANCH  15  20
HETATM   20  C6  UNL     1      24.868   0.420  53.402  1.00  0.00     0.223 C 
BRANCH  20  21
HETATM   21  O1  UNL     1      23.908  -0.556  53.181  1.00  0.00    -0.390 OA
HETATM   22  C7  UNL     1      23.159  -0.820  54.326  1.00  0.00     0.201 C 
ENDBRANCH  20  21
ENDBRANCH  15  20
ENDBRANCH   1  15
TORSDOF 8
ENDMDL
MODEL 5
REMARK VINA RESULT:      -5.6      1.841      3.145
REMARK  8 active torsions:
REMARK  status: ('A' for Active; 'I' for Inactive)
REMARK    1  A    between atoms: C2_2  and  C3_3 
REMARK    2  A    between atoms: C3_3  and  C4_4 
REMARK    3  A    between atoms: C5_5  and  C6_6 
REMARK    4  A    between atoms: C5_5  and  N1_9 
REMARK    5  A    between atoms: C6_6  and  O1_7 
REMARK       I    between atoms: N1_9  and  C8_10 
REMARK    6  A    between atoms: C8_10  and  C9_12 
REMARK    7  A    between atoms: C10_13  and  C11_14 
REMARK    8  A    between atoms: C11_14  and  N2_16 
ROOT
HETATM    1  N1  UNL     1      26.189   3.126  51.537  1.00  0.00    -0.326 N 
HETATM    2  C8  UNL     1      26.242   3.668  50.230  1.00  0.00     0.245 C 
HETATM    3  O2  UNL     1      26.976   3.100  49.386  1.00  0.00    -0.268 OA
HETATM    4  H14 UNL     1      25.587   3.568  52.279  1.00  0.00     0.169 HD
ENDROOT
BRANCH   2   5
HETATM    5  C9  UNL     1      25.449   4.850  49.935  1.00  0.00     0.072 C 
HETATM    6  C10 UNL     1      24.137   4.812  49.783  1.00  0.00     0.003 C 
BRANCH   6   7
HETATM    7  C11 UNL     1      23.027   3.860  49.810  1.00  0.00     0.098 C 
HETATM    8  C12 UNL     1      23.177   2.975  48.579  1.00  0.00     0.036 C 
BRANCH   7   9
HETATM    9  N2  UNL     1      22.771   3.173  51.001  1.00  0.00    -0.401 N 
HETATM   10  C13 UNL     1      22.507   1.790  50.993  1.00  0.00     0.143 C 
HETATM   11  C14 UNL     1      21.037   1.529  50.827  1.00  0.00     0.187 C 
HETATM   12  O3  UNL     1      20.250   2.599  51.192  1.00  0.00    -0.388 OA
HETATM   13  C15 UNL     1      20.755   3.276  52.305  1.00  0.00     0.187 C 
HETATM   14  C16 UNL     1      22.120   3.843  52.058  1.00  0.00     0.143 C 
ENDBRANCH   7   9
ENDBRANCH   6   7
ENDBRANCH   2   5
BRANCH   1  15
HETATM   15  C5  UNL     1      26.852   2.000  52.080  1.00  0.00     0.032 C 
HETATM   16  C4  UNL     1      26.320   0.804  51.895  1.00  0.00     0.001 C 
BRANCH  16  17
HETATM   17  C3  UNL     1      26.763  -0.522  52.332  1.00  0.00     0.029 C 
BRANCH  17  18
HETATM   18  C2  UNL     1      25.954  -0.860  53.580  1.00  0.00    -0.001 C 
HETATM   19  C1  UNL     1      24.518  -0.492  53.406  1.00  0.00     0.005 C 
ENDBRANCH  17  18
ENDBRANCH  16  17
BRANCH  15  20
HETATM   20  C6  UNL     1      28.108   2.213  52.836  1.00  0.00     0.223 C 
BRANCH  20  21
HETATM   21  O1  UNL     1      27.983   1.990  54.199  1.00  0.00    -0.390 OA
HETATM   22  C7  UNL     1      28.982   1.149  54.684  1.00  0.00     0.201 C 
ENDBRANCH  20  21
ENDBRANCH  15  20
ENDBRANCH   1  15
TORSDOF 8
ENDMDL
MODEL 6
REMARK VINA RESULT:      -5.5      2.186      5.715
REMARK  8 active torsions:
REMARK  status: ('A' for Active; 'I' for Inactive)
REMARK    1  A    between atoms: C2_2  and  C3_3 
REMARK    2  A    between atoms: C3_3  and  C4_4 
REMARK    3  A    between atoms: C5_5  and  C6_6 
REMARK    4  A    between atoms: C5_5  and  N1_9 
REMARK    5  A    between atoms: C6_6  and  O1_7 
REMARK       I    between atoms: N1_9  and  C8_10 
REMARK    6  A    between atoms: C8_10  and  C9_12 
REMARK    7  A    between atoms: C10_13  and  C11_14 
REMARK    8  A    between atoms: C11_14  and  N2_16 
ROOT
HETATM    1  N1  UNL     1      23.583   1.297  51.457  1.00  0.00    -0.326 N 
HETATM    2  C8  UNL     1      24.724   1.558  52.254  1.00  0.00     0.245 C 
HETATM    3  O2  UNL     1      24.542   1.961  53.427  1.00  0.00    -0.268 OA
HETATM    4  H14 UNL     1      23.685   0.957  50.466  1.00  0.00     0.169 HD
ENDROOT
BRANCH   2   5
HETATM    5  C9  UNL     1      26.040   1.349  51.673  1.00  0.00     0.072 C 
HETATM    6  C10 UNL     1      26.839   0.365  52.044  1.00  0.00     0.003 C 
BRANCH   6   7
HETATM    7  C11 UNL     1      26.878  -0.764  52.974  1.00  0.00     0.098 C 
HETATM    8  C12 UNL     1      26.681  -2.025  52.142  1.00  0.00     0.036 C 
BRANCH   7   9
HETATM    9  N2  UNL     1      27.925  -0.826  53.897  1.00  0.00    -0.401 N 
HETATM   10  C13 UNL     1      28.082   0.173  54.878  1.00  0.00     0.143 C 
HETATM   11  C14 UNL     1      28.942   1.293  54.366  1.00  0.00     0.187 C 
HETATM   12  O3  UNL     1      29.751   0.920  53.316  1.00  0.00    -0.388 OA
HETATM   13  C15 UNL     1      30.246  -0.379  53.460  1.00  0.00     0.187 C 
HETATM   14  C16 UNL     1      29.153  -1.402  53.512  1.00  0.00     0.143 C 
ENDBRANCH   7   9
ENDBRANCH   6   7
ENDBRANCH   2   5
BRANCH   1  15
HETATM   15  C5  UNL     1      22.209   1.416  51.772  1.00  0.00     0.032 C 
HETATM   16  C4  UNL     1      21.512   0.313  51.988  1.00  0.00     0.001 C 
BRANCH  16  17
HETATM   17  C3  UNL     1      20.100   0.120  52.323  1.00  0.00     0.029 C 
BRANCH  17  18
HETATM   18  C2  UNL     1      20.062  -0.400  53.756  1.00  0.00    -0.001 C 
HETATM   19  C1  UNL     1      21.224  -1.293  54.036  1.00  0.00     0.005 C 
ENDBRANCH  17  18
ENDBRANCH  16  17
BRANCH  15  20
HETATM   20  C6  UNL     1      21.612   2.770  51.841  1.00  0.00     0.223 C 
BRANCH  20  21
HETATM   21  O1  UNL     1      22.305   3.724  51.110  1.00  0.00    -0.390 OA
HETATM   22  C7  UNL     1      22.541   4.880  51.851  1.00  0.00     0.201 C 
ENDBRANCH  20  21
ENDBRANCH  15  20
ENDBRANCH   1  15
TORSDOF 8
ENDMDL
MODEL 7
REMARK VINA RESULT:      -5.5      2.151      4.170
REMARK  8 active torsions:
REMARK  status: ('A' for Active; 'I' for Inactive)
REMARK    1  A    between atoms: C2_2  and  C3_3 
REMARK    2  A    between atoms: C3_3  and  C4_4 
REMARK    3  A    between atoms: C5_5  and  C6_6 
REMARK    4  A    between atoms: C5_5  and  N1_9 
REMARK    5  A    between atoms: C6_6  and  O1_7 
REMARK       I    between atoms: N1_9  and  C8_10 
REMARK    6  A    between atoms: C8_10  and  C9_12 
REMARK    7  A    between atoms: C10_13  and  C11_14 
REMARK    8  A    between atoms: C11_14  and  N2_16 
ROOT
HETATM    1  N1  UNL     1      25.909   1.180  51.668  1.00  0.00    -0.326 N 
HETATM    2  C8  UNL     1      25.008   2.273  51.672  1.00  0.00     0.245 C 
HETATM    3  O2  UNL     1      24.773   2.838  52.767  1.00  0.00    -0.268 OA
HETATM    4  H14 UNL     1      26.137   0.675  50.774  1.00  0.00     0.169 HD
ENDROOT
BRANCH   2   5
HETATM    5  C9  UNL     1      24.405   2.681  50.414  1.00  0.00     0.072 C 
HETATM    6  C10 UNL     1      24.811   3.739  49.736  1.00  0.00     0.003 C 
BRANCH   6   7
HETATM    7  C11 UNL     1      25.803   4.812  49.809  1.00  0.00     0.098 C 
HETATM    8  C12 UNL     1      27.066   4.288  49.139  1.00  0.00     0.036 C 
BRANCH   7   9
HETATM    9  N2  UNL     1      25.419   6.098  49.418  1.00  0.00    -0.401 N 
HETATM   10  C13 UNL     1      25.465   7.172  50.326  1.00  0.00     0.143 C 
HETATM   11  C14 UNL     1      24.170   7.292  51.077  1.00  0.00     0.187 C 
HETATM   12  O3  UNL     1      23.109   6.701  50.427  1.00  0.00    -0.388 OA
HETATM   13  C15 UNL     1      23.173   6.867  49.041  1.00  0.00     0.187 C 
HETATM   14  C16 UNL     1      24.405   6.251  48.450  1.00  0.00     0.143 C 
ENDBRANCH   7   9
ENDBRANCH   6   7
ENDBRANCH   2   5
BRANCH   1  15
HETATM   15  C5  UNL     1      26.622   0.588  52.737  1.00  0.00     0.032 C 
HETATM   16  C4  UNL     1      27.772   1.128  53.104  1.00  0.00     0.001 C 
BRANCH  16  17
HETATM   17  C3  UNL     1      28.722   0.746  54.152  1.00  0.00     0.029 C 
BRANCH  17  18
HETATM   18  C2  UNL     1      29.853  -0.006  53.457  1.00  0.00    -0.001 C 
HETATM   19  C1  UNL     1      29.634  -1.481  53.515  1.00  0.00     0.005 C 
ENDBRANCH  17  18
ENDBRANCH  16  17
BRANCH  15  20
HETATM   20  C6  UNL     1      26.052  -0.611  53.393  1.00  0.00     0.223 C 
BRANCH  20  21
HETATM   21  O1  UNL     1      24.720  -0.839  53.080  1.00  0.00    -0.390 OA
HETATM   22  C7  UNL     1      23.876  -0.547  54.149  1.00  0.00     0.201 C 
ENDBRANCH  20  21
ENDBRANCH  15  20
ENDBRANCH   1  15
TORSDOF 8
ENDMDL
MODEL 8
REMARK VINA RESULT:      -5.4      2.620      4.208
REMARK  8 active torsions:
REMARK  status: ('A' for Active; 'I' for Inactive)
REMARK    1  A    between atoms: C2_2  and  C3_3 
REMARK    2  A    between atoms: C3_3  and  C4_4 
REMARK    3  A    between atoms: C5_5  and  C6_6 
REMARK    4  A    between atoms: C5_5  and  N1_9 
REMARK    5  A    between atoms: C6_6  and  O1_7 
REMARK       I    between atoms: N1_9  and  C8_10 
REMARK    6  A    between atoms: C8_10  and  C9_12 
REMARK    7  A    between atoms: C10_13  and  C11_14 
REMARK    8  A    between atoms: C11_14  and  N2_16 
ROOT
HETATM    1  N1  UNL     1      26.815   3.042  51.184  1.00  0.00    -0.326 N 
HETATM    2  C8  UNL     1      26.156   3.466  50.004  1.00  0.00     0.245 C 
HETATM    3  O2  UNL     1      25.053   2.939  49.724  1.00  0.00    -0.268 OA
HETATM    4  H14 UNL     1      27.742   3.456  51.461  1.00  0.00     0.169 HD
ENDROOT
BRANCH   2   5
HETATM    5  C9  UNL     1      26.789   4.484  49.183  1.00  0.00     0.072 C 
HETATM    6  C10 UNL     1      26.368   5.735  49.142  1.00  0.00     0.003 C 
BRANCH   6   7
HETATM    7  C11 UNL     1      25.333   6.595  49.717  1.00  0.00     0.098 C 
HETATM    8  C12 UNL     1      26.039   7.833  50.255  1.00  0.00     0.036 C 
BRANCH   7   9
HETATM    9  N2  UNL     1      24.189   6.854  48.956  1.00  0.00    -0.401 N 
HETATM   10  C13 UNL     1      23.412   8.004  49.191  1.00  0.00     0.143 C 
HETATM   11  C14 UNL     1      22.353   7.732  50.221  1.00  0.00     0.187 C 
HETATM   12  O3  UNL     1      22.051   6.394  50.349  1.00  0.00    -0.388 OA
HETATM   13  C15 UNL     1      22.075   5.723  49.124  1.00  0.00     0.187 C 
HETATM   14  C16 UNL     1      23.423   5.773  48.472  1.00  0.00     0.143 C 
ENDBRANCH   7   9
ENDBRANCH   6   7
ENDBRANCH   2   5
BRANCH   1  15
HETATM   15  C5  UNL     1      26.424   2.081  52.146  1.00  0.00     0.032 C 
HETATM   16  C4  UNL     1      26.777   0.820  51.959  1.00  0.00     0.001 C 
BRANCH  16  17
HETATM   17  C3  UNL     1      26.522  -0.378  52.761  1.00  0.00     0.029 C 
BRANCH  17  18
HETATM   18  C2  UNL     1      27.585  -0.401  53.855  1.00  0.00    -0.001 C 
HETATM   19  C1  UNL     1      28.885  -0.914  53.332  1.00  0.00     0.005 C 
ENDBRANCH  17  18
ENDBRANCH  16  17
BRANCH  15  20
HETATM   20  C6  UNL     1      25.632   2.528  53.315  1.00  0.00     0.223 C 
BRANCH  20  21
HETATM   21  O1  UNL     1      24.366   2.990  52.988  1.00  0.00    -0.390 OA
HETATM   22  C7  UNL     1      23.452   1.949  52.844  1.00  0.00     0.201 C 
ENDBRANCH  20  21
ENDBRANCH  15  20
ENDBRANCH   1  15
TORSDOF 8
ENDMDL
MODEL 9
REMARK VINA RESULT:      -5.4      2.302      3.419
REMARK  8 active torsions:
REMARK  status: ('A' for Active; 'I' for Inactive)
REMARK    1  A    between atoms: C2_2  and  C3_3 
REMARK    2  A    between atoms: C3_3  and  C4_4 
REMARK    3  A    between atoms: C5_5  and  C6_6 
REMARK    4  A    between atoms: C5_5  and  N1_9 
REMARK    5  A    between atoms: C6_6  and  O1_7 
REMARK       I    between atoms: N1_9  and  C8_10 
REMARK    6  A    between atoms: C8_10  and  C9_12 
REMARK    7  A    between atoms: C10_13  and  C11_14 
REMARK    8  A    between atoms: C11_14  and  N2_16 
ROOT
HETATM    1  N1  UNL     1      26.139   3.174  51.404  1.00  0.00    -0.326 N 
HETATM    2  C8  UNL     1      26.230   3.759  50.117  1.00  0.00     0.245 C 
HETATM    3  O2  UNL     1      27.060   3.277  49.309  1.00  0.00    -0.268 OA
HETATM    4  H14 UNL     1      25.457   3.544  52.115  1.00  0.00     0.169 HD
ENDROOT
BRANCH   2   5
HETATM    5  C9  UNL     1      25.362   4.881  49.800  1.00  0.00     0.072 C 
HETATM    6  C10 UNL     1      24.045   4.805  49.856  1.00  0.00     0.003 C 
BRANCH   6   7
HETATM    7  C11 UNL     1      22.984   3.849  50.173  1.00  0.00     0.098 C 
HETATM    8  C12 UNL     1      22.574   4.110  51.617  1.00  0.00     0.036 C 
BRANCH   7   9
HETATM    9  N2  UNL     1      21.921   3.717  49.275  1.00  0.00    -0.401 N 
HETATM   10  C13 UNL     1      21.021   2.639  49.376  1.00  0.00     0.143 C 
HETATM   11  C14 UNL     1      21.505   1.463  48.578  1.00  0.00     0.187 C 
HETATM   12  O3  UNL     1      22.394   1.808  47.585  1.00  0.00    -0.388 OA
HETATM   13  C15 UNL     1      22.068   3.024  46.978  1.00  0.00     0.187 C 
HETATM   14  C16 UNL     1      22.079   4.167  47.947  1.00  0.00     0.143 C 
ENDBRANCH   7   9
ENDBRANCH   6   7
ENDBRANCH   2   5
BRANCH   1  15
HETATM   15  C5  UNL     1      26.856   2.090  51.961  1.00  0.00     0.032 C 
HETATM   16  C4  UNL     1      26.340   0.876  51.867  1.00  0.00     0.001 C 
BRANCH  16  17
HETATM   17  C3  UNL     1      26.836  -0.418  52.341  1.00  0.00     0.029 C 
BRANCH  17  18
HETATM   18  C2  UNL     1      25.788  -0.954  53.312  1.00  0.00    -0.001 C 
HETATM   19  C1  UNL     1      25.869  -0.256  54.629  1.00  0.00     0.005 C 
ENDBRANCH  17  18
ENDBRANCH  16  17
BRANCH  15  20
HETATM   20  C6  UNL     1      28.150   2.363  52.628  1.00  0.00     0.223 C 
BRANCH  20  21
HETATM   21  O1  UNL     1      28.074   2.369  54.013  1.00  0.00    -0.390 OA
HETATM   22  C7  UNL     1      29.210   1.816  54.600  1.00  0.00     0.201 C 
ENDBRANCH  20  21
ENDBRANCH  15  20
ENDBRANCH   1  15
TORSDOF 8
ENDMDL
