MODEL 1
REMARK VINA RESULT:      -6.4      0.000      0.000
REMARK  6 active torsions:
REMARK  status: ('A' for Active; 'I' for Inactive)
REMARK    1  A    between atoms: O1_2  and  C2_3 
REMARK    2  A    between atoms: N1_7  and  C6_8 
REMARK    3  A    between atoms: N2_9  and  C7_10 
REMARK    4  A    between atoms: C7_10  and  S1_11 
REMARK    5  A    between atoms: S1_11  and  C8_12 
REMARK    6  A    between atoms: C15_20  and  O2_21 
ROOT
HETATM    1  C2  UNL     1      31.110   7.587  47.684  1.00  0.00     0.098 A 
HETATM    2  C3  UNL     1      31.350   6.289  47.695  1.00  0.00     0.019 A 
HETATM    3  C4  UNL     1      30.346   5.244  47.973  1.00  0.00     0.089 A 
HETATM    4  C5  UNL     1      29.009   5.823  48.245  1.00  0.00     0.042 A 
HETATM    5  N1  UNL     1      28.062   5.014  48.497  1.00  0.00    -0.245 NA
HETATM    6  C14 UNL     1      28.794   7.265  48.221  1.00  0.00     0.067 A 
HETATM    7  C15 UNL     1      29.778   8.109  47.958  1.00  0.00     0.103 A 
ENDROOT
BRANCH   5   8
HETATM    8  C6  UNL     1      26.720   5.441  48.778  1.00  0.00     0.244 C 
HETATM    9  N2  UNL     1      25.788   4.934  49.554  1.00  0.00    -0.192 NA
BRANCH   9  10
HETATM   10  C7  UNL     1      25.937   3.824  50.292  1.00  0.00     0.035 C 
BRANCH  10  11
HETATM   11  S1  UNL     1      26.088   2.642  51.104  1.00  0.00    -0.027 SA
BRANCH  11  12
HETATM   12  C8  UNL     1      26.262   1.204  52.054  1.00  0.00     0.015 A 
HETATM   13  C9  UNL     1      25.099   0.589  52.462  1.00  0.00     0.019 A 
HETATM   14  C10 UNL     1      25.219  -0.563  53.222  1.00  0.00     0.003 A 
HETATM   15  C11 UNL     1      26.510  -0.953  53.478  1.00  0.00     0.019 A 
HETATM   16  C12 UNL     1      27.693  -0.364  53.088  1.00  0.00     0.012 A 
HETATM   17 BR1  UNL     1      29.389  -1.088  53.565  1.00  0.00    -0.051 Br
HETATM   18  C13 UNL     1      27.542   0.793  52.326  1.00  0.00     0.038 A 
ENDBRANCH  11  12
ENDBRANCH  10  11
ENDBRANCH   9  10
ENDBRANCH   5   8
BRANCH   7  19
HETATM   19  O2  UNL     1      29.699   9.493  47.908  1.00  0.00    -0.353 OA
HETATM   20  C16 UNL     1      29.963  10.205  49.108  1.00  0.00     0.210 C 
ENDBRANCH   7  19
BRANCH   1  21
HETATM   21  O1  UNL     1      32.282   8.267  47.387  1.00  0.00    -0.353 OA
HETATM   22  C1  UNL     1      33.398   8.080  48.234  1.00  0.00     0.210 C 
ENDBRANCH   1  21
TORSDOF 6
ENDMDL
MODEL 2
REMARK VINA RESULT:      -6.4      1.516      1.847
REMARK  6 active torsions:
REMARK  status: ('A' for Active; 'I' for Inactive)
REMARK    1  A    between atoms: O1_2  and  C2_3 
REMARK    2  A    between atoms: N1_7  and  C6_8 
REMARK    3  A    between atoms: N2_9  and  C7_10 
REMARK    4  A    between atoms: C7_10  and  S1_11 
REMARK    5  A    between atoms: S1_11  and  C8_12 
REMARK    6  A    between atoms: C15_20  and  O2_21 
ROOT
HETATM    1  C2  UNL     1      31.256   7.301  47.657  1.00  0.00     0.098 A 
HETATM    2  C3  UNL     1      31.291   5.981  47.614  1.00  0.00     0.019 A 
HETATM    3  C4  UNL     1      30.144   5.094  47.887  1.00  0.00     0.089 A 
HETATM    4  C5  UNL     1      28.921   5.862  48.222  1.00  0.00     0.042 A 
HETATM    5  N1  UNL     1      27.866   5.201  48.476  1.00  0.00    -0.245 NA
HETATM    6  C14 UNL     1      28.932   7.320  48.257  1.00  0.00     0.067 A 
HETATM    7  C15 UNL     1      30.029   8.011  47.992  1.00  0.00     0.103 A 
ENDROOT
BRANCH   5   8
HETATM    8  C6  UNL     1      26.615   5.819  48.815  1.00  0.00     0.244 C 
HETATM    9  N2  UNL     1      25.618   5.414  49.571  1.00  0.00    -0.192 NA
BRANCH   9  10
HETATM   10  C7  UNL     1      25.589   4.241  50.222  1.00  0.00     0.035 C 
BRANCH  10  11
HETATM   11  S1  UNL     1      25.561   2.993  50.943  1.00  0.00    -0.027 SA
BRANCH  11  12
HETATM   12  C8  UNL     1      25.548   1.504  51.828  1.00  0.00     0.015 A 
HETATM   13  C9  UNL     1      26.726   0.789  51.850  1.00  0.00     0.019 A 
HETATM   14  C10 UNL     1      26.734  -0.403  52.555  1.00  0.00     0.003 A 
HETATM   15  C11 UNL     1      25.544  -0.727  53.155  1.00  0.00     0.019 A 
HETATM   16  C12 UNL     1      24.350  -0.039  53.154  1.00  0.00     0.012 A 
HETATM   17 BR1  UNL     1      22.808  -0.686  54.066  1.00  0.00    -0.051 Br
HETATM   18  C13 UNL     1      24.369   1.156  52.438  1.00  0.00     0.038 A 
ENDBRANCH  11  12
ENDBRANCH  10  11
ENDBRANCH   9  10
ENDBRANCH   5   8
BRANCH   7  19
HETATM   19  O2  UNL     1      30.166   9.392  47.993  1.00  0.00    -0.353 OA
HETATM   20  C16 UNL     1      30.161  10.047  49.254  1.00  0.00     0.210 C 
ENDBRANCH   7  19
BRANCH   1  21
HETATM   21  O1  UNL     1      32.512   7.802  47.347  1.00  0.00    -0.353 OA
HETATM   22  C1  UNL     1      33.447   7.960  48.393  1.00  0.00     0.210 C 
ENDBRANCH   1  21
TORSDOF 6
ENDMDL
MODEL 3
REMARK VINA RESULT:      -6.4      4.512      8.910
REMARK  6 active torsions:
REMARK  status: ('A' for Active; 'I' for Inactive)
REMARK    1  A    between atoms: O1_2  and  C2_3 
REMARK    2  A    between atoms: N1_7  and  C6_8 
REMARK    3  A    between atoms: N2_9  and  C7_10 
REMARK    4  A    between atoms: C7_10  and  S1_11 
REMARK    5  A    between atoms: S1_11  and  C8_12 
REMARK    6  A    between atoms: C15_20  and  O2_21 
ROOT
HETATM    1  C2  UNL     1      24.601   0.906  52.279  1.00  0.00     0.098 A 
HETATM    2  C3  UNL     1      25.913   0.759  52.319  1.00  0.00     0.019 A 
HETATM    3  C4  UNL     1      26.881   1.593  51.581  1.00  0.00     0.089 A 
HETATM    4  C5  UNL     1      26.206   2.636  50.772  1.00  0.00     0.042 A 
HETATM    5  N1  UNL     1      26.942   3.417  50.092  1.00  0.00    -0.245 NA
HETATM    6  C14 UNL     1      24.753   2.758  50.762  1.00  0.00     0.067 A 
HETATM    7  C15 UNL     1      23.984   1.947  51.469  1.00  0.00     0.103 A 
ENDROOT
BRANCH   5   8
HETATM    8  C6  UNL     1      26.418   4.470  49.267  1.00  0.00     0.244 C 
HETATM    9  N2  UNL     1      27.016   5.380  48.531  1.00  0.00    -0.192 NA
BRANCH   9  10
HETATM   10  C7  UNL     1      28.346   5.501  48.407  1.00  0.00     0.035 C 
BRANCH  10  11
HETATM   11  S1  UNL     1      29.778   5.610  48.286  1.00  0.00    -0.027 SA
BRANCH  11  12
HETATM   12  C8  UNL     1      31.503   5.726  48.168  1.00  0.00     0.015 A 
HETATM   13  C9  UNL     1      32.080   6.872  48.670  1.00  0.00     0.019 A 
HETATM   14  C10 UNL     1      33.459   6.980  48.586  1.00  0.00     0.003 A 
HETATM   15  C11 UNL     1      34.087   5.910  48.000  1.00  0.00     0.019 A 
HETATM   16  C12 UNL     1      33.543   4.752  47.488  1.00  0.00     0.012 A 
HETATM   17 BR1  UNL     1      34.620   3.385  46.713  1.00  0.00    -0.051 Br
HETATM   18  C13 UNL     1      32.156   4.669  47.586  1.00  0.00     0.038 A 
ENDBRANCH  11  12
ENDBRANCH  10  11
ENDBRANCH   9  10
ENDBRANCH   5   8
BRANCH   7  19
HETATM   19  O2  UNL     1      22.598   1.962  51.541  1.00  0.00    -0.353 OA
HETATM   20  C16 UNL     1      21.887   1.224  50.558  1.00  0.00     0.210 C 
ENDBRANCH   7  19
BRANCH   1  21
HETATM   21  O1  UNL     1      24.010  -0.050  53.093  1.00  0.00    -0.353 OA
HETATM   22  C1  UNL     1      24.771  -0.588  54.155  1.00  0.00     0.210 C 
ENDBRANCH   1  21
TORSDOF 6
ENDMDL
MODEL 4
REMARK VINA RESULT:      -6.3      3.872      4.826
REMARK  6 active torsions:
REMARK  status: ('A' for Active; 'I' for Inactive)
REMARK    1  A    between atoms: O1_2  and  C2_3 
REMARK    2  A    between atoms: N1_7  and  C6_8 
REMARK    3  A    between atoms: N2_9  and  C7_10 
REMARK    4  A    between atoms: C7_10  and  S1_11 
REMARK    5  A    between atoms: S1_11  and  C8_12 
REMARK    6  A    between atoms: C15_20  and  O2_21 
ROOT
HETATM    1  C2  UNL     1      27.966   6.083  48.331  1.00  0.00     0.098 A 
HETATM    2  C3  UNL     1      27.890   4.786  48.568  1.00  0.00     0.019 A 
HETATM    3  C4  UNL     1      26.773   4.116  49.261  1.00  0.00     0.089 A 
HETATM    4  C5  UNL     1      25.722   5.078  49.671  1.00  0.00     0.042 A 
HETATM    5  N1  UNL     1      24.708   4.613  50.278  1.00  0.00    -0.245 NA
HETATM    6  C14 UNL     1      25.852   6.502  49.386  1.00  0.00     0.067 A 
HETATM    7  C15 UNL     1      26.907   6.989  48.754  1.00  0.00     0.103 A 
ENDROOT
BRANCH   5   8
HETATM    8  C6  UNL     1      23.618   5.433  50.730  1.00  0.00     0.244 C 
HETATM    9  N2  UNL     1      22.554   5.152  51.448  1.00  0.00    -0.192 NA
BRANCH   9  10
HETATM   10  C7  UNL     1      22.267   3.935  51.933  1.00  0.00     0.035 C 
BRANCH  10  11
HETATM   11  S1  UNL     1      21.940   2.625  52.440  1.00  0.00    -0.027 SA
BRANCH  11  12
HETATM   12  C8  UNL     1      21.519   1.053  53.033  1.00  0.00     0.015 A 
HETATM   13  C9  UNL     1      22.537   0.312  53.592  1.00  0.00     0.019 A 
HETATM   14  C10 UNL     1      22.217  -0.947  54.074  1.00  0.00     0.003 A 
HETATM   15  C11 UNL     1      20.900  -1.304  53.930  1.00  0.00     0.019 A 
HETATM   16  C12 UNL     1      19.859  -0.590  53.377  1.00  0.00     0.012 A 
HETATM   17 BR1  UNL     1      18.090  -1.291  53.282  1.00  0.00    -0.051 Br
HETATM   18  C13 UNL     1      20.208   0.672  52.901  1.00  0.00     0.038 A 
ENDBRANCH  11  12
ENDBRANCH  10  11
ENDBRANCH   9  10
ENDBRANCH   5   8
BRANCH   7  19
HETATM   19  O2  UNL     1      27.146   8.317  48.427  1.00  0.00    -0.353 OA
HETATM   20  C16 UNL     1      27.353   9.225  49.499  1.00  0.00     0.210 C 
ENDBRANCH   7  19
BRANCH   1  21
HETATM   21  O1  UNL     1      29.151   6.356  47.663  1.00  0.00    -0.353 OA
HETATM   22  C1  UNL     1      30.301   6.644  48.431  1.00  0.00     0.210 C 
ENDBRANCH   1  21
TORSDOF 6
ENDMDL
MODEL 5
REMARK VINA RESULT:      -6.2      6.715      9.211
REMARK  6 active torsions:
REMARK  status: ('A' for Active; 'I' for Inactive)
REMARK    1  A    between atoms: O1_2  and  C2_3 
REMARK    2  A    between atoms: N1_7  and  C6_8 
REMARK    3  A    between atoms: N2_9  and  C7_10 
REMARK    4  A    between atoms: C7_10  and  S1_11 
REMARK    5  A    between atoms: S1_11  and  C8_12 
REMARK    6  A    between atoms: C15_20  and  O2_21 
ROOT
HETATM    1  C2  UNL     1      25.991   0.014  53.640  1.00  0.00     0.098 A 
HETATM    2  C3  UNL     1      24.808  -0.306  53.148  1.00  0.00     0.019 A 
HETATM    3  C4  UNL     1      23.762   0.659  52.760  1.00  0.00     0.089 A 
HETATM    4  C5  UNL     1      24.192   2.060  52.989  1.00  0.00     0.042 A 
HETATM    5  N1  UNL     1      23.370   2.980  52.691  1.00  0.00    -0.245 NA
HETATM    6  C14 UNL     1      25.510   2.362  53.536  1.00  0.00     0.067 A 
HETATM    7  C15 UNL     1      26.369   1.406  53.847  1.00  0.00     0.103 A 
ENDROOT
BRANCH   5   8
HETATM    8  C6  UNL     1      23.659   4.377  52.862  1.00  0.00     0.244 C 
HETATM    9  N2  UNL     1      23.629   5.384  52.018  1.00  0.00    -0.192 NA
BRANCH   9  10
HETATM   10  C7  UNL     1      23.290   5.279  50.725  1.00  0.00     0.035 C 
BRANCH  10  11
HETATM   11  S1  UNL     1      22.943   5.149  49.332  1.00  0.00    -0.027 SA
BRANCH  11  12
HETATM   12  C8  UNL     1      22.512   4.966  47.664  1.00  0.00     0.015 A 
HETATM   13  C9  UNL     1      22.023   3.735  47.284  1.00  0.00     0.019 A 
HETATM   14  C10 UNL     1      21.670   3.571  45.955  1.00  0.00     0.003 A 
HETATM   15  C11 UNL     1      21.858   4.679  45.167  1.00  0.00     0.019 A 
HETATM   16  C12 UNL     1      22.344   5.922  45.511  1.00  0.00     0.012 A 
HETATM   17 BR1  UNL     1      22.520   7.327  44.238  1.00  0.00    -0.051 Br
HETATM   18  C13 UNL     1      22.690   6.059  46.854  1.00  0.00     0.038 A 
ENDBRANCH  11  12
ENDBRANCH  10  11
ENDBRANCH   9  10
ENDBRANCH   5   8
BRANCH   7  19
HETATM   19  O2  UNL     1      27.643   1.566  54.372  1.00  0.00    -0.353 OA
HETATM   20  C16 UNL     1      28.555   2.369  53.636  1.00  0.00     0.210 C 
ENDBRANCH   7  19
BRANCH   1  21
HETATM   21  O1  UNL     1      26.712  -1.145  53.888  1.00  0.00    -0.353 OA
HETATM   22  C1  UNL     1      27.357  -1.777  52.802  1.00  0.00     0.210 C 
ENDBRANCH   1  21
TORSDOF 6
ENDMDL
MODEL 6
REMARK VINA RESULT:      -6.1      6.134     10.839
REMARK  6 active torsions:
REMARK  status: ('A' for Active; 'I' for Inactive)
REMARK    1  A    between atoms: O1_2  and  C2_3 
REMARK    2  A    between atoms: N1_7  and  C6_8 
REMARK    3  A    between atoms: N2_9  and  C7_10 
REMARK    4  A    between atoms: C7_10  and  S1_11 
REMARK    5  A    between atoms: S1_11  and  C8_12 
REMARK    6  A    between atoms: C15_20  and  O2_21 
ROOT
HETATM    1  C2  UNL     1      20.128  -0.218  53.090  1.00  0.00     0.098 A 
HETATM    2  C3  UNL     1      20.006   0.452  51.958  1.00  0.00     0.019 A 
HETATM    3  C4  UNL     1      21.120   1.076  51.219  1.00  0.00     0.089 A 
HETATM    4  C5  UNL     1      22.420   0.866  51.901  1.00  0.00     0.042 A 
HETATM    5  N1  UNL     1      23.454   1.360  51.353  1.00  0.00    -0.245 NA
HETATM    6  C14 UNL     1      22.503   0.118  53.150  1.00  0.00     0.067 A 
HETATM    7  C15 UNL     1      21.428  -0.398  53.722  1.00  0.00     0.103 A 
ENDROOT
BRANCH   5   8
HETATM    8  C6  UNL     1      24.774   1.231  51.907  1.00  0.00     0.244 C 
HETATM    9  N2  UNL     1      25.873   1.926  51.713  1.00  0.00    -0.192 NA
BRANCH   9  10
HETATM   10  C7  UNL     1      25.968   2.979  50.888  1.00  0.00     0.035 C 
BRANCH  10  11
HETATM   11  S1  UNL     1      26.058   4.124  50.017  1.00  0.00    -0.027 SA
BRANCH  11  12
HETATM   12  C8  UNL     1      26.165   5.520  48.996  1.00  0.00     0.015 A 
HETATM   13  C9  UNL     1      24.982   6.161  48.701  1.00  0.00     0.019 A 
HETATM   14  C10 UNL     1      25.050   7.280  47.887  1.00  0.00     0.003 A 
HETATM   15  C11 UNL     1      26.314   7.614  47.469  1.00  0.00     0.019 A 
HETATM   16  C12 UNL     1      27.515   6.997  47.743  1.00  0.00     0.012 A 
HETATM   17 BR1  UNL     1      29.166   7.643  47.046  1.00  0.00    -0.051 Br
HETATM   18  C13 UNL     1      27.418   5.875  48.563  1.00  0.00     0.038 A 
ENDBRANCH  11  12
ENDBRANCH  10  11
ENDBRANCH   9  10
ENDBRANCH   5   8
BRANCH   7  19
HETATM   19  O2  UNL     1      21.378  -1.124  54.904  1.00  0.00    -0.353 OA
HETATM   20  C16 UNL     1      22.590  -1.703  55.365  1.00  0.00     0.210 C 
ENDBRANCH   7  19
BRANCH   1  21
HETATM   21  O1  UNL     1      18.878  -0.660  53.496  1.00  0.00    -0.353 OA
HETATM   22  C1  UNL     1      17.896  -0.893  52.507  1.00  0.00     0.210 C 
ENDBRANCH   1  21
TORSDOF 6
ENDMDL
MODEL 7
REMARK VINA RESULT:      -6.0      6.983      9.838
REMARK  6 active torsions:
REMARK  status: ('A' for Active; 'I' for Inactive)
REMARK    1  A    between atoms: O1_2  and  C2_3 
REMARK    2  A    between atoms: N1_7  and  C6_8 
REMARK    3  A    between atoms: N2_9  and  C7_10 
REMARK    4  A    between atoms: C7_10  and  S1_11 
REMARK    5  A    between atoms: S1_11  and  C8_12 
REMARK    6  A    between atoms: C15_20  and  O2_21 
ROOT
HETATM    1  C2  UNL     1      26.927  -0.201  53.696  1.00  0.00     0.098 A 
HETATM    2  C3  UNL     1      27.259   0.560  52.669  1.00  0.00     0.019 A 
HETATM    3  C4  UNL     1      26.306   1.306  51.825  1.00  0.00     0.089 A 
HETATM    4  C5  UNL     1      24.904   1.103  52.265  1.00  0.00     0.042 A 
HETATM    5  N1  UNL     1      23.994   1.700  51.610  1.00  0.00    -0.245 NA
HETATM    6  C14 UNL     1      24.589   0.253  53.406  1.00  0.00     0.067 A 
HETATM    7  C15 UNL     1      25.535  -0.369  54.091  1.00  0.00     0.103 A 
ENDROOT
BRANCH   5   8
HETATM    8  C6  UNL     1      22.597   1.590  51.929  1.00  0.00     0.244 C 
HETATM    9  N2  UNL     1      21.605   2.444  51.805  1.00  0.00    -0.192 NA
BRANCH   9  10
HETATM   10  C7  UNL     1      21.730   3.685  51.312  1.00  0.00     0.035 C 
BRANCH  10  11
HETATM   11  S1  UNL     1      21.858   5.028  50.804  1.00  0.00    -0.027 SA
BRANCH  11  12
HETATM   12  C8  UNL     1      21.991   6.635  50.171  1.00  0.00     0.015 A 
HETATM   13  C9  UNL     1      23.250   7.045  49.790  1.00  0.00     0.019 A 
HETATM   14  C10 UNL     1      23.375   8.327  49.279  1.00  0.00     0.003 A 
HETATM   15  C11 UNL     1      22.205   9.040  49.217  1.00  0.00     0.019 A 
HETATM   16  C12 UNL     1      20.933   8.663  49.588  1.00  0.00     0.012 A 
HETATM   17 BR1  UNL     1      19.439   9.832  49.411  1.00  0.00    -0.051 Br
HETATM   18  C13 UNL     1      20.835   7.370  50.098  1.00  0.00     0.038 A 
ENDBRANCH  11  12
ENDBRANCH  10  11
ENDBRANCH   9  10
ENDBRANCH   5   8
BRANCH   7  19
HETATM   19  O2  UNL     1      25.362  -1.200  55.188  1.00  0.00    -0.353 OA
HETATM   20  C16 UNL     1      24.042  -1.353  55.690  1.00  0.00     0.210 C 
ENDBRANCH   7  19
BRANCH   1  21
HETATM   21  O1  UNL     1      28.076  -0.744  54.252  1.00  0.00    -0.353 OA
HETATM   22  C1  UNL     1      29.327  -0.264  53.806  1.00  0.00     0.210 C 
ENDBRANCH   1  21
TORSDOF 6
ENDMDL
MODEL 8
REMARK VINA RESULT:      -6.0      3.792      5.226
REMARK  6 active torsions:
REMARK  status: ('A' for Active; 'I' for Inactive)
REMARK    1  A    between atoms: O1_2  and  C2_3 
REMARK    2  A    between atoms: N1_7  and  C6_8 
REMARK    3  A    between atoms: N2_9  and  C7_10 
REMARK    4  A    between atoms: C7_10  and  S1_11 
REMARK    5  A    between atoms: S1_11  and  C8_12 
REMARK    6  A    between atoms: C15_20  and  O2_21 
ROOT
HETATM    1  C2  UNL     1      24.669   7.452  47.981  1.00  0.00     0.098 A 
HETATM    2  C3  UNL     1      23.676   6.582  48.004  1.00  0.00     0.019 A 
HETATM    3  C4  UNL     1      23.758   5.218  48.561  1.00  0.00     0.089 A 
HETATM    4  C5  UNL     1      25.106   4.925  49.106  1.00  0.00     0.042 A 
HETATM    5  N1  UNL     1      25.293   3.776  49.614  1.00  0.00    -0.245 NA
HETATM    6  C14 UNL     1      26.170   5.920  49.058  1.00  0.00     0.067 A 
HETATM    7  C15 UNL     1      25.977   7.118  48.529  1.00  0.00     0.103 A 
ENDROOT
BRANCH   5   8
HETATM    8  C6  UNL     1      26.549   3.362  50.176  1.00  0.00     0.244 C 
HETATM    9  N2  UNL     1      26.839   2.493  51.118  1.00  0.00    -0.192 NA
BRANCH   9  10
HETATM   10  C7  UNL     1      25.929   1.768  51.787  1.00  0.00     0.035 C 
BRANCH  10  11
HETATM   11  S1  UNL     1      24.937   1.010  52.506  1.00  0.00    -0.027 SA
BRANCH  11  12
HETATM   12  C8  UNL     1      23.748   0.116  53.395  1.00  0.00     0.015 A 
HETATM   13  C9  UNL     1      24.208  -0.643  54.448  1.00  0.00     0.019 A 
HETATM   14  C10 UNL     1      23.270  -1.362  55.172  1.00  0.00     0.003 A 
HETATM   15  C11 UNL     1      21.976  -1.225  54.737  1.00  0.00     0.019 A 
HETATM   16  C12 UNL     1      21.482  -0.477  53.691  1.00  0.00     0.012 A 
HETATM   17 BR1  UNL     1      19.626  -0.435  53.264  1.00  0.00    -0.051 Br
HETATM   18  C13 UNL     1      22.446   0.236  52.980  1.00  0.00     0.038 A 
ENDBRANCH  11  12
ENDBRANCH  10  11
ENDBRANCH   9  10
ENDBRANCH   5   8
BRANCH   7  19
HETATM   19  O2  UNL     1      26.905   8.144  48.424  1.00  0.00    -0.353 OA
HETATM   20  C16 UNL     1      27.354   8.742  49.632  1.00  0.00     0.210 C 
ENDBRANCH   7  19
BRANCH   1  21
HETATM   21  O1  UNL     1      24.234   8.627  47.384  1.00  0.00    -0.353 OA
HETATM   22  C1  UNL     1      24.516   8.826  46.015  1.00  0.00     0.210 C 
ENDBRANCH   1  21
TORSDOF 6
ENDMDL
MODEL 9
REMARK VINA RESULT:      -6.0      7.085      9.686
REMARK  6 active torsions:
REMARK  status: ('A' for Active; 'I' for Inactive)
REMARK    1  A    between atoms: O1_2  and  C2_3 
REMARK    2  A    between atoms: N1_7  and  C6_8 
REMARK    3  A    between atoms: N2_9  and  C7_10 
REMARK    4  A    between atoms: C7_10  and  S1_11 
REMARK    5  A    between atoms: S1_11  and  C8_12 
REMARK    6  A    between atoms: C15_20  and  O2_21 
ROOT
HETATM    1  C2  UNL     1      26.921  -0.297  53.740  1.00  0.00     0.098 A 
HETATM    2  C3  UNL     1      27.318   0.409  52.697  1.00  0.00     0.019 A 
HETATM    3  C4  UNL     1      26.422   1.110  51.758  1.00  0.00     0.089 A 
HETATM    4  C5  UNL     1      24.995   0.932  52.121  1.00  0.00     0.042 A 
HETATM    5  N1  UNL     1      24.129   1.494  51.381  1.00  0.00    -0.245 NA
HETATM    6  C14 UNL     1      24.607   0.143  53.284  1.00  0.00     0.067 A 
HETATM    7  C15 UNL     1      25.507  -0.443  54.057  1.00  0.00     0.103 A 
ENDROOT
BRANCH   5   8
HETATM    8  C6  UNL     1      22.715   1.403  51.618  1.00  0.00     0.244 C 
HETATM    9  N2  UNL     1      21.687   1.896  50.964  1.00  0.00    -0.192 NA
BRANCH   9  10
HETATM   10  C7  UNL     1      21.783   2.642  49.854  1.00  0.00     0.035 C 
BRANCH  10  11
HETATM   11  S1  UNL     1      21.893   3.464  48.674  1.00  0.00    -0.027 SA
BRANCH  11  12
HETATM   12  C8  UNL     1      22.022   4.425  47.239  1.00  0.00     0.015 A 
HETATM   13  C9  UNL     1      21.602   3.840  46.064  1.00  0.00     0.019 A 
HETATM   14  C10 UNL     1      21.696   4.595  44.907  1.00  0.00     0.003 A 
HETATM   15  C11 UNL     1      22.207   5.856  45.081  1.00  0.00     0.019 A 
HETATM   16  C12 UNL     1      22.636   6.472  46.236  1.00  0.00     0.012 A 
HETATM   17 BR1  UNL     1      23.316   8.252  46.242  1.00  0.00    -0.051 Br
HETATM   18  C13 UNL     1      22.530   5.691  47.385  1.00  0.00     0.038 A 
ENDBRANCH  11  12
ENDBRANCH  10  11
ENDBRANCH   9  10
ENDBRANCH   5   8
BRANCH   7  19
HETATM   19  O2  UNL     1      25.264  -1.216  55.183  1.00  0.00    -0.353 OA
HETATM   20  C16 UNL     1      23.911  -1.372  55.587  1.00  0.00     0.210 C 
ENDBRANCH   7  19
BRANCH   1  21
HETATM   21  O1  UNL     1      28.032  -0.811  54.394  1.00  0.00    -0.353 OA
HETATM   22  C1  UNL     1      29.310  -0.361  53.996  1.00  0.00     0.210 C 
ENDBRANCH   1  21
TORSDOF 6
ENDMDL
