MODEL 1
REMARK VINA RESULT:      -7.9      0.000      0.000
REMARK  3 active torsions:
REMARK  status: ('A' for Active; 'I' for Inactive)
REMARK    1  A    between atoms: N2_5  and  C4_6 
REMARK    2  A    between atoms: C7_9  and  N3_10 
REMARK       I    between atoms: N3_10  and  C8_11 
REMARK    3  A    between atoms: C8_11  and  C9_13 
ROOT
HETATM    1  C4  UNL     1      21.243  -0.120  52.739  1.00  0.00     0.030 A 
HETATM    2  C5  UNL     1      21.953  -0.736  53.725  1.00  0.00     0.031 A 
HETATM    3  C6  UNL     1      23.306  -0.501  53.842  1.00  0.00     0.032 A 
HETATM    4  C7  UNL     1      24.022   0.331  53.016  1.00  0.00     0.034 A 
HETATM    5  C13 UNL     1      23.271   0.931  52.036  1.00  0.00     0.032 A 
HETATM    6  C14 UNL     1      21.929   0.718  51.896  1.00  0.00     0.031 A 
ENDROOT
BRANCH   4   7
HETATM    7  N3  UNL     1      25.398   0.616  53.075  1.00  0.00    -0.326 N 
HETATM    8  C8  UNL     1      26.503  -0.203  52.775  1.00  0.00     0.239 C 
HETATM    9  O1  UNL     1      26.307  -1.381  52.390  1.00  0.00    -0.272 OA
HETATM   10  H10 UNL     1      25.725   1.557  53.379  1.00  0.00     0.169 HD
BRANCH   8  11
HETATM   11  C9  UNL     1      27.920   0.173  52.864  1.00  0.00     0.194 A 
HETATM   12  C10 UNL     1      28.444  -0.289  54.176  1.00  0.00     0.014 A 
HETATM   13  C11 UNL     1      28.754   0.743  54.940  1.00  0.00     0.088 A 
HETATM   14  N4  UNL     1      28.506   1.982  54.317  1.00  0.00    -0.336 N 
HETATM   15  C12 UNL     1      27.987   1.652  53.023  1.00  0.00     0.238 A 
HETATM   16  H14 UNL     1      28.633   2.957  54.629  1.00  0.00     0.168 HD
HETATM   17  O2  UNL     1      27.623   2.442  52.111  1.00  0.00    -0.272 OA
ENDBRANCH   8  11
ENDBRANCH   4   7
BRANCH   1  18
HETATM   18  N2  UNL     1      19.845  -0.371  52.630  1.00  0.00    -0.378 N 
HETATM   19  C3  UNL     1      19.123   0.264  51.565  1.00  0.00     0.153 C 
HETATM   20  C2  UNL     1      17.726  -0.242  51.420  1.00  0.00     0.291 C 
HETATM   21  N1  UNL     1      17.098  -0.532  52.675  1.00  0.00     0.087 N 
HETATM   22  C1  UNL     1      15.810  -1.158  52.335  1.00  0.00     0.310 C 
HETATM   23  C16 UNL     1      17.817  -1.513  53.449  1.00  0.00     0.291 C 
HETATM   24  C15 UNL     1      19.262  -1.251  53.610  1.00  0.00     0.153 C 
ENDBRANCH   1  18
TORSDOF 3
ENDMDL
MODEL 2
REMARK VINA RESULT:      -7.3      1.850      2.575
REMARK  3 active torsions:
REMARK  status: ('A' for Active; 'I' for Inactive)
REMARK    1  A    between atoms: N2_5  and  C4_6 
REMARK    2  A    between atoms: C7_9  and  N3_10 
REMARK       I    between atoms: N3_10  and  C8_11 
REMARK    3  A    between atoms: C8_11  and  C9_13 
ROOT
HETATM    1  C4  UNL     1      21.772   0.828  52.611  1.00  0.00     0.030 A 
HETATM    2  C5  UNL     1      21.884  -0.158  53.543  1.00  0.00     0.031 A 
HETATM    3  C6  UNL     1      23.133  -0.577  53.949  1.00  0.00     0.032 A 
HETATM    4  C7  UNL     1      24.315  -0.064  53.472  1.00  0.00     0.034 A 
HETATM    5  C13 UNL     1      24.159   0.926  52.534  1.00  0.00     0.032 A 
HETATM    6  C14 UNL     1      22.934   1.362  52.114  1.00  0.00     0.031 A 
ENDROOT
BRANCH   4   7
HETATM    7  N3  UNL     1      25.619  -0.442  53.837  1.00  0.00    -0.326 N 
HETATM    8  C8  UNL     1      26.650   0.320  54.418  1.00  0.00     0.239 C 
HETATM    9  O1  UNL     1      26.445   1.531  54.679  1.00  0.00    -0.272 OA
HETATM   10  H10 UNL     1      25.943  -1.420  53.684  1.00  0.00     0.169 HD
BRANCH   8  11
HETATM   11  C9  UNL     1      27.994  -0.152  54.772  1.00  0.00     0.194 A 
HETATM   12  C10 UNL     1      28.936   0.992  54.661  1.00  0.00     0.014 A 
HETATM   13  C11 UNL     1      29.791   0.794  53.674  1.00  0.00     0.088 A 
HETATM   14  N4  UNL     1      29.582  -0.426  53.003  1.00  0.00    -0.336 N 
HETATM   15  C12 UNL     1      28.469  -1.033  53.669  1.00  0.00     0.238 A 
HETATM   16  H14 UNL     1      30.061  -0.875  52.206  1.00  0.00     0.168 HD
HETATM   17  O2  UNL     1      27.924  -2.141  53.413  1.00  0.00    -0.272 OA
ENDBRANCH   8  11
ENDBRANCH   4   7
BRANCH   1  18
HETATM   18  N2  UNL     1      20.475   1.253  52.201  1.00  0.00    -0.378 N 
HETATM   19  C3  UNL     1      19.507   0.248  51.867  1.00  0.00     0.153 C 
HETATM   20  C2  UNL     1      18.134   0.799  51.669  1.00  0.00     0.291 C 
HETATM   21  N1  UNL     1      18.127   2.081  51.027  1.00  0.00     0.087 N 
HETATM   22  C1  UNL     1      16.727   2.530  51.060  1.00  0.00     0.310 C 
HETATM   23  C16 UNL     1      18.874   3.077  51.755  1.00  0.00     0.291 C 
HETATM   24  C15 UNL     1      20.238   2.672  52.154  1.00  0.00     0.153 C 
ENDBRANCH   1  18
TORSDOF 3
ENDMDL
MODEL 3
REMARK VINA RESULT:      -7.2      1.358      2.316
REMARK  3 active torsions:
REMARK  status: ('A' for Active; 'I' for Inactive)
REMARK    1  A    between atoms: N2_5  and  C4_6 
REMARK    2  A    between atoms: C7_9  and  N3_10 
REMARK       I    between atoms: N3_10  and  C8_11 
REMARK    3  A    between atoms: C8_11  and  C9_13 
ROOT
HETATM    1  C4  UNL     1      21.619  -0.590  53.511  1.00  0.00     0.030 A 
HETATM    2  C5  UNL     1      22.544   0.104  52.792  1.00  0.00     0.031 A 
HETATM    3  C6  UNL     1      23.862   0.107  53.197  1.00  0.00     0.032 A 
HETATM    4  C7  UNL     1      24.333  -0.553  54.305  1.00  0.00     0.034 A 
HETATM    5  C13 UNL     1      23.370  -1.238  55.002  1.00  0.00     0.032 A 
HETATM    6  C14 UNL     1      22.057  -1.261  54.625  1.00  0.00     0.031 A 
ENDROOT
BRANCH   4   7
HETATM    7  N3  UNL     1      25.658  -0.592  54.776  1.00  0.00    -0.326 N 
HETATM    8  C8  UNL     1      26.840  -0.102  54.189  1.00  0.00     0.239 C 
HETATM    9  O1  UNL     1      26.779   0.471  53.074  1.00  0.00    -0.272 OA
HETATM   10  H10 UNL     1      25.874  -1.037  55.692  1.00  0.00     0.169 HD
BRANCH   8  11
HETATM   11  C9  UNL     1      28.194  -0.184  54.750  1.00  0.00     0.194 A 
HETATM   12  C10 UNL     1      28.788   1.177  54.738  1.00  0.00     0.014 A 
HETATM   13  C11 UNL     1      29.802   1.233  53.893  1.00  0.00     0.088 A 
HETATM   14  N4  UNL     1      30.041   0.007  53.241  1.00  0.00    -0.336 N 
HETATM   15  C12 UNL     1      29.053  -0.891  53.758  1.00  0.00     0.238 A 
HETATM   16  H14 UNL     1      30.739  -0.284  52.538  1.00  0.00     0.168 HD
HETATM   17  O2  UNL     1      28.879  -2.104  53.465  1.00  0.00    -0.272 OA
ENDBRANCH   8  11
ENDBRANCH   4   7
BRANCH   1  18
HETATM   18  N2  UNL     1      20.261  -0.586  53.082  1.00  0.00    -0.378 N 
HETATM   19  C3  UNL     1      19.331  -1.442  53.762  1.00  0.00     0.153 C 
HETATM   20  C2  UNL     1      17.911  -1.192  53.375  1.00  0.00     0.291 C 
HETATM   21  N1  UNL     1      17.752  -0.877  51.986  1.00  0.00     0.087 N 
HETATM   22  C1  UNL     1      16.335  -0.511  51.826  1.00  0.00     0.310 C 
HETATM   23  C16 UNL     1      18.503   0.287  51.585  1.00  0.00     0.291 C 
HETATM   24  C15 UNL     1      19.926   0.286  51.985  1.00  0.00     0.153 C 
ENDBRANCH   1  18
TORSDOF 3
ENDMDL
MODEL 4
REMARK VINA RESULT:      -7.1      5.107      6.762
REMARK  3 active torsions:
REMARK  status: ('A' for Active; 'I' for Inactive)
REMARK    1  A    between atoms: N2_5  and  C4_6 
REMARK    2  A    between atoms: C7_9  and  N3_10 
REMARK       I    between atoms: N3_10  and  C8_11 
REMARK    3  A    between atoms: C8_11  and  C9_13 
ROOT
HETATM    1  C4  UNL     1      25.045   4.281  49.840  1.00  0.00     0.030 A 
HETATM    2  C5  UNL     1      24.284   3.849  50.883  1.00  0.00     0.031 A 
HETATM    3  C6  UNL     1      24.775   2.882  51.733  1.00  0.00     0.032 A 
HETATM    4  C7  UNL     1      26.011   2.295  51.608  1.00  0.00     0.034 A 
HETATM    5  C13 UNL     1      26.746   2.757  50.545  1.00  0.00     0.032 A 
HETATM    6  C14 UNL     1      26.285   3.716  49.687  1.00  0.00     0.031 A 
ENDROOT
BRANCH   4   7
HETATM    7  N3  UNL     1      26.574   1.306  52.433  1.00  0.00    -0.326 N 
HETATM    8  C8  UNL     1      27.395   1.438  53.569  1.00  0.00     0.239 C 
HETATM    9  O1  UNL     1      27.714   2.585  53.965  1.00  0.00    -0.272 OA
HETATM   10  H10 UNL     1      26.402   0.298  52.234  1.00  0.00     0.169 HD
BRANCH   8  11
HETATM   11  C9  UNL     1      27.947   0.346  54.381  1.00  0.00     0.194 A 
HETATM   12  C10 UNL     1      29.385   0.192  54.041  1.00  0.00     0.014 A 
HETATM   13  C11 UNL     1      29.597  -0.966  53.441  1.00  0.00     0.088 A 
HETATM   14  N4  UNL     1      28.423  -1.728  53.287  1.00  0.00    -0.336 N 
HETATM   15  C12 UNL     1      27.382  -0.932  53.865  1.00  0.00     0.238 A 
HETATM   16  H14 UNL     1      28.242  -2.655  52.871  1.00  0.00     0.168 HD
HETATM   17  O2  UNL     1      26.156  -1.208  53.958  1.00  0.00    -0.272 OA
ENDBRANCH   8  11
ENDBRANCH   4   7
BRANCH   1  18
HETATM   18  N2  UNL     1      24.526   5.283  48.970  1.00  0.00    -0.378 N 
HETATM   19  C3  UNL     1      25.314   6.460  48.744  1.00  0.00     0.153 C 
HETATM   20  C2  UNL     1      24.776   7.327  47.655  1.00  0.00     0.291 C 
HETATM   21  N1  UNL     1      23.344   7.376  47.629  1.00  0.00     0.087 N 
HETATM   22  C1  UNL     1      22.998   8.135  46.416  1.00  0.00     0.310 C 
HETATM   23  C16 UNL     1      22.741   6.077  47.462  1.00  0.00     0.291 C 
HETATM   24  C15 UNL     1      23.236   5.031  48.382  1.00  0.00     0.153 C 
ENDBRANCH   1  18
TORSDOF 3
ENDMDL
MODEL 5
REMARK VINA RESULT:      -7.1      2.940      8.520
REMARK  3 active torsions:
REMARK  status: ('A' for Active; 'I' for Inactive)
REMARK    1  A    between atoms: N2_5  and  C4_6 
REMARK    2  A    between atoms: C7_9  and  N3_10 
REMARK       I    between atoms: N3_10  and  C8_11 
REMARK    3  A    between atoms: C8_11  and  C9_13 
ROOT
HETATM    1  C4  UNL     1      24.686   0.244  53.295  1.00  0.00     0.030 A 
HETATM    2  C5  UNL     1      24.353   1.416  52.688  1.00  0.00     0.031 A 
HETATM    3  C6  UNL     1      23.025   1.745  52.518  1.00  0.00     0.032 A 
HETATM    4  C7  UNL     1      21.974   0.958  52.923  1.00  0.00     0.034 A 
HETATM    5  C13 UNL     1      22.352  -0.214  53.529  1.00  0.00     0.032 A 
HETATM    6  C14 UNL     1      23.660  -0.565  53.712  1.00  0.00     0.031 A 
ENDROOT
BRANCH   4   7
HETATM    7  N3  UNL     1      20.601   1.228  52.782  1.00  0.00    -0.326 N 
HETATM    8  C8  UNL     1      19.726   0.922  51.722  1.00  0.00     0.239 C 
HETATM    9  O1  UNL     1      20.168   0.317  50.716  1.00  0.00    -0.272 OA
HETATM   10  H10 UNL     1      20.086   1.727  53.536  1.00  0.00     0.169 HD
BRANCH   8  11
HETATM   11  C9  UNL     1      18.294   1.241  51.651  1.00  0.00     0.194 A 
HETATM   12  C10 UNL     1      17.737   0.617  50.423  1.00  0.00     0.014 A 
HETATM   13  C11 UNL     1      17.362   1.546  49.562  1.00  0.00     0.088 A 
HETATM   14  N4  UNL     1      17.589   2.854  50.031  1.00  0.00    -0.336 N 
HETATM   15  C12 UNL     1      18.169   2.690  51.330  1.00  0.00     0.238 A 
HETATM   16  H14 UNL     1      17.416   3.784  49.617  1.00  0.00     0.168 HD
HETATM   17  O2  UNL     1      18.539   3.590  52.132  1.00  0.00    -0.272 OA
ENDBRANCH   8  11
ENDBRANCH   4   7
BRANCH   1  18
HETATM   18  N2  UNL     1      26.062  -0.083  53.466  1.00  0.00    -0.378 N 
HETATM   19  C3  UNL     1      26.831   0.686  54.402  1.00  0.00     0.153 C 
HETATM   20  C2  UNL     1      28.187   0.117  54.656  1.00  0.00     0.291 C 
HETATM   21  N1  UNL     1      28.790  -0.448  53.486  1.00  0.00     0.087 N 
HETATM   22  C1  UNL     1      30.029  -1.091  53.953  1.00  0.00     0.310 C 
HETATM   23  C16 UNL     1      28.000  -1.502  52.900  1.00  0.00     0.291 C 
HETATM   24  C15 UNL     1      26.577  -1.171  52.675  1.00  0.00     0.153 C 
ENDBRANCH   1  18
TORSDOF 3
ENDMDL
MODEL 6
REMARK VINA RESULT:      -6.7      1.410      2.143
REMARK  3 active torsions:
REMARK  status: ('A' for Active; 'I' for Inactive)
REMARK    1  A    between atoms: N2_5  and  C4_6 
REMARK    2  A    between atoms: C7_9  and  N3_10 
REMARK       I    between atoms: N3_10  and  C8_11 
REMARK    3  A    between atoms: C8_11  and  C9_13 
ROOT
HETATM    1  C4  UNL     1      21.581   0.698  51.938  1.00  0.00     0.030 A 
HETATM    2  C5  UNL     1      22.488   1.532  51.359  1.00  0.00     0.031 A 
HETATM    3  C6  UNL     1      23.821   1.432  51.695  1.00  0.00     0.032 A 
HETATM    4  C7  UNL     1      24.326   0.530  52.599  1.00  0.00     0.034 A 
HETATM    5  C13 UNL     1      23.381  -0.292  53.160  1.00  0.00     0.032 A 
HETATM    6  C14 UNL     1      22.053  -0.216  52.846  1.00  0.00     0.031 A 
ENDROOT
BRANCH   4   7
HETATM    7  N3  UNL     1      25.669   0.372  52.989  1.00  0.00    -0.326 N 
HETATM    8  C8  UNL     1      26.852   0.741  52.321  1.00  0.00     0.239 C 
HETATM    9  O1  UNL     1      26.775   1.301  51.201  1.00  0.00    -0.272 OA
HETATM   10  H10 UNL     1      25.899  -0.078  53.899  1.00  0.00     0.169 HD
BRANCH   8  11
HETATM   11  C9  UNL     1      28.225   0.539  52.800  1.00  0.00     0.194 A 
HETATM   12  C10 UNL     1      28.204  -0.514  53.848  1.00  0.00     0.014 A 
HETATM   13  C11 UNL     1      28.521  -0.003  55.025  1.00  0.00     0.088 A 
HETATM   14  N4  UNL     1      28.786   1.379  54.969  1.00  0.00    -0.336 N 
HETATM   15  C12 UNL     1      28.609   1.739  53.594  1.00  0.00     0.238 A 
HETATM   16  H14 UNL     1      29.054   2.067  55.690  1.00  0.00     0.168 HD
HETATM   17  O2  UNL     1      28.741   2.877  53.069  1.00  0.00    -0.272 OA
ENDBRANCH   8  11
ENDBRANCH   4   7
BRANCH   1  18
HETATM   18  N2  UNL     1      20.207   0.811  51.581  1.00  0.00    -0.378 N 
HETATM   19  C3  UNL     1      19.276  -0.115  52.161  1.00  0.00     0.153 C 
HETATM   20  C2  UNL     1      17.851   0.237  51.889  1.00  0.00     0.291 C 
HETATM   21  N1  UNL     1      17.644   0.775  50.577  1.00  0.00     0.087 N 
HETATM   22  C1  UNL     1      16.236   1.203  50.547  1.00  0.00     0.310 C 
HETATM   23  C16 UNL     1      18.420   1.965  50.330  1.00  0.00     0.291 C 
HETATM   24  C15 UNL     1      19.857   1.857  50.655  1.00  0.00     0.153 C 
ENDBRANCH   1  18
TORSDOF 3
ENDMDL
MODEL 7
REMARK VINA RESULT:      -6.7      2.132      2.773
REMARK  3 active torsions:
REMARK  status: ('A' for Active; 'I' for Inactive)
REMARK    1  A    between atoms: N2_5  and  C4_6 
REMARK    2  A    between atoms: C7_9  and  N3_10 
REMARK       I    between atoms: N3_10  and  C8_11 
REMARK    3  A    between atoms: C8_11  and  C9_13 
ROOT
HETATM    1  C4  UNL     1      19.659   1.606  51.639  1.00  0.00     0.030 A 
HETATM    2  C5  UNL     1      20.286   0.667  50.878  1.00  0.00     0.031 A 
HETATM    3  C6  UNL     1      21.663   0.599  50.873  1.00  0.00     0.032 A 
HETATM    4  C7  UNL     1      22.482   1.430  51.597  1.00  0.00     0.034 A 
HETATM    5  C13 UNL     1      21.813   2.362  52.350  1.00  0.00     0.032 A 
HETATM    6  C14 UNL     1      20.449   2.453  52.375  1.00  0.00     0.031 A 
ENDROOT
BRANCH   4   7
HETATM    7  N3  UNL     1      23.888   1.419  51.639  1.00  0.00    -0.326 N 
HETATM    8  C8  UNL     1      24.760   0.691  52.471  1.00  0.00     0.239 C 
HETATM    9  O1  UNL     1      24.281  -0.088  53.330  1.00  0.00    -0.272 OA
HETATM   10  H10 UNL     1      24.436   2.017  50.986  1.00  0.00     0.169 HD
BRANCH   8  11
HETATM   11  C9  UNL     1      26.228   0.737  52.453  1.00  0.00     0.194 A 
HETATM   12  C10 UNL     1      26.733  -0.613  52.094  1.00  0.00     0.014 A 
HETATM   13  C11 UNL     1      27.372  -1.154  53.116  1.00  0.00     0.088 A 
HETATM   14  N4  UNL     1      27.401  -0.320  54.250  1.00  0.00    -0.336 N 
HETATM   15  C12 UNL     1      26.695   0.864  53.861  1.00  0.00     0.238 A 
HETATM   16  H14 UNL     1      27.808  -0.436  55.191  1.00  0.00     0.168 HD
HETATM   17  O2  UNL     1      26.467   1.893  54.553  1.00  0.00    -0.272 OA
ENDBRANCH   8  11
ENDBRANCH   4   7
BRANCH   1  18
HETATM   18  N2  UNL     1      18.236   1.665  51.636  1.00  0.00    -0.378 N 
HETATM   19  C3  UNL     1      17.610   2.951  51.527  1.00  0.00     0.153 C 
HETATM   20  C2  UNL     1      16.135   2.870  51.313  1.00  0.00     0.291 C 
HETATM   21  N1  UNL     1      15.517   1.803  52.043  1.00  0.00     0.087 N 
HETATM   22  C1  UNL     1      14.116   1.779  51.594  1.00  0.00     0.310 C 
HETATM   23  C16 UNL     1      16.057   0.508  51.709  1.00  0.00     0.291 C 
HETATM   24  C15 UNL     1      17.532   0.414  51.746  1.00  0.00     0.153 C 
ENDBRANCH   1  18
TORSDOF 3
ENDMDL
MODEL 8
REMARK VINA RESULT:      -6.6      3.575      8.842
REMARK  3 active torsions:
REMARK  status: ('A' for Active; 'I' for Inactive)
REMARK    1  A    between atoms: N2_5  and  C4_6 
REMARK    2  A    between atoms: C7_9  and  N3_10 
REMARK       I    between atoms: N3_10  and  C8_11 
REMARK    3  A    between atoms: C8_11  and  C9_13 
ROOT
HETATM    1  C4  UNL     1      23.238   0.930  52.786  1.00  0.00     0.030 A 
HETATM    2  C5  UNL     1      22.211   0.525  53.583  1.00  0.00     0.031 A 
HETATM    3  C6  UNL     1      20.910   0.705  53.165  1.00  0.00     0.032 A 
HETATM    4  C7  UNL     1      20.552   1.281  51.971  1.00  0.00     0.034 A 
HETATM    5  C13 UNL     1      21.616   1.676  51.198  1.00  0.00     0.032 A 
HETATM    6  C14 UNL     1      22.915   1.509  51.585  1.00  0.00     0.031 A 
ENDROOT
BRANCH   4   7
HETATM    7  N3  UNL     1      19.251   1.497  51.482  1.00  0.00    -0.326 N 
HETATM    8  C8  UNL     1      18.440   2.645  51.553  1.00  0.00     0.239 C 
HETATM    9  O1  UNL     1      18.878   3.672  52.126  1.00  0.00    -0.272 OA
HETATM   10  H10 UNL     1      18.748   0.736  50.980  1.00  0.00     0.169 HD
BRANCH   8  11
HETATM   11  C9  UNL     1      17.082   2.791  51.014  1.00  0.00     0.194 A 
HETATM   12  C10 UNL     1      16.451   3.975  51.651  1.00  0.00     0.014 A 
HETATM   13  C11 UNL     1      15.445   3.605  52.424  1.00  0.00     0.088 A 
HETATM   14  N4  UNL     1      15.247   2.210  52.436  1.00  0.00    -0.336 N 
HETATM   15  C12 UNL     1      16.254   1.682  51.566  1.00  0.00     0.238 A 
HETATM   16  H14 UNL     1      14.566   1.607  52.923  1.00  0.00     0.168 HD
HETATM   17  O2  UNL     1      16.464   0.476  51.267  1.00  0.00    -0.272 OA
ENDBRANCH   8  11
ENDBRANCH   4   7
BRANCH   1  18
HETATM   18  N2  UNL     1      24.578   0.737  53.229  1.00  0.00    -0.378 N 
HETATM   19  C3  UNL     1      25.026  -0.605  53.472  1.00  0.00     0.153 C 
HETATM   20  C2  UNL     1      26.495  -0.698  53.716  1.00  0.00     0.291 C 
HETATM   21  N1  UNL     1      27.014   0.405  54.468  1.00  0.00     0.087 N 
HETATM   22  C1  UNL     1      28.475   0.227  54.473  1.00  0.00     0.310 C 
HETATM   23  C16 UNL     1      26.779   1.678  53.832  1.00  0.00     0.291 C 
HETATM   24  C15 UNL     1      25.385   1.917  53.401  1.00  0.00     0.153 C 
ENDBRANCH   1  18
TORSDOF 3
ENDMDL
MODEL 9
REMARK VINA RESULT:      -6.6      3.358      9.108
REMARK  3 active torsions:
REMARK  status: ('A' for Active; 'I' for Inactive)
REMARK    1  A    between atoms: N2_5  and  C4_6 
REMARK    2  A    between atoms: C7_9  and  N3_10 
REMARK       I    between atoms: N3_10  and  C8_11 
REMARK    3  A    between atoms: C8_11  and  C9_13 
ROOT
HETATM    1  C4  UNL     1      22.406   0.324  52.977  1.00  0.00     0.030 A 
HETATM    2  C5  UNL     1      21.965   0.476  51.698  1.00  0.00     0.031 A 
HETATM    3  C6  UNL     1      20.631   0.281  51.407  1.00  0.00     0.032 A 
HETATM    4  C7  UNL     1      19.679  -0.067  52.334  1.00  0.00     0.034 A 
HETATM    5  C13 UNL     1      20.164  -0.211  53.610  1.00  0.00     0.032 A 
HETATM    6  C14 UNL     1      21.480  -0.023  53.928  1.00  0.00     0.031 A 
ENDROOT
BRANCH   4   7
HETATM    7  N3  UNL     1      18.307  -0.282  52.110  1.00  0.00    -0.326 N 
HETATM    8  C8  UNL     1      17.299   0.630  51.746  1.00  0.00     0.239 C 
HETATM    9  O1  UNL     1      17.595   1.837  51.577  1.00  0.00    -0.272 OA
HETATM   10  H10 UNL     1      17.904  -1.237  52.212  1.00  0.00     0.169 HD
BRANCH   8  11
HETATM   11  C9  UNL     1      15.879   0.323  51.531  1.00  0.00     0.194 A 
HETATM   12  C10 UNL     1      15.077   1.495  51.966  1.00  0.00     0.014 A 
HETATM   13  C11 UNL     1      14.351   1.192  53.028  1.00  0.00     0.088 A 
HETATM   14  N4  UNL     1      14.533  -0.138  53.455  1.00  0.00    -0.336 N 
HETATM   15  C12 UNL     1      15.479  -0.699  52.538  1.00  0.00     0.238 A 
HETATM   16  H14 UNL     1      14.128  -0.682  54.233  1.00  0.00     0.168 HD
HETATM   17  O2  UNL     1      15.945  -1.871  52.526  1.00  0.00    -0.272 OA
ENDBRANCH   8  11
ENDBRANCH   4   7
BRANCH   1  18
HETATM   18  N2  UNL     1      23.786   0.530  53.263  1.00  0.00    -0.378 N 
HETATM   19  C3  UNL     1      24.562  -0.593  53.706  1.00  0.00     0.153 C 
HETATM   20  C2  UNL     1      26.027  -0.310  53.761  1.00  0.00     0.291 C 
HETATM   21  N1  UNL     1      26.328   1.020  54.201  1.00  0.00     0.087 N 
HETATM   22  C1  UNL     1      27.783   1.167  54.043  1.00  0.00     0.310 C 
HETATM   23  C16 UNL     1      25.740   2.035  53.362  1.00  0.00     0.291 C 
HETATM   24  C15 UNL     1      24.298   1.864  53.085  1.00  0.00     0.153 C 
ENDBRANCH   1  18
TORSDOF 3
ENDMDL
