MODEL 1
REMARK VINA RESULT:      -7.5      0.000      0.000
REMARK  1 active torsions:
REMARK  status: ('A' for Active; 'I' for Inactive)
REMARK    1  A    between atoms: O1_2  and  C2_3 
ROOT
HETATM    1  C2  UNL     1      31.442   8.205  48.098  1.00  0.00     0.140 C 
HETATM    2  C3  UNL     1      30.143   7.755  48.663  1.00  0.00     0.062 C 
HETATM    3  C4  UNL     1      30.090   6.214  48.598  1.00  0.00     0.204 C 
HETATM    4  O2  UNL     1      30.272   5.876  47.235  1.00  0.00    -0.279 OA
HETATM    5  N1  UNL     1      31.488   5.434  46.934  1.00  0.00    -0.258 N 
HETATM    6  C5  UNL     1      32.840   4.876  46.923  1.00  0.00     0.103 C 
HETATM    7  N2  UNL     1      33.880   5.771  46.518  1.00  0.00    -0.224 NA
HETATM    8  C6  UNL     1      33.252   7.064  46.226  1.00  0.00     0.155 C 
HETATM    9  C7  UNL     1      33.321   6.217  45.167  1.00  0.00     0.161 C 
HETATM   10  C8  UNL     1      33.819   4.877  44.731  1.00  0.00     0.049 C 
HETATM   11 CL1  UNL     1      33.227   4.699  43.072  1.00  0.00    -0.086 Cl
HETATM   12  C9  UNL     1      34.536   3.849  45.202  1.00  0.00     0.111 C 
HETATM   13  N3  UNL     1      35.275   3.417  46.410  1.00  0.00    -0.342 N 
HETATM   14  C10 UNL     1      35.214   4.125  47.679  1.00  0.00     0.179 C 
HETATM   15  N4  UNL     1      34.302   3.362  47.696  1.00  0.00    -0.315 NA
HETATM   16  N5  UNL     1      33.301   2.593  47.828  1.00  0.00    -0.260 N 
HETATM   17  C11 UNL     1      32.966   1.245  48.247  1.00  0.00     0.186 C 
HETATM   18  C12 UNL     1      32.315   3.588  47.380  1.00  0.00     0.228 C 
HETATM   19  C13 UNL     1      35.187   4.857  48.944  1.00  0.00     0.097 C 
HETATM   20  C14 UNL     1      35.636   6.274  48.922  1.00  0.00     0.033 C 
HETATM   21  C15 UNL     1      35.085   7.239  47.979  1.00  0.00     0.077 C 
HETATM   22  C16 UNL     1      35.643   8.640  48.309  1.00  0.00     0.032 C 
HETATM   23  N6  UNL     1      33.692   7.276  47.633  1.00  0.00    -0.380 N 
HETATM   24  C17 UNL     1      32.654   7.464  48.611  1.00  0.00     0.151 C 
HETATM   25  H9  UNL     1      31.129   5.719  46.002  1.00  0.00     0.195 HD
HETATM   26  H12 UNL     1      35.906   2.562  46.302  1.00  0.00     0.167 HD
ENDROOT
BRANCH   1  27
HETATM   27  O1  UNL     1      31.644   9.543  47.882  1.00  0.00    -0.389 OA
HETATM   28  C1  UNL     1      30.894  10.449  48.546  1.00  0.00     0.202 C 
ENDBRANCH   1  27
TORSDOF 1
ENDMDL
MODEL 2
REMARK VINA RESULT:      -6.8      2.619      4.224
REMARK  1 active torsions:
REMARK  status: ('A' for Active; 'I' for Inactive)
REMARK    1  A    between atoms: O1_2  and  C2_3 
ROOT
HETATM    1  C2  UNL     1      31.845   9.145  44.318  1.00  0.00     0.140 C 
HETATM    2  C3  UNL     1      32.040   8.495  42.996  1.00  0.00     0.062 C 
HETATM    3  C4  UNL     1      32.390   7.010  43.228  1.00  0.00     0.204 C 
HETATM    4  O2  UNL     1      33.546   7.007  44.045  1.00  0.00    -0.279 OA
HETATM    5  N1  UNL     1      33.317   6.724  45.323  1.00  0.00    -0.258 N 
HETATM    6  C5  UNL     1      32.794   6.271  46.612  1.00  0.00     0.103 C 
HETATM    7  N2  UNL     1      32.505   7.299  47.563  1.00  0.00    -0.224 NA
HETATM    8  C6  UNL     1      32.825   8.582  46.928  1.00  0.00     0.155 C 
HETATM    9  C7  UNL     1      33.860   8.007  47.593  1.00  0.00     0.161 C 
HETATM   10  C8  UNL     1      34.239   6.837  48.442  1.00  0.00     0.049 C 
HETATM   11 CL1  UNL     1      35.985   7.007  48.682  1.00  0.00    -0.086 Cl
HETATM   12  C9  UNL     1      33.676   5.777  49.035  1.00  0.00     0.111 C 
HETATM   13  N3  UNL     1      32.359   5.126  49.224  1.00  0.00    -0.342 N 
HETATM   14  C10 UNL     1      31.163   5.520  48.494  1.00  0.00     0.179 C 
HETATM   15  N4  UNL     1      31.707   4.716  47.806  1.00  0.00    -0.315 NA
HETATM   16  N5  UNL     1      32.192   3.875  46.989  1.00  0.00    -0.260 N 
HETATM   17  C11 UNL     1      32.221   2.448  46.728  1.00  0.00     0.186 C 
HETATM   18  C12 UNL     1      32.867   4.881  46.156  1.00  0.00     0.228 C 
HETATM   19  C13 UNL     1      29.950   5.938  47.794  1.00  0.00     0.097 C 
HETATM   20  C14 UNL     1      29.514   7.348  47.970  1.00  0.00     0.033 C 
HETATM   21  C15 UNL     1      30.420   8.466  47.743  1.00  0.00     0.077 C 
HETATM   22  C16 UNL     1      29.629   9.787  47.863  1.00  0.00     0.032 C 
HETATM   23  N6  UNL     1      31.363   8.493  46.660  1.00  0.00    -0.380 N 
HETATM   24  C17 UNL     1      30.965   8.385  45.282  1.00  0.00     0.151 C 
HETATM   25  H9  UNL     1      34.244   7.192  45.371  1.00  0.00     0.195 HD
HETATM   26  H12 UNL     1      32.308   4.361  49.967  1.00  0.00     0.167 HD
ENDROOT
BRANCH   1  27
HETATM   27  O1  UNL     1      31.706  10.507  44.375  1.00  0.00    -0.389 OA
HETATM   28  C1  UNL     1      32.802  11.294  44.323  1.00  0.00     0.202 C 
ENDBRANCH   1  27
TORSDOF 1
ENDMDL
MODEL 3
REMARK VINA RESULT:      -6.8     11.341     13.746
REMARK  1 active torsions:
REMARK  status: ('A' for Active; 'I' for Inactive)
REMARK    1  A    between atoms: O1_2  and  C2_3 
ROOT
HETATM    1  C2  UNL     1      22.872   0.298  52.718  1.00  0.00     0.140 C 
HETATM    2  C3  UNL     1      23.999   0.890  53.484  1.00  0.00     0.062 C 
HETATM    3  C4  UNL     1      24.141   2.372  53.078  1.00  0.00     0.204 C 
HETATM    4  O2  UNL     1      24.336   2.374  51.675  1.00  0.00    -0.279 OA
HETATM    5  N1  UNL     1      23.262   2.713  50.970  1.00  0.00    -0.258 N 
HETATM    6  C5  UNL     1      21.988   3.230  50.473  1.00  0.00     0.103 C 
HETATM    7  N2  UNL     1      21.048   2.248  50.028  1.00  0.00    -0.224 NA
HETATM    8  C6  UNL     1      21.668   0.933  50.221  1.00  0.00     0.155 C 
HETATM    9  C7  UNL     1      21.917   1.503  49.015  1.00  0.00     0.161 C 
HETATM   10  C8  UNL     1      21.614   2.694  48.163  1.00  0.00     0.049 C 
HETATM   11 CL1  UNL     1      22.625   2.482  46.725  1.00  0.00    -0.086 Cl
HETATM   12  C9  UNL     1      20.849   3.792  48.175  1.00  0.00     0.111 C 
HETATM   13  N3  UNL     1      19.842   4.487  49.010  1.00  0.00    -0.342 N 
HETATM   14  C10 UNL     1      19.538   4.100  50.379  1.00  0.00     0.179 C 
HETATM   15  N4  UNL     1      20.449   4.861  50.458  1.00  0.00    -0.315 NA
HETATM   16  N5  UNL     1      21.416   5.655  50.666  1.00  0.00    -0.260 N 
HETATM   17  C11 UNL     1      21.695   7.069  50.832  1.00  0.00     0.186 C 
HETATM   18  C12 UNL     1      22.436   4.598  50.739  1.00  0.00     0.228 C 
HETATM   19  C13 UNL     1      19.199   3.690  51.741  1.00  0.00     0.097 C 
HETATM   20  C14 UNL     1      18.705   2.302  51.932  1.00  0.00     0.033 C 
HETATM   21  C15 UNL     1      19.436   1.150  51.419  1.00  0.00     0.077 C 
HETATM   22  C16 UNL     1      18.745  -0.142  51.907  1.00  0.00     0.032 C 
HETATM   23  N6  UNL     1      20.867   1.054  51.472  1.00  0.00    -0.380 N 
HETATM   24  C17 UNL     1      21.605   1.120  52.705  1.00  0.00     0.151 C 
HETATM   25  H9  UNL     1      23.837   2.220  50.259  1.00  0.00     0.195 HD
HETATM   26  H12 UNL     1      19.303   5.281  48.543  1.00  0.00     0.167 HD
ENDROOT
BRANCH   1  27
HETATM   27  O1  UNL     1      22.670  -1.056  52.773  1.00  0.00    -0.389 OA
HETATM   28  C1  UNL     1      21.919  -1.581  53.765  1.00  0.00     0.202 C 
ENDBRANCH   1  27
TORSDOF 1
ENDMDL
MODEL 4
REMARK VINA RESULT:      -6.7     10.996     13.542
REMARK  1 active torsions:
REMARK  status: ('A' for Active; 'I' for Inactive)
REMARK    1  A    between atoms: O1_2  and  C2_3 
ROOT
HETATM    1  C2  UNL     1      22.917   5.483  50.268  1.00  0.00     0.140 C 
HETATM    2  C3  UNL     1      23.793   5.685  51.452  1.00  0.00     0.062 C 
HETATM    3  C4  UNL     1      23.394   4.660  52.534  1.00  0.00     0.204 C 
HETATM    4  O2  UNL     1      22.019   4.882  52.792  1.00  0.00    -0.279 OA
HETATM    5  N1  UNL     1      21.204   3.992  52.237  1.00  0.00    -0.258 N 
HETATM    6  C5  UNL     1      20.574   2.822  51.626  1.00  0.00     0.103 C 
HETATM    7  N2  UNL     1      20.040   3.017  50.313  1.00  0.00    -0.224 NA
HETATM    8  C6  UNL     1      20.305   4.409  49.937  1.00  0.00     0.155 C 
HETATM    9  C7  UNL     1      19.127   4.213  50.584  1.00  0.00     0.161 C 
HETATM   10  C8  UNL     1      18.242   3.163  51.173  1.00  0.00     0.049 C 
HETATM   11 CL1  UNL     1      16.918   4.067  51.924  1.00  0.00    -0.086 Cl
HETATM   12  C9  UNL     1      18.166   1.831  51.284  1.00  0.00     0.111 C 
HETATM   13  N3  UNL     1      18.888   0.599  50.891  1.00  0.00    -0.342 N 
HETATM   14  C10 UNL     1      20.220   0.608  50.307  1.00  0.00     0.179 C 
HETATM   15  N4  UNL     1      20.389   0.592  51.484  1.00  0.00    -0.315 NA
HETATM   16  N5  UNL     1      20.691   0.576  52.716  1.00  0.00    -0.260 N 
HETATM   17  C11 UNL     1      20.876  -0.350  53.817  1.00  0.00     0.186 C 
HETATM   18  C12 UNL     1      20.876   2.031  52.821  1.00  0.00     0.228 C 
HETATM   19  C13 UNL     1      21.542   0.613  49.682  1.00  0.00     0.097 C 
HETATM   20  C14 UNL     1      21.690   1.358  48.405  1.00  0.00     0.033 C 
HETATM   21  C15 UNL     1      21.263   2.745  48.271  1.00  0.00     0.077 C 
HETATM   22  C16 UNL     1      21.685   3.269  46.882  1.00  0.00     0.032 C 
HETATM   23  N6  UNL     1      21.465   3.720  49.305  1.00  0.00    -0.380 N 
HETATM   24  C17 UNL     1      22.768   4.048  49.819  1.00  0.00     0.151 C 
HETATM   25  H9  UNL     1      20.559   4.786  52.419  1.00  0.00     0.195 HD
HETATM   26  H12 UNL     1      18.363  -0.322  51.018  1.00  0.00     0.167 HD
ENDROOT
BRANCH   1  27
HETATM   27  O1  UNL     1      22.960   6.396  49.247  1.00  0.00    -0.389 OA
HETATM   28  C1  UNL     1      23.806   6.203  48.212  1.00  0.00     0.202 C 
ENDBRANCH   1  27
TORSDOF 1
ENDMDL
MODEL 5
REMARK VINA RESULT:      -6.6      3.301      6.919
REMARK  1 active torsions:
REMARK  status: ('A' for Active; 'I' for Inactive)
REMARK    1  A    between atoms: O1_2  and  C2_3 
ROOT
HETATM    1  C2  UNL     1      31.474   5.835  48.149  1.00  0.00     0.140 C 
HETATM    2  C3  UNL     1      32.823   6.122  48.703  1.00  0.00     0.062 C 
HETATM    3  C4  UNL     1      32.990   7.652  48.814  1.00  0.00     0.204 C 
HETATM    4  O2  UNL     1      32.785   8.161  47.509  1.00  0.00    -0.279 OA
HETATM    5  N1  UNL     1      31.596   8.721  47.316  1.00  0.00    -0.258 N 
HETATM    6  C5  UNL     1      30.291   9.371  47.430  1.00  0.00     0.103 C 
HETATM    7  N2  UNL     1      29.172   8.607  46.971  1.00  0.00    -0.224 NA
HETATM    8  C6  UNL     1      29.688   7.316  46.504  1.00  0.00     0.155 C 
HETATM    9  C7  UNL     1      29.646   8.285  45.554  1.00  0.00     0.161 C 
HETATM   10  C8  UNL     1      29.236   9.700  45.299  1.00  0.00     0.049 C 
HETATM   11 CL1  UNL     1      29.779  10.031  43.647  1.00  0.00    -0.086 Cl
HETATM   12  C9  UNL     1      28.617  10.713  45.917  1.00  0.00     0.111 C 
HETATM   13  N3  UNL     1      27.957  11.051  47.199  1.00  0.00    -0.342 N 
HETATM   14  C10 UNL     1      28.010  10.194  48.373  1.00  0.00     0.179 C 
HETATM   15  N4  UNL     1      28.978  10.883  48.438  1.00  0.00    -0.315 NA
HETATM   16  N5  UNL     1      30.038  11.558  48.613  1.00  0.00    -0.260 N 
HETATM   17  C11 UNL     1      30.490  12.820  49.169  1.00  0.00     0.186 C 
HETATM   18  C12 UNL     1      30.929  10.556  48.009  1.00  0.00     0.228 C 
HETATM   19  C13 UNL     1      28.027   9.318  49.544  1.00  0.00     0.097 C 
HETATM   20  C14 UNL     1      27.471   7.950  49.378  1.00  0.00     0.033 C 
HETATM   21  C15 UNL     1      27.913   7.066  48.306  1.00  0.00     0.077 C 
HETATM   22  C16 UNL     1      27.262   5.679  48.496  1.00  0.00     0.032 C 
HETATM   23  N6  UNL     1      29.285   6.971  47.896  1.00  0.00    -0.380 N 
HETATM   24  C17 UNL     1      30.341   6.595  48.798  1.00  0.00     0.151 C 
HETATM   25  H9  UNL     1      31.898   8.524  46.342  1.00  0.00     0.195 HD
HETATM   26  H12 UNL     1      27.390  11.956  47.219  1.00  0.00     0.167 HD
ENDROOT
BRANCH   1  27
HETATM   27  O1  UNL     1      31.163   4.550  47.789  1.00  0.00    -0.389 OA
HETATM   28  C1  UNL     1      31.944   3.897  46.902  1.00  0.00     0.202 C 
ENDBRANCH   1  27
TORSDOF 1
ENDMDL
MODEL 6
REMARK VINA RESULT:      -6.5     10.696     12.764
REMARK  1 active torsions:
REMARK  status: ('A' for Active; 'I' for Inactive)
REMARK    1  A    between atoms: O1_2  and  C2_3 
ROOT
HETATM    1  C2  UNL     1      20.389   1.567  52.183  1.00  0.00     0.140 C 
HETATM    2  C3  UNL     1      19.422   0.700  51.461  1.00  0.00     0.062 C 
HETATM    3  C4  UNL     1      19.367   1.151  49.987  1.00  0.00     0.204 C 
HETATM    4  O2  UNL     1      19.005   2.519  50.012  1.00  0.00    -0.279 OA
HETATM    5  N1  UNL     1      20.011   3.361  49.800  1.00  0.00    -0.258 N 
HETATM    6  C5  UNL     1      21.257   4.026  49.423  1.00  0.00     0.103 C 
HETATM    7  N2  UNL     1      22.043   4.535  50.504  1.00  0.00    -0.224 NA
HETATM    8  C6  UNL     1      21.335   4.213  51.747  1.00  0.00     0.155 C 
HETATM    9  C7  UNL     1      20.994   5.406  51.195  1.00  0.00     0.161 C 
HETATM   10  C8  UNL     1      21.298   6.338  50.067  1.00  0.00     0.049 C 
HETATM   11 CL1  UNL     1      20.106   7.637  50.228  1.00  0.00    -0.086 Cl
HETATM   12  C9  UNL     1      22.156   6.464  49.047  1.00  0.00     0.111 C 
HETATM   13  N3  UNL     1      23.315   5.784  48.424  1.00  0.00    -0.342 N 
HETATM   14  C10 UNL     1      23.747   4.445  48.793  1.00  0.00     0.179 C 
HETATM   15  N4  UNL     1      22.924   4.293  47.947  1.00  0.00    -0.315 NA
HETATM   16  N5  UNL     1      22.066   4.007  47.058  1.00  0.00    -0.260 N 
HETATM   17  C11 UNL     1      21.938   3.871  45.619  1.00  0.00     0.186 C 
HETATM   18  C12 UNL     1      20.970   3.769  48.010  1.00  0.00     0.228 C 
HETATM   19  C13 UNL     1      24.209   3.116  49.189  1.00  0.00     0.097 C 
HETATM   20  C14 UNL     1      24.595   2.924  50.611  1.00  0.00     0.033 C 
HETATM   21  C15 UNL     1      23.706   3.296  51.705  1.00  0.00     0.077 C 
HETATM   22  C16 UNL     1      24.331   2.837  53.040  1.00  0.00     0.032 C 
HETATM   23  N6  UNL     1      22.289   3.072  51.662  1.00  0.00    -0.380 N 
HETATM   24  C17 UNL     1      21.715   1.764  51.486  1.00  0.00     0.151 C 
HETATM   25  H9  UNL     1      19.312   3.977  50.258  1.00  0.00     0.195 HD
HETATM   26  H12 UNL     1      23.864   6.346  47.700  1.00  0.00     0.167 HD
ENDROOT
BRANCH   1  27
HETATM   27  O1  UNL     1      20.473   1.476  53.547  1.00  0.00    -0.389 OA
HETATM   28  C1  UNL     1      21.108   0.426  54.111  1.00  0.00     0.202 C 
ENDBRANCH   1  27
TORSDOF 1
ENDMDL
MODEL 7
REMARK VINA RESULT:      -6.5      9.218     11.797
REMARK  1 active torsions:
REMARK  status: ('A' for Active; 'I' for Inactive)
REMARK    1  A    between atoms: O1_2  and  C2_3 
ROOT
HETATM    1  C2  UNL     1      24.453   6.477  50.404  1.00  0.00     0.140 C 
HETATM    2  C3  UNL     1      23.813   7.748  50.832  1.00  0.00     0.062 C 
HETATM    3  C4  UNL     1      22.285   7.536  50.878  1.00  0.00     0.204 C 
HETATM    4  O2  UNL     1      21.912   7.113  49.579  1.00  0.00    -0.279 OA
HETATM    5  N1  UNL     1      21.674   5.810  49.470  1.00  0.00    -0.258 N 
HETATM    6  C5  UNL     1      21.361   4.397  49.673  1.00  0.00     0.103 C 
HETATM    7  N2  UNL     1      22.401   3.474  49.336  1.00  0.00    -0.224 NA
HETATM    8  C6  UNL     1      23.547   4.261  48.869  1.00  0.00     0.155 C 
HETATM    9  C7  UNL     1      22.670   3.907  47.895  1.00  0.00     0.161 C 
HETATM   10  C8  UNL     1      21.416   3.139  47.630  1.00  0.00     0.049 C 
HETATM   11 CL1  UNL     1      21.049   3.457  45.928  1.00  0.00    -0.086 Cl
HETATM   12  C9  UNL     1      20.556   2.332  48.265  1.00  0.00     0.111 C 
HETATM   13  N3  UNL     1      20.324   1.706  49.587  1.00  0.00    -0.342 N 
HETATM   14  C10 UNL     1      21.078   2.059  50.780  1.00  0.00     0.179 C 
HETATM   15  N4  UNL     1      20.169   2.825  50.739  1.00  0.00    -0.315 NA
HETATM   16  N5  UNL     1      19.245   3.693  50.801  1.00  0.00    -0.260 N 
HETATM   17  C11 UNL     1      17.883   3.854  51.275  1.00  0.00     0.186 C 
HETATM   18  C12 UNL     1      20.027   4.758  50.156  1.00  0.00     0.228 C 
HETATM   19  C13 UNL     1      21.860   2.381  51.972  1.00  0.00     0.097 C 
HETATM   20  C14 UNL     1      23.330   2.175  51.899  1.00  0.00     0.033 C 
HETATM   21  C15 UNL     1      24.132   2.743  50.823  1.00  0.00     0.077 C 
HETATM   22  C16 UNL     1      25.625   2.476  51.113  1.00  0.00     0.032 C 
HETATM   23  N6  UNL     1      23.907   4.061  50.301  1.00  0.00    -0.380 N 
HETATM   24  C17 UNL     1      23.963   5.241  51.122  1.00  0.00     0.151 C 
HETATM   25  H9  UNL     1      21.842   6.080  48.481  1.00  0.00     0.195 HD
HETATM   26  H12 UNL     1      19.588   0.933  49.625  1.00  0.00     0.167 HD
ENDROOT
BRANCH   1  27
HETATM   27  O1  UNL     1      25.791   6.472  50.114  1.00  0.00    -0.389 OA
HETATM   28  C1  UNL     1      26.214   6.880  48.898  1.00  0.00     0.202 C 
ENDBRANCH   1  27
TORSDOF 1
ENDMDL
MODEL 8
REMARK VINA RESULT:      -6.5      8.839     11.757
REMARK  1 active torsions:
REMARK  status: ('A' for Active; 'I' for Inactive)
REMARK    1  A    between atoms: O1_2  and  C2_3 
ROOT
HETATM    1  C2  UNL     1      24.742   1.391  51.822  1.00  0.00     0.140 C 
HETATM    2  C3  UNL     1      26.200   1.660  51.930  1.00  0.00     0.062 C 
HETATM    3  C4  UNL     1      26.512   2.971  51.179  1.00  0.00     0.204 C 
HETATM    4  O2  UNL     1      26.060   2.776  49.851  1.00  0.00    -0.279 OA
HETATM    5  N1  UNL     1      24.907   3.373  49.567  1.00  0.00    -0.258 N 
HETATM    6  C5  UNL     1      23.719   4.222  49.508  1.00  0.00     0.103 C 
HETATM    7  N2  UNL     1      22.467   3.557  49.701  1.00  0.00    -0.224 NA
HETATM    8  C6  UNL     1      22.759   2.137  49.926  1.00  0.00     0.155 C 
HETATM    9  C7  UNL     1      22.583   2.478  48.624  1.00  0.00     0.161 C 
HETATM   10  C8  UNL     1      22.242   3.616  47.716  1.00  0.00     0.049 C 
HETATM   11 CL1  UNL     1      22.424   2.954  46.084  1.00  0.00    -0.086 Cl
HETATM   12  C9  UNL     1      21.861   4.897  47.779  1.00  0.00     0.111 C 
HETATM   13  N3  UNL     1      21.537   5.956  48.763  1.00  0.00    -0.342 N 
HETATM   14  C10 UNL     1      21.783   5.821  50.190  1.00  0.00     0.179 C 
HETATM   15  N4  UNL     1      22.793   6.252  49.732  1.00  0.00    -0.315 NA
HETATM   16  N5  UNL     1      23.916   6.709  49.360  1.00  0.00    -0.260 N 
HETATM   17  C11 UNL     1      24.582   7.968  49.080  1.00  0.00     0.186 C 
HETATM   18  C12 UNL     1      24.564   5.392  49.261  1.00  0.00     0.228 C 
HETATM   19  C13 UNL     1      21.991   5.675  51.630  1.00  0.00     0.097 C 
HETATM   20  C14 UNL     1      21.304   4.544  52.306  1.00  0.00     0.033 C 
HETATM   21  C15 UNL     1      21.419   3.175  51.822  1.00  0.00     0.077 C 
HETATM   22  C16 UNL     1      20.718   2.227  52.818  1.00  0.00     0.032 C 
HETATM   23  N6  UNL     1      22.652   2.629  51.328  1.00  0.00    -0.380 N 
HETATM   24  C17 UNL     1      23.850   2.572  52.124  1.00  0.00     0.151 C 
HETATM   25  H9  UNL     1      24.966   2.655  48.818  1.00  0.00     0.195 HD
HETATM   26  H12 UNL     1      21.063   6.833  48.380  1.00  0.00     0.167 HD
ENDROOT
BRANCH   1  27
HETATM   27  O1  UNL     1      24.255   0.186  52.256  1.00  0.00    -0.389 OA
HETATM   28  C1  UNL     1      24.765  -0.380  53.371  1.00  0.00     0.202 C 
ENDBRANCH   1  27
TORSDOF 1
ENDMDL
MODEL 9
REMARK VINA RESULT:      -6.3     10.562     13.359
REMARK  1 active torsions:
REMARK  status: ('A' for Active; 'I' for Inactive)
REMARK    1  A    between atoms: O1_2  and  C2_3 
ROOT
HETATM    1  C2  UNL     1      24.066   3.006  52.844  1.00  0.00     0.140 C 
HETATM    2  C3  UNL     1      24.031   4.394  53.375  1.00  0.00     0.062 C 
HETATM    3  C4  UNL     1      22.787   5.105  52.803  1.00  0.00     0.204 C 
HETATM    4  O2  UNL     1      22.911   5.032  51.394  1.00  0.00    -0.279 OA
HETATM    5  N1  UNL     1      22.139   4.115  50.820  1.00  0.00    -0.258 N 
HETATM    6  C5  UNL     1      21.112   3.138  50.461  1.00  0.00     0.103 C 
HETATM    7  N2  UNL     1      21.571   1.798  50.259  1.00  0.00    -0.224 NA
HETATM    8  C6  UNL     1      23.018   1.793  50.495  1.00  0.00     0.155 C 
HETATM    9  C7  UNL     1      22.656   2.055  49.213  1.00  0.00     0.161 C 
HETATM   10  C8  UNL     1      21.480   2.168  48.297  1.00  0.00     0.049 C 
HETATM   11 CL1  UNL     1      22.165   2.711  46.757  1.00  0.00    -0.086 Cl
HETATM   12  C9  UNL     1      20.154   1.985  48.306  1.00  0.00     0.111 C 
HETATM   13  N3  UNL     1      19.056   1.555  49.201  1.00  0.00    -0.342 N 
HETATM   14  C10 UNL     1      19.226   1.355  50.632  1.00  0.00     0.179 C 
HETATM   15  N4  UNL     1      18.961   2.507  50.501  1.00  0.00    -0.315 NA
HETATM   16  N5  UNL     1      18.688   3.746  50.485  1.00  0.00    -0.260 N 
HETATM   17  C11 UNL     1      17.552   4.648  50.464  1.00  0.00     0.186 C 
HETATM   18  C12 UNL     1      20.091   4.186  50.518  1.00  0.00     0.228 C 
HETATM   19  C13 UNL     1      19.401   1.113  52.063  1.00  0.00     0.097 C 
HETATM   20  C14 UNL     1      20.407   0.096  52.465  1.00  0.00     0.033 C 
HETATM   21  C15 UNL     1      21.778   0.137  51.973  1.00  0.00     0.077 C 
HETATM   22  C16 UNL     1      22.602  -0.958  52.685  1.00  0.00     0.032 C 
HETATM   23  N6  UNL     1      22.514   1.362  51.829  1.00  0.00    -0.380 N 
HETATM   24  C17 UNL     1      22.758   2.255  52.929  1.00  0.00     0.151 C 
HETATM   25  H9  UNL     1      22.858   4.278  50.087  1.00  0.00     0.195 HD
HETATM   26  H12 UNL     1      18.115   1.352  48.738  1.00  0.00     0.167 HD
ENDROOT
BRANCH   1  27
HETATM   27  O1  UNL     1      25.178   2.237  53.066  1.00  0.00    -0.389 OA
HETATM   28  C1  UNL     1      26.206   2.279  52.192  1.00  0.00     0.202 C 
ENDBRANCH   1  27
TORSDOF 1
ENDMDL
