MODEL 1
REMARK VINA RESULT:      -9.1      0.000      0.000
REMARK  1 active torsions:
REMARK  status: ('A' for Active; 'I' for Inactive)
REMARK    1  A    between atoms: C4_5  and  N1_6 
ROOT
HETATM    1  N1  UNL     1      26.095   1.298  52.187  1.00  0.00    -0.243 N 
HETATM    2  C5  UNL     1      26.680   1.981  51.160  1.00  0.00     0.136 C 
HETATM    3  C6  UNL     1      26.451   3.203  50.509  1.00  0.00     0.115 C 
HETATM    4  N2  UNL     1      25.395   4.008  50.577  1.00  0.00    -0.304 N 
HETATM    5  C7  UNL     1      24.268   4.098  51.249  1.00  0.00     0.252 C 
HETATM    6  N3  UNL     1      23.806   3.538  52.355  1.00  0.00    -0.200 NA
HETATM    7  C8  UNL     1      24.000   2.387  53.018  1.00  0.00     0.259 C 
HETATM    8  N4  UNL     1      25.020   1.486  52.936  1.00  0.00    -0.161 NA
HETATM    9  O1  UNL     1      23.205   4.942  50.826  1.00  0.00    -0.294 OA
HETATM   10  C9  UNL     1      23.246   6.405  50.630  1.00  0.00     0.157 A 
HETATM   11  C10 UNL     1      21.730   6.726  50.853  1.00  0.00     0.104 A 
HETATM   12  S1  UNL     1      22.890   7.522  50.548  1.00  0.00    -0.151 SA
HETATM   13  C11 UNL     1      23.911   8.188  50.285  1.00  0.00    -0.009 A 
HETATM   14  C12 UNL     1      24.852   8.771  50.047  1.00  0.00     0.078 A 
HETATM   15  C13 UNL     1      24.693   7.237  50.269  1.00  0.00     0.111 A 
HETATM   16  N5  UNL     1      25.916   6.264  50.131  1.00  0.00    -0.384 N 
HETATM   17  C14 UNL     1      25.963   4.859  49.563  1.00  0.00     0.251 C 
HETATM   18  H8  UNL     1      26.724   6.804  50.524  1.00  0.00     0.156 HD
ENDROOT
BRANCH   1  19
HETATM   19  C4  UNL     1      26.836   0.123  52.494  1.00  0.00     0.059 A 
HETATM   20  C3  UNL     1      26.268  -1.118  52.247  1.00  0.00     0.034 A 
HETATM   21  C2  UNL     1      26.947  -2.292  52.527  1.00  0.00     0.046 A 
HETATM   22  C1  UNL     1      28.226  -2.236  53.068  1.00  0.00     0.138 A 
HETATM   23  F1  UNL     1      28.947  -3.352  53.366  1.00  0.00    -0.204 F 
HETATM   24  C16 UNL     1      28.800  -0.992  53.317  1.00  0.00     0.074 A 
HETATM   25  C15 UNL     1      28.115   0.193  53.034  1.00  0.00     0.058 A 
HETATM   26 CL1  UNL     1      30.395  -0.926  53.991  1.00  0.00    -0.081 Cl
ENDBRANCH   1  19
TORSDOF 1
ENDMDL
MODEL 2
REMARK VINA RESULT:      -9.0      4.227      6.173
REMARK  1 active torsions:
REMARK  status: ('A' for Active; 'I' for Inactive)
REMARK    1  A    between atoms: C4_5  and  N1_6 
ROOT
HETATM    1  N1  UNL     1      25.086   0.222  52.995  1.00  0.00    -0.243 N 
HETATM    2  C5  UNL     1      24.369  -0.371  53.994  1.00  0.00     0.136 C 
HETATM    3  C6  UNL     1      23.009  -0.593  54.256  1.00  0.00     0.115 C 
HETATM    4  N2  UNL     1      21.941  -0.068  53.665  1.00  0.00    -0.304 N 
HETATM    5  C7  UNL     1      21.667   0.714  52.643  1.00  0.00     0.252 C 
HETATM    6  N3  UNL     1      22.349   1.128  51.588  1.00  0.00    -0.200 NA
HETATM    7  C8  UNL     1      23.640   1.345  51.287  1.00  0.00     0.259 C 
HETATM    8  N4  UNL     1      24.773   0.898  51.900  1.00  0.00    -0.161 NA
HETATM    9  O1  UNL     1      20.397   1.335  52.489  1.00  0.00    -0.294 OA
HETATM   10  C9  UNL     1      19.083   0.670  52.378  1.00  0.00     0.157 A 
HETATM   11  C10 UNL     1      18.312   1.780  51.586  1.00  0.00     0.104 A 
HETATM   12  S1  UNL     1      17.957   0.481  52.098  1.00  0.00    -0.151 SA
HETATM   13  C11 UNL     1      17.676  -0.646  52.551  1.00  0.00    -0.009 A 
HETATM   14  C12 UNL     1      17.445  -1.672  52.970  1.00  0.00     0.078 A 
HETATM   15  C13 UNL     1      18.785  -0.879  53.032  1.00  0.00     0.111 A 
HETATM   16  N5  UNL     1      20.037  -1.456  53.781  1.00  0.00    -0.384 N 
HETATM   17  C14 UNL     1      21.077  -0.726  54.610  1.00  0.00     0.251 C 
HETATM   18  H8  UNL     1      20.006  -2.485  53.586  1.00  0.00     0.156 HD
ENDROOT
BRANCH   1  19
HETATM   19  C4  UNL     1      26.482   0.057  53.213  1.00  0.00     0.059 A 
HETATM   20  C3  UNL     1      27.073  -1.160  52.910  1.00  0.00     0.034 A 
HETATM   21  C2  UNL     1      28.428  -1.374  53.102  1.00  0.00     0.046 A 
HETATM   22  C1  UNL     1      29.221  -0.352  53.612  1.00  0.00     0.138 A 
HETATM   23  F1  UNL     1      30.558  -0.496  53.825  1.00  0.00    -0.204 F 
HETATM   24  C16 UNL     1      28.630   0.872  53.918  1.00  0.00     0.074 A 
HETATM   25  C15 UNL     1      27.264   1.087  53.723  1.00  0.00     0.058 A 
HETATM   26 CL1  UNL     1      29.622   2.144  54.552  1.00  0.00    -0.081 Cl
ENDBRANCH   1  19
TORSDOF 1
ENDMDL
MODEL 3
REMARK VINA RESULT:      -8.9      3.461      5.181
REMARK  1 active torsions:
REMARK  status: ('A' for Active; 'I' for Inactive)
REMARK    1  A    between atoms: C4_5  and  N1_6 
ROOT
HETATM    1  N1  UNL     1      25.446   0.961  52.773  1.00  0.00    -0.243 N 
HETATM    2  C5  UNL     1      24.559   0.194  53.472  1.00  0.00     0.136 C 
HETATM    3  C6  UNL     1      23.161   0.089  53.540  1.00  0.00     0.115 C 
HETATM    4  N2  UNL     1      22.231   0.909  53.062  1.00  0.00    -0.304 N 
HETATM    5  C7  UNL     1      22.162   1.995  52.323  1.00  0.00     0.252 C 
HETATM    6  N3  UNL     1      23.004   2.614  51.511  1.00  0.00    -0.200 NA
HETATM    7  C8  UNL     1      24.336   2.735  51.398  1.00  0.00     0.259 C 
HETATM    8  N4  UNL     1      25.337   1.974  51.927  1.00  0.00    -0.161 NA
HETATM    9  O1  UNL     1      20.991   2.798  52.272  1.00  0.00    -0.294 OA
HETATM   10  C9  UNL     1      19.637   2.383  51.852  1.00  0.00     0.157 A 
HETATM   11  C10 UNL     1      19.084   3.775  51.393  1.00  0.00     0.104 A 
HETATM   12  S1  UNL     1      18.538   2.443  51.437  1.00  0.00    -0.151 SA
HETATM   13  C11 UNL     1      18.091   1.281  51.485  1.00  0.00    -0.009 A 
HETATM   14  C12 UNL     1      17.707   0.216  51.538  1.00  0.00     0.078 A 
HETATM   15  C13 UNL     1      19.105   0.764  51.955  1.00  0.00     0.111 A 
HETATM   16  N5  UNL     1      20.194  -0.177  52.581  1.00  0.00    -0.384 N 
HETATM   17  C14 UNL     1      21.198   0.118  53.678  1.00  0.00     0.251 C 
HETATM   18  H8  UNL     1      20.079  -1.084  52.068  1.00  0.00     0.156 HD
ENDROOT
BRANCH   1  19
HETATM   19  C4  UNL     1      26.782   0.549  53.038  1.00  0.00     0.059 A 
HETATM   20  C3  UNL     1      27.729   1.505  53.374  1.00  0.00     0.034 A 
HETATM   21  C2  UNL     1      29.043   1.158  53.643  1.00  0.00     0.046 A 
HETATM   22  C1  UNL     1      29.430  -0.176  53.576  1.00  0.00     0.138 A 
HETATM   23  F1  UNL     1      30.704  -0.584  53.828  1.00  0.00    -0.204 F 
HETATM   24  C16 UNL     1      28.481  -1.139  53.239  1.00  0.00     0.074 A 
HETATM   25  C15 UNL     1      27.156  -0.788  52.968  1.00  0.00     0.058 A 
HETATM   26 CL1  UNL     1      28.968  -2.800  53.157  1.00  0.00    -0.081 Cl
ENDBRANCH   1  19
TORSDOF 1
ENDMDL
MODEL 4
REMARK VINA RESULT:      -8.7      3.810      4.848
REMARK  1 active torsions:
REMARK  status: ('A' for Active; 'I' for Inactive)
REMARK    1  A    between atoms: C4_5  and  N1_6 
ROOT
HETATM    1  N1  UNL     1      25.069   0.369  52.702  1.00  0.00    -0.243 N 
HETATM    2  C5  UNL     1      24.796   1.379  51.824  1.00  0.00     0.136 C 
HETATM    3  C6  UNL     1      23.634   1.955  51.289  1.00  0.00     0.115 C 
HETATM    4  N2  UNL     1      22.381   1.513  51.327  1.00  0.00    -0.304 N 
HETATM    5  C7  UNL     1      21.700   0.532  51.878  1.00  0.00     0.252 C 
HETATM    6  N3  UNL     1      21.941  -0.321  52.860  1.00  0.00    -0.200 NA
HETATM    7  C8  UNL     1      23.025  -0.889  53.412  1.00  0.00     0.259 C 
HETATM    8  N4  UNL     1      24.338  -0.528  53.345  1.00  0.00    -0.161 NA
HETATM    9  O1  UNL     1      20.396   0.180  51.436  1.00  0.00    -0.294 OA
HETATM   10  C9  UNL     1      19.197   1.042  51.404  1.00  0.00     0.157 A 
HETATM   11  C10 UNL     1      18.094  -0.067  51.494  1.00  0.00     0.104 A 
HETATM   12  S1  UNL     1      18.068   1.371  51.405  1.00  0.00    -0.151 SA
HETATM   13  C11 UNL     1      18.074   2.615  51.329  1.00  0.00    -0.009 A 
HETATM   14  C12 UNL     1      18.105   3.745  51.260  1.00  0.00     0.078 A 
HETATM   15  C13 UNL     1      19.299   2.743  51.296  1.00  0.00     0.111 A 
HETATM   16  N5  UNL     1      20.782   3.241  51.188  1.00  0.00    -0.384 N 
HETATM   17  C14 UNL     1      21.959   2.598  50.480  1.00  0.00     0.251 C 
HETATM   18  H8  UNL     1      20.794   4.143  51.723  1.00  0.00     0.156 HD
ENDROOT
BRANCH   1  19
HETATM   19  C4  UNL     1      26.466   0.292  52.959  1.00  0.00     0.059 A 
HETATM   20  C3  UNL     1      27.176   1.461  53.186  1.00  0.00     0.034 A 
HETATM   21  C2  UNL     1      28.537   1.443  53.441  1.00  0.00     0.046 A 
HETATM   22  C1  UNL     1      29.216   0.230  53.473  1.00  0.00     0.138 A 
HETATM   23  F1  UNL     1      30.552   0.142  53.718  1.00  0.00    -0.204 F 
HETATM   24  C16 UNL     1      28.506  -0.947  53.246  1.00  0.00     0.074 A 
HETATM   25  C15 UNL     1      27.133  -0.927  52.988  1.00  0.00     0.058 A 
HETATM   26 CL1  UNL     1      29.355  -2.457  53.286  1.00  0.00    -0.081 Cl
ENDBRANCH   1  19
TORSDOF 1
ENDMDL
MODEL 5
REMARK VINA RESULT:      -8.6      3.860      5.417
REMARK  1 active torsions:
REMARK  status: ('A' for Active; 'I' for Inactive)
REMARK    1  A    between atoms: C4_5  and  N1_6 
ROOT
HETATM    1  N1  UNL     1      24.727   0.896  52.710  1.00  0.00    -0.243 N 
HETATM    2  C5  UNL     1      23.831   0.110  53.376  1.00  0.00     0.136 C 
HETATM    3  C6  UNL     1      22.432   0.001  53.422  1.00  0.00     0.115 C 
HETATM    4  N2  UNL     1      21.508   0.832  52.952  1.00  0.00    -0.304 N 
HETATM    5  C7  UNL     1      21.448   1.937  52.241  1.00  0.00     0.252 C 
HETATM    6  N3  UNL     1      22.300   2.579  51.458  1.00  0.00    -0.200 NA
HETATM    7  C8  UNL     1      23.634   2.704  51.368  1.00  0.00     0.259 C 
HETATM    8  N4  UNL     1      24.628   1.931  51.891  1.00  0.00    -0.161 NA
HETATM    9  O1  UNL     1      20.276   2.740  52.195  1.00  0.00    -0.294 OA
HETATM   10  C9  UNL     1      18.929   2.335  51.745  1.00  0.00     0.157 A 
HETATM   11  C10 UNL     1      18.381   3.738  51.315  1.00  0.00     0.104 A 
HETATM   12  S1  UNL     1      17.836   2.405  51.316  1.00  0.00    -0.151 SA
HETATM   13  C11 UNL     1      17.390   1.241  51.327  1.00  0.00    -0.009 A 
HETATM   14  C12 UNL     1      17.007   0.175  51.346  1.00  0.00     0.078 A 
HETATM   15  C13 UNL     1      18.399   0.713  51.797  1.00  0.00     0.111 A 
HETATM   16  N5  UNL     1      19.479  -0.243  52.413  1.00  0.00    -0.384 N 
HETATM   17  C14 UNL     1      20.467   0.023  53.532  1.00  0.00     0.251 C 
HETATM   18  H8  UNL     1      19.374  -1.136  51.875  1.00  0.00     0.156 HD
ENDROOT
BRANCH   1  19
HETATM   19  C4  UNL     1      26.059   0.479  52.984  1.00  0.00     0.059 A 
HETATM   20  C3  UNL     1      26.433  -0.823  52.690  1.00  0.00     0.034 A 
HETATM   21  C2  UNL     1      27.717  -1.280  52.935  1.00  0.00     0.046 A 
HETATM   22  C1  UNL     1      28.659  -0.421  53.490  1.00  0.00     0.138 A 
HETATM   23  F1  UNL     1      29.938  -0.806  53.756  1.00  0.00    -0.204 F 
HETATM   24  C16 UNL     1      28.287   0.888  53.786  1.00  0.00     0.074 A 
HETATM   25  C15 UNL     1      26.992   1.348  53.538  1.00  0.00     0.058 A 
HETATM   26 CL1  UNL     1      29.465   1.956  54.477  1.00  0.00    -0.081 Cl
ENDBRANCH   1  19
TORSDOF 1
ENDMDL
MODEL 6
REMARK VINA RESULT:      -8.6      1.741      2.237
REMARK  1 active torsions:
REMARK  status: ('A' for Active; 'I' for Inactive)
REMARK    1  A    between atoms: C4_5  and  N1_6 
ROOT
HETATM    1  N1  UNL     1      26.134   1.326  52.529  1.00  0.00    -0.243 N 
HETATM    2  C5  UNL     1      26.448   2.260  51.583  1.00  0.00     0.136 C 
HETATM    3  C6  UNL     1      25.752   3.271  50.903  1.00  0.00     0.115 C 
HETATM    4  N2  UNL     1      24.443   3.489  50.829  1.00  0.00    -0.304 N 
HETATM    5  C7  UNL     1      23.335   3.007  51.347  1.00  0.00     0.252 C 
HETATM    6  N3  UNL     1      23.061   2.235  52.387  1.00  0.00    -0.200 NA
HETATM    7  C8  UNL     1      23.691   1.270  53.075  1.00  0.00     0.259 C 
HETATM    8  N4  UNL     1      25.016   0.950  53.131  1.00  0.00    -0.161 NA
HETATM    9  O1  UNL     1      22.058   3.284  50.786  1.00  0.00    -0.294 OA
HETATM   10  C9  UNL     1      21.434   4.608  50.590  1.00  0.00     0.157 A 
HETATM   11  C10 UNL     1      19.928   4.176  50.612  1.00  0.00     0.104 A 
HETATM   12  S1  UNL     1      20.609   5.435  50.457  1.00  0.00    -0.151 SA
HETATM   13  C11 UNL     1      21.223   6.512  50.327  1.00  0.00    -0.009 A 
HETATM   14  C12 UNL     1      21.803   7.478  50.211  1.00  0.00     0.078 A 
HETATM   15  C13 UNL     1      22.355   6.035  50.417  1.00  0.00     0.111 A 
HETATM   16  N5  UNL     1      23.898   5.751  50.444  1.00  0.00    -0.384 N 
HETATM   17  C14 UNL     1      24.662   4.562  49.894  1.00  0.00     0.251 C 
HETATM   18  H8  UNL     1      24.307   6.580  50.937  1.00  0.00     0.156 HD
ENDROOT
BRANCH   1  19
HETATM   19  C4  UNL     1      27.296   0.614  52.935  1.00  0.00     0.059 A 
HETATM   20  C3  UNL     1      28.368   1.316  53.465  1.00  0.00     0.034 A 
HETATM   21  C2  UNL     1      29.522   0.671  53.877  1.00  0.00     0.046 A 
HETATM   22  C1  UNL     1      29.618  -0.711  53.759  1.00  0.00     0.138 A 
HETATM   23  F1  UNL     1      30.725  -1.405  54.144  1.00  0.00    -0.204 F 
HETATM   24  C16 UNL     1      28.544  -1.420  53.227  1.00  0.00     0.074 A 
HETATM   25  C15 UNL     1      27.379  -0.769  52.813  1.00  0.00     0.058 A 
HETATM   26 CL1  UNL     1      28.668  -3.142  53.082  1.00  0.00    -0.081 Cl
ENDBRANCH   1  19
TORSDOF 1
ENDMDL
MODEL 7
REMARK VINA RESULT:      -8.4      4.238      5.705
REMARK  1 active torsions:
REMARK  status: ('A' for Active; 'I' for Inactive)
REMARK    1  A    between atoms: C4_5  and  N1_6 
ROOT
HETATM    1  N1  UNL     1      24.779   4.475  50.065  1.00  0.00    -0.243 N 
HETATM    2  C5  UNL     1      25.865   4.142  49.308  1.00  0.00     0.136 C 
HETATM    3  C6  UNL     1      27.020   4.806  48.865  1.00  0.00     0.115 C 
HETATM    4  N2  UNL     1      27.305   6.104  48.885  1.00  0.00    -0.304 N 
HETATM    5  C7  UNL     1      26.780   7.219  49.344  1.00  0.00     0.252 C 
HETATM    6  N3  UNL     1      25.832   7.501  50.223  1.00  0.00    -0.200 NA
HETATM    7  C8  UNL     1      24.724   6.900  50.685  1.00  0.00     0.259 C 
HETATM    8  N4  UNL     1      24.342   5.592  50.626  1.00  0.00    -0.161 NA
HETATM    9  O1  UNL     1      27.217   8.496  48.897  1.00  0.00    -0.294 OA
HETATM   10  C9  UNL     1      28.580   9.059  48.987  1.00  0.00     0.157 A 
HETATM   11  C10 UNL     1      28.218  10.583  48.983  1.00  0.00     0.104 A 
HETATM   12  S1  UNL     1      29.453   9.844  49.050  1.00  0.00    -0.151 SA
HETATM   13  C11 UNL     1      30.506   9.180  49.107  1.00  0.00    -0.009 A 
HETATM   14  C12 UNL     1      31.450   8.556  49.159  1.00  0.00     0.078 A 
HETATM   15  C13 UNL     1      29.972   8.072  49.059  1.00  0.00     0.111 A 
HETATM   16  N5  UNL     1      29.620   6.545  48.970  1.00  0.00    -0.384 N 
HETATM   17  C14 UNL     1      28.530   5.859  48.170  1.00  0.00     0.251 C 
HETATM   18  H8  UNL     1      30.319   6.080  49.598  1.00  0.00     0.156 HD
ENDROOT
BRANCH   1  19
HETATM   19  C4  UNL     1      23.951   3.339  50.280  1.00  0.00     0.059 A 
HETATM   20  C3  UNL     1      23.013   2.995  49.318  1.00  0.00     0.034 A 
HETATM   21  C2  UNL     1      22.182   1.898  49.476  1.00  0.00     0.046 A 
HETATM   22  C1  UNL     1      22.283   1.119  50.623  1.00  0.00     0.138 A 
HETATM   23  F1  UNL     1      21.497   0.028  50.841  1.00  0.00    -0.204 F 
HETATM   24  C16 UNL     1      23.224   1.460  51.591  1.00  0.00     0.074 A 
HETATM   25  C15 UNL     1      24.061   2.567  51.430  1.00  0.00     0.058 A 
HETATM   26 CL1  UNL     1      23.346   0.486  53.019  1.00  0.00    -0.081 Cl
ENDBRANCH   1  19
TORSDOF 1
ENDMDL
MODEL 8
REMARK VINA RESULT:      -8.1      3.541      4.223
REMARK  1 active torsions:
REMARK  status: ('A' for Active; 'I' for Inactive)
REMARK    1  A    between atoms: C4_5  and  N1_6 
ROOT
HETATM    1  N1  UNL     1      23.707   2.469  51.661  1.00  0.00    -0.243 N 
HETATM    2  C5  UNL     1      24.974   2.364  51.162  1.00  0.00     0.136 C 
HETATM    3  C6  UNL     1      25.804   3.162  50.359  1.00  0.00     0.115 C 
HETATM    4  N2  UNL     1      25.497   4.230  49.631  1.00  0.00    -0.304 N 
HETATM    5  C7  UNL     1      24.458   5.006  49.412  1.00  0.00     0.252 C 
HETATM    6  N3  UNL     1      23.306   5.204  50.033  1.00  0.00    -0.200 NA
HETATM    7  C8  UNL     1      22.485   4.483  50.814  1.00  0.00     0.259 C 
HETATM    8  N4  UNL     1      22.721   3.341  51.521  1.00  0.00    -0.161 NA
HETATM    9  O1  UNL     1      24.400   5.892  48.302  1.00  0.00    -0.294 OA
HETATM   10  C9  UNL     1      25.333   6.991  47.983  1.00  0.00     0.157 A 
HETATM   11  C10 UNL     1      24.369   7.897  47.145  1.00  0.00     0.104 A 
HETATM   12  S1  UNL     1      25.749   8.000  47.545  1.00  0.00    -0.151 SA
HETATM   13  C11 UNL     1      26.940   8.065  47.906  1.00  0.00    -0.009 A 
HETATM   14  C12 UNL     1      28.020   8.101  48.246  1.00  0.00     0.078 A 
HETATM   15  C13 UNL     1      26.954   6.997  48.519  1.00  0.00     0.111 A 
HETATM   16  N5  UNL     1      27.316   5.699  49.322  1.00  0.00    -0.384 N 
HETATM   17  C14 UNL     1      26.838   4.276  49.108  1.00  0.00     0.251 C 
HETATM   18  H8  UNL     1      27.981   6.028  50.063  1.00  0.00     0.156 HD
ENDROOT
BRANCH   1  19
HETATM   19  C4  UNL     1      23.416   1.376  52.523  1.00  0.00     0.059 A 
HETATM   20  C3  UNL     1      24.462   0.627  53.041  1.00  0.00     0.034 A 
HETATM   21  C2  UNL     1      24.234  -0.447  53.885  1.00  0.00     0.046 A 
HETATM   22  C1  UNL     1      22.931  -0.791  54.225  1.00  0.00     0.138 A 
HETATM   23  F1  UNL     1      22.638  -1.834  55.049  1.00  0.00    -0.204 F 
HETATM   24  C16 UNL     1      21.878  -0.041  53.707  1.00  0.00     0.074 A 
HETATM   25  C15 UNL     1      22.109   1.042  52.856  1.00  0.00     0.058 A 
HETATM   26 CL1  UNL     1      20.254  -0.473  54.134  1.00  0.00    -0.081 Cl
ENDBRANCH   1  19
TORSDOF 1
ENDMDL
MODEL 9
REMARK VINA RESULT:      -8.1      5.967      8.555
REMARK  1 active torsions:
REMARK  status: ('A' for Active; 'I' for Inactive)
REMARK    1  A    between atoms: C4_5  and  N1_6 
ROOT
HETATM    1  N1  UNL     1      28.655   8.069  48.742  1.00  0.00    -0.243 N 
HETATM    2  C5  UNL     1      27.625   8.684  49.395  1.00  0.00     0.136 C 
HETATM    3  C6  UNL     1      26.417   8.269  49.978  1.00  0.00     0.115 C 
HETATM    4  N2  UNL     1      25.787   7.105  49.870  1.00  0.00    -0.304 N 
HETATM    5  C7  UNL     1      25.991   5.921  49.334  1.00  0.00     0.252 C 
HETATM    6  N3  UNL     1      27.058   5.291  48.868  1.00  0.00    -0.200 NA
HETATM    7  C8  UNL     1      28.231   5.639  48.316  1.00  0.00     0.259 C 
HETATM    8  N4  UNL     1      28.888   6.834  48.328  1.00  0.00    -0.161 NA
HETATM    9  O1  UNL     1      24.936   4.988  49.142  1.00  0.00    -0.294 OA
HETATM   10  C9  UNL     1      24.055   4.408  50.175  1.00  0.00     0.157 A 
HETATM   11  C10 UNL     1      23.670   3.074  49.449  1.00  0.00     0.104 A 
HETATM   12  S1  UNL     1      23.333   3.658  50.722  1.00  0.00    -0.151 SA
HETATM   13  C11 UNL     1      23.059   4.185  51.818  1.00  0.00    -0.009 A 
HETATM   14  C12 UNL     1      22.825   4.683  52.808  1.00  0.00     0.078 A 
HETATM   15  C13 UNL     1      23.732   5.203  51.651  1.00  0.00     0.111 A 
HETATM   16  N5  UNL     1      24.433   6.604  51.735  1.00  0.00    -0.384 N 
HETATM   17  C14 UNL     1      24.680   7.618  50.634  1.00  0.00     0.251 C 
HETATM   18  H8  UNL     1      24.704   6.700  52.742  1.00  0.00     0.156 HD
ENDROOT
BRANCH   1  19
HETATM   19  C4  UNL     1      29.693   8.998  48.458  1.00  0.00     0.059 A 
HETATM   20  C3  UNL     1      30.755   8.602  47.658  1.00  0.00     0.034 A 
HETATM   21  C2  UNL     1      31.791   9.467  47.351  1.00  0.00     0.046 A 
HETATM   22  C1  UNL     1      31.777  10.764  47.851  1.00  0.00     0.138 A 
HETATM   23  F1  UNL     1      32.764  11.664  47.586  1.00  0.00    -0.204 F 
HETATM   24  C16 UNL     1      30.712  11.167  48.654  1.00  0.00     0.074 A 
HETATM   25  C15 UNL     1      29.667  10.293  48.964  1.00  0.00     0.058 A 
HETATM   26 CL1  UNL     1      30.698  12.785  49.275  1.00  0.00    -0.081 Cl
ENDBRANCH   1  19
TORSDOF 1
ENDMDL
