MODEL 1
REMARK VINA RESULT:      -7.7      0.000      0.000
REMARK  5 active torsions:
REMARK  status: ('A' for Active; 'I' for Inactive)
REMARK    1  A    between atoms: C1_2  and  C2_3 
REMARK       I    between atoms: C1_2  and  N1_11 
REMARK    2  A    between atoms: C2_3  and  C3_4 
REMARK    3  A    between atoms: N1_11  and  S1_12 
REMARK    4  A    between atoms: S1_12  and  S2_13 
REMARK    5  A    between atoms: S2_13  and  C9_15 
ROOT
HETATM    1  O1  UNL     1      22.965   0.793  51.703  1.00  0.00    -0.272 OA
HETATM    2  C1  UNL     1      23.599   1.022  52.787  1.00  0.00     0.232 C 
HETATM    3  N1  UNL     1      24.097   2.355  53.013  1.00  0.00    -0.289 N 
HETATM    4  H7  UNL     1      24.654   2.591  53.893  1.00  0.00     0.177 HD
ENDROOT
BRANCH   3   5
HETATM    5  S1  UNL     1      23.852   3.621  51.878  1.00  0.00     0.060 SA
BRANCH   5   6
HETATM    6  S2  UNL     1      24.467   3.411  49.954  1.00  0.00     0.134 S 
HETATM    7  O2  UNL     1      23.358   3.162  48.940  1.00  0.00    -0.239 OA
BRANCH   6   8
HETATM    8  C9  UNL     1      25.707   4.466  49.349  1.00  0.00     0.044 A 
HETATM    9  C10 UNL     1      27.052   4.200  49.140  1.00  0.00     0.023 A 
HETATM   10  C11 UNL     1      27.941   5.100  48.593  1.00  0.00     0.020 A 
HETATM   11  C12 UNL     1      27.481   6.345  48.227  1.00  0.00     0.011 A 
HETATM   12 BR2  UNL     1      28.732   7.562  47.464  1.00  0.00    -0.051 Br
HETATM   13  C13 UNL     1      26.125   6.637  48.430  1.00  0.00     0.020 A 
HETATM   14  C14 UNL     1      25.255   5.728  48.977  1.00  0.00     0.023 A 
ENDBRANCH   6   8
ENDBRANCH   5   6
ENDBRANCH   3   5
BRANCH   2  15
HETATM   15  C2  UNL     1      23.831  -0.070  53.827  1.00  0.00     0.142 C 
BRANCH  15  16
HETATM   16  C3  UNL     1      25.334  -0.216  53.940  1.00  0.00    -0.049 A 
HETATM   17  C4  UNL     1      25.944  -0.864  52.850  1.00  0.00     0.009 A 
HETATM   18  C5  UNL     1      27.301  -1.025  52.740  1.00  0.00     0.019 A 
HETATM   19  C6  UNL     1      28.134  -0.557  53.697  1.00  0.00     0.011 A 
HETATM   20 BR1  UNL     1      30.028  -0.744  53.569  1.00  0.00    -0.051 Br
HETATM   21  C7  UNL     1      27.537   0.087  54.786  1.00  0.00     0.019 A 
HETATM   22  C8  UNL     1      26.174   0.257  54.913  1.00  0.00     0.009 A 
ENDBRANCH  15  16
ENDBRANCH   2  15
TORSDOF 5
ENDMDL
MODEL 2
REMARK VINA RESULT:      -7.6      4.299      5.580
REMARK  5 active torsions:
REMARK  status: ('A' for Active; 'I' for Inactive)
REMARK    1  A    between atoms: C1_2  and  C2_3 
REMARK       I    between atoms: C1_2  and  N1_11 
REMARK    2  A    between atoms: C2_3  and  C3_4 
REMARK    3  A    between atoms: N1_11  and  S1_12 
REMARK    4  A    between atoms: S1_12  and  S2_13 
REMARK    5  A    between atoms: S2_13  and  C9_15 
ROOT
HETATM    1  O1  UNL     1      25.037  -0.915  53.359  1.00  0.00    -0.272 OA
HETATM    2  C1  UNL     1      24.971  -0.826  54.630  1.00  0.00     0.232 C 
HETATM    3  N1  UNL     1      26.110  -0.288  55.333  1.00  0.00    -0.289 N 
HETATM    4  H7  UNL     1      26.113  -0.216  56.398  1.00  0.00     0.177 HD
ENDROOT
BRANCH   3   5
HETATM    5  S1  UNL     1      27.523   0.232  54.507  1.00  0.00     0.060 SA
BRANCH   5   6
HETATM    6  S2  UNL     1      27.550   2.015  53.535  1.00  0.00     0.134 S 
HETATM    7  O2  UNL     1      28.925   2.489  53.082  1.00  0.00    -0.239 OA
BRANCH   6   8
HETATM    8  C9  UNL     1      26.304   2.357  52.374  1.00  0.00     0.044 A 
HETATM    9  C10 UNL     1      24.935   2.458  52.569  1.00  0.00     0.023 A 
HETATM   10  C11 UNL     1      24.038   2.798  51.579  1.00  0.00     0.020 A 
HETATM   11  C12 UNL     1      24.514   3.055  50.314  1.00  0.00     0.011 A 
HETATM   12 BR2  UNL     1      23.249   3.533  48.972  1.00  0.00    -0.051 Br
HETATM   13  C13 UNL     1      25.895   2.958  50.093  1.00  0.00     0.020 A 
HETATM   14  C14 UNL     1      26.773   2.618  51.090  1.00  0.00     0.023 A 
ENDBRANCH   6   8
ENDBRANCH   5   6
ENDBRANCH   3   5
BRANCH   2  15
HETATM   15  C2  UNL     1      23.733  -1.268  55.403  1.00  0.00     0.142 C 
BRANCH  15  16
HETATM   16  C3  UNL     1      22.551  -0.882  54.539  1.00  0.00    -0.049 A 
HETATM   17  C4  UNL     1      21.504  -1.823  54.525  1.00  0.00     0.009 A 
HETATM   18  C5  UNL     1      20.324  -1.617  53.858  1.00  0.00     0.019 A 
HETATM   19  C6  UNL     1      20.106  -0.473  53.169  1.00  0.00     0.011 A 
HETATM   20 BR1  UNL     1      18.470  -0.143  52.247  1.00  0.00    -0.051 Br
HETATM   21  C7  UNL     1      21.143   0.466  53.175  1.00  0.00     0.019 A 
HETATM   22  C8  UNL     1      22.337   0.276  53.839  1.00  0.00     0.009 A 
ENDBRANCH  15  16
ENDBRANCH   2  15
TORSDOF 5
ENDMDL
MODEL 3
REMARK VINA RESULT:      -7.4      3.322      7.832
REMARK  5 active torsions:
REMARK  status: ('A' for Active; 'I' for Inactive)
REMARK    1  A    between atoms: C1_2  and  C2_3 
REMARK       I    between atoms: C1_2  and  N1_11 
REMARK    2  A    between atoms: C2_3  and  C3_4 
REMARK    3  A    between atoms: N1_11  and  S1_12 
REMARK    4  A    between atoms: S1_12  and  S2_13 
REMARK    5  A    between atoms: S2_13  and  C9_15 
ROOT
HETATM    1  O1  UNL     1      24.970   3.395  52.102  1.00  0.00    -0.272 OA
HETATM    2  C1  UNL     1      25.449   2.825  51.065  1.00  0.00     0.232 C 
HETATM    3  N1  UNL     1      26.388   1.748  51.255  1.00  0.00    -0.289 N 
HETATM    4  H7  UNL     1      26.835   1.256  50.419  1.00  0.00     0.177 HD
ENDROOT
BRANCH   3   5
HETATM    5  S1  UNL     1      26.861   1.221  52.820  1.00  0.00     0.060 SA
BRANCH   5   6
HETATM    6  S2  UNL     1      25.770  -0.179  53.808  1.00  0.00     0.134 S 
HETATM    7  O2  UNL     1      26.197  -0.440  55.247  1.00  0.00    -0.239 OA
BRANCH   6   8
HETATM    8  C9  UNL     1      24.046  -0.197  53.603  1.00  0.00     0.044 A 
HETATM    9  C10 UNL     1      23.282   0.364  52.592  1.00  0.00     0.023 A 
HETATM   10  C11 UNL     1      21.913   0.233  52.495  1.00  0.00     0.020 A 
HETATM   11  C12 UNL     1      21.249  -0.496  53.455  1.00  0.00     0.011 A 
HETATM   12 BR2  UNL     1      19.359  -0.667  53.286  1.00  0.00    -0.051 Br
HETATM   13  C13 UNL     1      22.001  -1.072  54.488  1.00  0.00     0.020 A 
HETATM   14  C14 UNL     1      23.362  -0.931  54.568  1.00  0.00     0.023 A 
ENDBRANCH   6   8
ENDBRANCH   5   6
ENDBRANCH   3   5
BRANCH   2  15
HETATM   15  C2  UNL     1      25.050   3.255  49.657  1.00  0.00     0.142 C 
BRANCH  15  16
HETATM   16  C3  UNL     1      25.871   4.491  49.357  1.00  0.00    -0.049 A 
HETATM   17  C4  UNL     1      27.179   4.232  48.908  1.00  0.00     0.009 A 
HETATM   18  C5  UNL     1      28.046   5.220  48.520  1.00  0.00     0.019 A 
HETATM   19  C6  UNL     1      27.674   6.521  48.552  1.00  0.00     0.011 A 
HETATM   20 BR1  UNL     1      28.845   7.922  48.001  1.00  0.00    -0.051 Br
HETATM   21  C7  UNL     1      26.376   6.788  49.000  1.00  0.00     0.019 A 
HETATM   22  C8  UNL     1      25.491   5.807  49.395  1.00  0.00     0.009 A 
ENDBRANCH  15  16
ENDBRANCH   2  15
TORSDOF 5
ENDMDL
MODEL 4
REMARK VINA RESULT:      -7.2      1.683      7.065
REMARK  5 active torsions:
REMARK  status: ('A' for Active; 'I' for Inactive)
REMARK    1  A    between atoms: C1_2  and  C2_3 
REMARK       I    between atoms: C1_2  and  N1_11 
REMARK    2  A    between atoms: C2_3  and  C3_4 
REMARK    3  A    between atoms: N1_11  and  S1_12 
REMARK    4  A    between atoms: S1_12  and  S2_13 
REMARK    5  A    between atoms: S2_13  and  C9_15 
ROOT
HETATM    1  O1  UNL     1      24.386   6.541  51.237  1.00  0.00    -0.272 OA
HETATM    2  C1  UNL     1      24.236   5.681  50.305  1.00  0.00     0.232 C 
HETATM    3  N1  UNL     1      23.892   4.331  50.677  1.00  0.00    -0.289 N 
HETATM    4  H7  UNL     1      23.779   3.571  49.936  1.00  0.00     0.177 HD
ENDROOT
BRANCH   3   5
HETATM    5  S1  UNL     1      23.677   3.867  52.317  1.00  0.00     0.060 SA
BRANCH   5   6
HETATM    6  S2  UNL     1      23.725   1.908  52.848  1.00  0.00     0.134 S 
HETATM    7  O2  UNL     1      22.715   1.016  52.138  1.00  0.00    -0.239 OA
BRANCH   6   8
HETATM    8  C9  UNL     1      25.265   1.136  53.071  1.00  0.00     0.044 A 
HETATM    9  C10 UNL     1      25.638  -0.167  52.779  1.00  0.00     0.023 A 
HETATM   10  C11 UNL     1      26.915  -0.659  52.940  1.00  0.00     0.020 A 
HETATM   11  C12 UNL     1      27.892   0.183  53.422  1.00  0.00     0.011 A 
HETATM   12 BR2  UNL     1      29.649  -0.525  53.623  1.00  0.00    -0.051 Br
HETATM   13  C13 UNL     1      27.538   1.505  53.725  1.00  0.00     0.020 A 
HETATM   14  C14 UNL     1      26.262   1.976  53.558  1.00  0.00     0.023 A 
ENDBRANCH   6   8
ENDBRANCH   5   6
ENDBRANCH   3   5
BRANCH   2  15
HETATM   15  C2  UNL     1      24.409   6.051  48.836  1.00  0.00     0.142 C 
BRANCH  15  16
HETATM   16  C3  UNL     1      25.902   6.168  48.615  1.00  0.00    -0.049 A 
HETATM   17  C4  UNL     1      26.628   4.992  48.884  1.00  0.00     0.009 A 
HETATM   18  C5  UNL     1      27.978   4.884  48.674  1.00  0.00     0.019 A 
HETATM   19  C6  UNL     1      28.691   5.926  48.187  1.00  0.00     0.011 A 
HETATM   20 BR1  UNL     1      30.566   5.806  47.864  1.00  0.00    -0.051 Br
HETATM   21  C7  UNL     1      27.978   7.099  47.920  1.00  0.00     0.019 A 
HETATM   22  C8  UNL     1      26.620   7.227  48.126  1.00  0.00     0.009 A 
ENDBRANCH  15  16
ENDBRANCH   2  15
TORSDOF 5
ENDMDL
MODEL 5
REMARK VINA RESULT:      -7.1      3.254      3.972
REMARK  5 active torsions:
REMARK  status: ('A' for Active; 'I' for Inactive)
REMARK    1  A    between atoms: C1_2  and  C2_3 
REMARK       I    between atoms: C1_2  and  N1_11 
REMARK    2  A    between atoms: C2_3  and  C3_4 
REMARK    3  A    between atoms: N1_11  and  S1_12 
REMARK    4  A    between atoms: S1_12  and  S2_13 
REMARK    5  A    between atoms: S2_13  and  C9_15 
ROOT
HETATM    1  O1  UNL     1      20.906   0.596  54.289  1.00  0.00    -0.272 OA
HETATM    2  C1  UNL     1      21.459  -0.170  53.432  1.00  0.00     0.232 C 
HETATM    3  N1  UNL     1      20.914  -0.202  52.097  1.00  0.00    -0.289 N 
HETATM    4  H7  UNL     1      21.326  -0.844  51.352  1.00  0.00     0.177 HD
ENDROOT
BRANCH   3   5
HETATM    5  S1  UNL     1      19.564   0.760  51.645  1.00  0.00     0.060 SA
BRANCH   5   6
HETATM    6  S2  UNL     1      19.807   2.722  51.183  1.00  0.00     0.134 S 
HETATM    7  O2  UNL     1      18.985   3.695  52.019  1.00  0.00    -0.239 OA
BRANCH   6   8
HETATM    8  C9  UNL     1      21.404   3.313  50.840  1.00  0.00     0.044 A 
HETATM    9  C10 UNL     1      22.110   4.330  51.463  1.00  0.00     0.023 A 
HETATM   10  C11 UNL     1      23.406   4.676  51.147  1.00  0.00     0.020 A 
HETATM   11  C12 UNL     1      24.053   3.978  50.152  1.00  0.00     0.011 A 
HETATM   12 BR2  UNL     1      25.847   4.474  49.747  1.00  0.00    -0.051 Br
HETATM   13  C13 UNL     1      23.358   2.946  49.507  1.00  0.00     0.020 A 
HETATM   14  C14 UNL     1      22.069   2.616  49.835  1.00  0.00     0.023 A 
ENDBRANCH   6   8
ENDBRANCH   5   6
ENDBRANCH   3   5
BRANCH   2  15
HETATM   15  C2  UNL     1      22.665  -1.034  53.787  1.00  0.00     0.142 C 
BRANCH  15  16
HETATM   16  C3  UNL     1      23.871  -0.129  53.658  1.00  0.00    -0.049 A 
HETATM   17  C4  UNL     1      25.030  -0.601  54.303  1.00  0.00     0.009 A 
HETATM   18  C5  UNL     1      26.238   0.044  54.238  1.00  0.00     0.019 A 
HETATM   19  C6  UNL     1      26.373   1.191  53.533  1.00  0.00     0.011 A 
HETATM   20 BR1  UNL     1      28.041   2.107  53.402  1.00  0.00    -0.051 Br
HETATM   21  C7  UNL     1      25.226   1.670  52.891  1.00  0.00     0.019 A 
HETATM   22  C8  UNL     1      24.004   1.034  52.947  1.00  0.00     0.009 A 
ENDBRANCH  15  16
ENDBRANCH   2  15
TORSDOF 5
ENDMDL
MODEL 6
REMARK VINA RESULT:      -7.1      1.871      2.405
REMARK  5 active torsions:
REMARK  status: ('A' for Active; 'I' for Inactive)
REMARK    1  A    between atoms: C1_2  and  C2_3 
REMARK       I    between atoms: C1_2  and  N1_11 
REMARK    2  A    between atoms: C2_3  and  C3_4 
REMARK    3  A    between atoms: N1_11  and  S1_12 
REMARK    4  A    between atoms: S1_12  and  S2_13 
REMARK    5  A    between atoms: S2_13  and  C9_15 
ROOT
HETATM    1  O1  UNL     1      23.516   1.785  50.739  1.00  0.00    -0.272 OA
HETATM    2  C1  UNL     1      24.214   2.349  51.647  1.00  0.00     0.232 C 
HETATM    3  N1  UNL     1      25.026   3.481  51.273  1.00  0.00    -0.289 N 
HETATM    4  H7  UNL     1      25.646   3.971  51.989  1.00  0.00     0.177 HD
ENDROOT
BRANCH   3   5
HETATM    5  S1  UNL     1      25.063   4.079  49.663  1.00  0.00     0.060 SA
BRANCH   5   6
HETATM    6  S2  UNL     1      25.586   6.006  49.292  1.00  0.00     0.134 S 
HETATM    7  O2  UNL     1      25.288   6.989  50.416  1.00  0.00    -0.239 OA
BRANCH   6   8
HETATM    8  C9  UNL     1      27.097   6.328  48.499  1.00  0.00     0.044 A 
HETATM    9  C10 UNL     1      27.501   7.468  47.822  1.00  0.00     0.023 A 
HETATM   10  C11 UNL     1      28.757   7.640  47.280  1.00  0.00     0.020 A 
HETATM   11  C12 UNL     1      29.678   6.626  47.409  1.00  0.00     0.011 A 
HETATM   12 BR2  UNL     1      31.407   6.899  46.658  1.00  0.00    -0.051 Br
HETATM   13  C13 UNL     1      29.291   5.462  48.089  1.00  0.00     0.020 A 
HETATM   14  C14 UNL     1      28.038   5.309  48.621  1.00  0.00     0.023 A 
ENDBRANCH   6   8
ENDBRANCH   5   6
ENDBRANCH   3   5
BRANCH   2  15
HETATM   15  C2  UNL     1      24.204   1.857  53.090  1.00  0.00     0.142 C 
BRANCH  15  16
HETATM   16  C3  UNL     1      25.563   1.231  53.320  1.00  0.00    -0.049 A 
HETATM   17  C4  UNL     1      25.682  -0.095  52.861  1.00  0.00     0.009 A 
HETATM   18  C5  UNL     1      26.855  -0.803  52.917  1.00  0.00     0.019 A 
HETATM   19  C6  UNL     1      27.978  -0.245  53.427  1.00  0.00     0.011 A 
HETATM   20 BR1  UNL     1      29.632  -1.190  53.503  1.00  0.00    -0.051 Br
HETATM   21  C7  UNL     1      27.868   1.071  53.888  1.00  0.00     0.019 A 
HETATM   22  C8  UNL     1      26.696   1.797  53.841  1.00  0.00     0.009 A 
ENDBRANCH  15  16
ENDBRANCH   2  15
TORSDOF 5
ENDMDL
MODEL 7
REMARK VINA RESULT:      -7.1      4.490      7.784
REMARK  5 active torsions:
REMARK  status: ('A' for Active; 'I' for Inactive)
REMARK    1  A    between atoms: C1_2  and  C2_3 
REMARK       I    between atoms: C1_2  and  N1_11 
REMARK    2  A    between atoms: C2_3  and  C3_4 
REMARK    3  A    between atoms: N1_11  and  S1_12 
REMARK    4  A    between atoms: S1_12  and  S2_13 
REMARK    5  A    between atoms: S2_13  and  C9_15 
ROOT
HETATM    1  O1  UNL     1      26.783   2.471  50.508  1.00  0.00    -0.272 OA
HETATM    2  C1  UNL     1      25.838   3.122  51.066  1.00  0.00     0.232 C 
HETATM    3  N1  UNL     1      25.545   2.843  52.450  1.00  0.00    -0.289 N 
HETATM    4  H7  UNL     1      24.749   3.344  52.954  1.00  0.00     0.177 HD
ENDROOT
BRANCH   3   5
HETATM    5  S1  UNL     1      26.433   1.679  53.349  1.00  0.00     0.060 SA
BRANCH   5   6
HETATM    6  S2  UNL     1      25.565  -0.068  53.912  1.00  0.00     0.134 S 
HETATM    7  O2  UNL     1      26.064  -0.647  55.230  1.00  0.00    -0.239 OA
BRANCH   6   8
HETATM    8  C9  UNL     1      23.853  -0.263  53.695  1.00  0.00     0.044 A 
HETATM    9  C10 UNL     1      22.940  -0.914  54.510  1.00  0.00     0.023 A 
HETATM   10  C11 UNL     1      21.583  -0.954  54.270  1.00  0.00     0.020 A 
HETATM   11  C12 UNL     1      21.089  -0.313  53.157  1.00  0.00     0.011 A 
HETATM   12 BR2  UNL     1      19.208  -0.377  52.861  1.00  0.00    -0.051 Br
HETATM   13  C13 UNL     1      21.994   0.352  52.319  1.00  0.00     0.020 A 
HETATM   14  C14 UNL     1      23.341   0.381  52.573  1.00  0.00     0.023 A 
ENDBRANCH   6   8
ENDBRANCH   5   6
ENDBRANCH   3   5
BRANCH   2  15
HETATM   15  C2  UNL     1      25.030   4.170  50.308  1.00  0.00     0.142 C 
BRANCH  15  16
HETATM   16  C3  UNL     1      23.682   3.536  50.042  1.00  0.00    -0.049 A 
HETATM   17  C4  UNL     1      22.635   4.023  50.848  1.00  0.00     0.009 A 
HETATM   18  C5  UNL     1      21.332   3.621  50.704  1.00  0.00     0.019 A 
HETATM   19  C6  UNL     1      20.985   2.717  49.759  1.00  0.00     0.011 A 
HETATM   20 BR1  UNL     1      19.181   2.149  49.516  1.00  0.00    -0.051 Br
HETATM   21  C7  UNL     1      22.019   2.225  48.955  1.00  0.00     0.019 A 
HETATM   22  C8  UNL     1      23.335   2.617  49.086  1.00  0.00     0.009 A 
ENDBRANCH  15  16
ENDBRANCH   2  15
TORSDOF 5
ENDMDL
MODEL 8
REMARK VINA RESULT:      -7.1      3.408      6.612
REMARK  5 active torsions:
REMARK  status: ('A' for Active; 'I' for Inactive)
REMARK    1  A    between atoms: C1_2  and  C2_3 
REMARK       I    between atoms: C1_2  and  N1_11 
REMARK    2  A    between atoms: C2_3  and  C3_4 
REMARK    3  A    between atoms: N1_11  and  S1_12 
REMARK    4  A    between atoms: S1_12  and  S2_13 
REMARK    5  A    between atoms: S2_13  and  C9_15 
ROOT
HETATM    1  O1  UNL     1      20.094   2.860  53.027  1.00  0.00    -0.272 OA
HETATM    2  C1  UNL     1      20.166   2.530  51.796  1.00  0.00     0.232 C 
HETATM    3  N1  UNL     1      20.056   1.132  51.460  1.00  0.00    -0.289 N 
HETATM    4  H7  UNL     1      20.134   0.804  50.448  1.00  0.00     0.177 HD
ENDROOT
BRANCH   3   5
HETATM    5  S1  UNL     1      19.826  -0.074  52.661  1.00  0.00     0.060 SA
BRANCH   5   6
HETATM    6  S2  UNL     1      21.240  -0.396  54.083  1.00  0.00     0.134 S 
HETATM    7  O2  UNL     1      21.064  -1.669  54.900  1.00  0.00    -0.239 OA
BRANCH   6   8
HETATM    8  C9  UNL     1      22.902  -0.063  53.704  1.00  0.00     0.044 A 
HETATM    9  C10 UNL     1      24.044  -0.710  54.149  1.00  0.00     0.023 A 
HETATM   10  C11 UNL     1      25.320  -0.399  53.732  1.00  0.00     0.020 A 
HETATM   11  C12 UNL     1      25.487   0.617  52.817  1.00  0.00     0.011 A 
HETATM   12 BR2  UNL     1      27.263   1.015  52.253  1.00  0.00    -0.051 Br
HETATM   13  C13 UNL     1      24.346   1.286  52.354  1.00  0.00     0.020 A 
HETATM   14  C14 UNL     1      23.085   0.963  52.781  1.00  0.00     0.023 A 
ENDBRANCH   6   8
ENDBRANCH   5   6
ENDBRANCH   3   5
BRANCH   2  15
HETATM   15  C2  UNL     1      20.362   3.569  50.697  1.00  0.00     0.142 C 
BRANCH  15  16
HETATM   16  C3  UNL     1      21.858   3.756  50.569  1.00  0.00    -0.049 A 
HETATM   17  C4  UNL     1      22.445   3.069  49.489  1.00  0.00     0.009 A 
HETATM   18  C5  UNL     1      23.774   3.173  49.171  1.00  0.00     0.019 A 
HETATM   19  C6  UNL     1      24.602   3.959  49.896  1.00  0.00     0.011 A 
HETATM   20 BR1  UNL     1      26.452   4.144  49.473  1.00  0.00    -0.051 Br
HETATM   21  C7  UNL     1      24.029   4.643  50.974  1.00  0.00     0.019 A 
HETATM   22  C8  UNL     1      22.694   4.549  51.310  1.00  0.00     0.009 A 
ENDBRANCH  15  16
ENDBRANCH   2  15
TORSDOF 5
ENDMDL
MODEL 9
REMARK VINA RESULT:      -7.0      3.664      5.131
REMARK  5 active torsions:
REMARK  status: ('A' for Active; 'I' for Inactive)
REMARK    1  A    between atoms: C1_2  and  C2_3 
REMARK       I    between atoms: C1_2  and  N1_11 
REMARK    2  A    between atoms: C2_3  and  C3_4 
REMARK    3  A    between atoms: N1_11  and  S1_12 
REMARK    4  A    between atoms: S1_12  and  S2_13 
REMARK    5  A    between atoms: S2_13  and  C9_15 
ROOT
HETATM    1  O1  UNL     1      20.989   2.301  49.735  1.00  0.00    -0.272 OA
HETATM    2  C1  UNL     1      20.522   2.152  50.913  1.00  0.00     0.232 C 
HETATM    3  N1  UNL     1      20.655   3.249  51.840  1.00  0.00    -0.289 N 
HETATM    4  H7  UNL     1      20.302   3.164  52.843  1.00  0.00     0.177 HD
ENDROOT
BRANCH   3   5
HETATM    5  S1  UNL     1      21.407   4.728  51.395  1.00  0.00     0.060 SA
BRANCH   5   6
HETATM    6  S2  UNL     1      23.428   4.847  51.233  1.00  0.00     0.134 S 
HETATM    7  O2  UNL     1      24.040   6.168  51.679  1.00  0.00    -0.239 OA
BRANCH   6   8
HETATM    8  C9  UNL     1      24.389   3.473  51.685  1.00  0.00     0.044 A 
HETATM    9  C10 UNL     1      25.271   2.733  50.912  1.00  0.00     0.023 A 
HETATM   10  C11 UNL     1      26.034   1.692  51.394  1.00  0.00     0.020 A 
HETATM   11  C12 UNL     1      25.924   1.352  52.724  1.00  0.00     0.011 A 
HETATM   12 BR2  UNL     1      27.001  -0.084  53.362  1.00  0.00    -0.051 Br
HETATM   13  C13 UNL     1      25.038   2.086  53.525  1.00  0.00     0.020 A 
HETATM   14  C14 UNL     1      24.286   3.118  53.027  1.00  0.00     0.023 A 
ENDBRANCH   6   8
ENDBRANCH   5   6
ENDBRANCH   3   5
BRANCH   2  15
HETATM   15  C2  UNL     1      19.839   0.860  51.348  1.00  0.00     0.142 C 
BRANCH  15  16
HETATM   16  C3  UNL     1      20.679   0.312  52.482  1.00  0.00    -0.049 A 
HETATM   17  C4  UNL     1      21.950  -0.154  52.096  1.00  0.00     0.009 A 
HETATM   18  C5  UNL     1      22.878  -0.620  52.992  1.00  0.00     0.019 A 
HETATM   19  C6  UNL     1      22.609  -0.652  54.317  1.00  0.00     0.011 A 
HETATM   20 BR1  UNL     1      23.881  -1.274  55.594  1.00  0.00    -0.051 Br
HETATM   21  C7  UNL     1      21.346  -0.193  54.709  1.00  0.00     0.019 A 
HETATM   22  C8  UNL     1      20.400   0.277  53.823  1.00  0.00     0.009 A 
ENDBRANCH  15  16
ENDBRANCH   2  15
TORSDOF 5
ENDMDL
