MODEL 1
REMARK VINA RESULT:      -9.4      0.000      0.000
REMARK  0 active torsions:
REMARK  status: ('A' for Active; 'I' for Inactive)
ROOT
HETATM    1  C1  UNL     1      26.418   2.857  50.289  1.00  0.00    -0.082 C 
HETATM    2  C2  UNL     1      26.731   2.092  51.063  1.00  0.00     0.030 C 
HETATM    3  N1  UNL     1      27.090   1.152  52.020  1.00  0.00    -0.228 NA
HETATM    4  C3  UNL     1      26.125   0.589  52.714  1.00  0.00     0.172 C 
HETATM    5  C4  UNL     1      25.466  -0.239  53.664  1.00  0.00     0.030 C 
HETATM    6  C5  UNL     1      24.104  -0.011  53.518  1.00  0.00     0.032 C 
HETATM    7  C6  UNL     1      23.641   0.928  52.494  1.00  0.00     0.066 C 
HETATM    8  C7  UNL     1      23.313   2.244  53.080  1.00  0.00     0.035 C 
HETATM    9  C8  UNL     1      23.674   3.506  52.753  1.00  0.00     0.665 C 
HETATM   10  N2  UNL     1      24.542   3.722  51.630  1.00  0.00     0.027 NA
HETATM   11  C9  UNL     1      24.536   4.898  51.060  1.00  0.00     0.239 C 
HETATM   12  C10 UNL     1      25.453   5.071  49.894  1.00  0.00     0.032 C 
HETATM   13  C11 UNL     1      26.005   3.799  49.332  1.00  0.00     0.102 C 
HETATM   14  C12 UNL     1      24.593   5.742  48.776  1.00  0.00     0.037 C 
HETATM   15  C13 UNL     1      23.334   4.927  48.591  1.00  0.00     0.270 C 
HETATM   16  N3  UNL     1      22.422   5.013  49.718  1.00  0.00     0.083 N 
HETATM   17  C14 UNL     1      21.475   3.932  49.619  1.00  0.00     0.271 C 
HETATM   18  C15 UNL     1      20.287   4.193  50.516  1.00  0.00     0.056 C 
HETATM   19  C16 UNL     1      19.332   3.031  50.598  1.00  0.00     0.169 C 
HETATM   20  O1  UNL     1      19.786   2.018  51.454  1.00  0.00    -0.387 OA
HETATM   21  C17 UNL     1      18.923   0.941  51.308  1.00  0.00     0.194 C 
HETATM   22  C18 UNL     1      19.084  -0.142  52.282  1.00  0.00    -0.005 C 
HETATM   23  C19 UNL     1      19.697  -0.653  53.355  1.00  0.00    -0.024 C 
HETATM   24  C20 UNL     1      20.793  -0.122  54.235  1.00  0.00     0.073 C 
HETATM   25  C21 UNL     1      21.964  -0.997  54.195  1.00  0.00     0.093 C 
HETATM   26  N4  UNL     1      22.774  -0.172  53.832  1.00  0.00    -0.270 NA
HETATM   27  H15 UNL     1      21.910   5.915  49.661  1.00  0.00     0.315 HD
ENDROOT
TORSDOF 0
ENDMDL
MODEL 2
REMARK VINA RESULT:      -8.4      1.855      4.621
REMARK  0 active torsions:
REMARK  status: ('A' for Active; 'I' for Inactive)
ROOT
HETATM    1  C1  UNL     1      24.575  -0.233  53.388  1.00  0.00    -0.082 C 
HETATM    2  C2  UNL     1      23.565  -0.641  53.698  1.00  0.00     0.030 C 
HETATM    3  N1  UNL     1      22.315  -1.122  54.063  1.00  0.00    -0.228 NA
HETATM    4  C3  UNL     1      21.265  -0.621  53.449  1.00  0.00     0.172 C 
HETATM    5  C4  UNL     1      19.910  -0.390  53.086  1.00  0.00     0.030 C 
HETATM    6  C5  UNL     1      19.922   0.563  52.075  1.00  0.00     0.032 C 
HETATM    7  C6  UNL     1      21.205   1.083  51.597  1.00  0.00     0.066 C 
HETATM    8  C7  UNL     1      21.505   2.402  52.190  1.00  0.00     0.035 C 
HETATM    9  C8  UNL     1      22.595   2.894  52.822  1.00  0.00     0.665 C 
HETATM   10  N2  UNL     1      23.744   2.052  53.003  1.00  0.00     0.027 NA
HETATM   11  C9  UNL     1      24.904   2.622  53.198  1.00  0.00     0.239 C 
HETATM   12  C10 UNL     1      26.069   1.704  53.376  1.00  0.00     0.032 C 
HETATM   13  C11 UNL     1      25.817   0.283  52.984  1.00  0.00     0.102 C 
HETATM   14  C12 UNL     1      27.190   2.257  52.439  1.00  0.00     0.037 C 
HETATM   15  C13 UNL     1      26.610   2.430  51.055  1.00  0.00     0.270 C 
HETATM   16  N3  UNL     1      25.636   3.503  50.968  1.00  0.00     0.083 N 
HETATM   17  C14 UNL     1      24.881   3.334  49.753  1.00  0.00     0.271 C 
HETATM   18  C15 UNL     1      24.142   4.608  49.413  1.00  0.00     0.056 C 
HETATM   19  C16 UNL     1      23.197   4.461  48.250  1.00  0.00     0.169 C 
HETATM   20  O1  UNL     1      21.996   3.831  48.606  1.00  0.00    -0.387 OA
HETATM   21  C17 UNL     1      21.295   3.593  47.432  1.00  0.00     0.194 C 
HETATM   22  C18 UNL     1      19.909   3.147  47.596  1.00  0.00    -0.005 C 
HETATM   23  C19 UNL     1      18.877   2.839  48.390  1.00  0.00    -0.024 C 
HETATM   24  C20 UNL     1      18.720   2.852  49.883  1.00  0.00     0.073 C 
HETATM   25  C21 UNL     1      18.419   1.512  50.387  1.00  0.00     0.093 C 
HETATM   26  N4  UNL     1      19.348   1.414  51.160  1.00  0.00    -0.270 NA
HETATM   27  H15 UNL     1      26.143   4.407  50.926  1.00  0.00     0.315 HD
ENDROOT
TORSDOF 0
ENDMDL
MODEL 3
REMARK VINA RESULT:      -8.4      2.263      6.038
REMARK  0 active torsions:
REMARK  status: ('A' for Active; 'I' for Inactive)
ROOT
HETATM    1  C1  UNL     1      24.130   1.163  52.375  1.00  0.00    -0.082 C 
HETATM    2  C2  UNL     1      25.134   1.433  51.925  1.00  0.00     0.030 C 
HETATM    3  N1  UNL     1      26.353   1.781  51.358  1.00  0.00    -0.228 NA
HETATM    4  C3  UNL     1      26.379   2.826  50.561  1.00  0.00     0.172 C 
HETATM    5  C4  UNL     1      26.873   3.824  49.677  1.00  0.00     0.030 C 
HETATM    6  C5  UNL     1      25.799   4.648  49.361  1.00  0.00     0.032 C 
HETATM    7  C6  UNL     1      24.490   4.378  49.960  1.00  0.00     0.066 C 
HETATM    8  C7  UNL     1      23.605   3.664  49.017  1.00  0.00     0.035 C 
HETATM    9  C8  UNL     1      22.856   2.543  49.135  1.00  0.00     0.665 C 
HETATM   10  N2  UNL     1      22.848   1.831  50.382  1.00  0.00     0.027 NA
HETATM   11  C9  UNL     1      21.835   1.046  50.639  1.00  0.00     0.239 C 
HETATM   12  C10 UNL     1      21.870   0.331  51.950  1.00  0.00     0.032 C 
HETATM   13  C11 UNL     1      22.876   0.852  52.925  1.00  0.00     0.102 C 
HETATM   14  C12 UNL     1      20.456   0.536  52.581  1.00  0.00     0.037 C 
HETATM   15  C13 UNL     1      20.141   2.014  52.571  1.00  0.00     0.270 C 
HETATM   16  N3  UNL     1      19.919   2.547  51.239  1.00  0.00     0.083 N 
HETATM   17  C14 UNL     1      20.015   3.983  51.302  1.00  0.00     0.271 C 
HETATM   18  C15 UNL     1      19.415   4.604  50.062  1.00  0.00     0.056 C 
HETATM   19  C16 UNL     1      19.627   6.092  49.973  1.00  0.00     0.169 C 
HETATM   20  O1  UNL     1      20.919   6.428  49.545  1.00  0.00    -0.387 OA
HETATM   21  C17 UNL     1      21.048   7.804  49.676  1.00  0.00     0.194 C 
HETATM   22  C18 UNL     1      22.245   8.393  49.069  1.00  0.00    -0.005 C 
HETATM   23  C19 UNL     1      23.377   8.254  48.369  1.00  0.00    -0.024 C 
HETATM   24  C20 UNL     1      24.036   7.054  47.751  1.00  0.00     0.073 C 
HETATM   25  C21 UNL     1      25.360   6.829  48.333  1.00  0.00     0.093 C 
HETATM   26  N4  UNL     1      25.180   5.693  48.717  1.00  0.00    -0.270 NA
HETATM   27  H15 UNL     1      18.961   2.287  50.934  1.00  0.00     0.315 HD
ENDROOT
TORSDOF 0
ENDMDL
MODEL 4
REMARK VINA RESULT:      -8.2      2.087      5.161
REMARK  0 active torsions:
REMARK  status: ('A' for Active; 'I' for Inactive)
ROOT
HETATM    1  C1  UNL     1      20.206   4.786  50.628  1.00  0.00    -0.082 C 
HETATM    2  C2  UNL     1      19.679   3.993  51.241  1.00  0.00     0.030 C 
HETATM    3  N1  UNL     1      19.055   3.007  51.993  1.00  0.00    -0.228 NA
HETATM    4  C3  UNL     1      19.808   2.052  52.492  1.00  0.00     0.172 C 
HETATM    5  C4  UNL     1      20.189   0.876  53.193  1.00  0.00     0.030 C 
HETATM    6  C5  UNL     1      21.568   0.764  53.071  1.00  0.00     0.032 C 
HETATM    7  C6  UNL     1      22.307   1.792  52.335  1.00  0.00     0.066 C 
HETATM    8  C7  UNL     1      22.628   1.347  50.964  1.00  0.00     0.035 C 
HETATM    9  C8  UNL     1      22.452   1.922  49.751  1.00  0.00     0.665 C 
HETATM   10  N2  UNL     1      21.847   3.221  49.669  1.00  0.00     0.027 NA
HETATM   11  C9  UNL     1      22.071   3.941  48.601  1.00  0.00     0.239 C 
HETATM   12  C10 UNL     1      21.423   5.286  48.565  1.00  0.00     0.032 C 
HETATM   13  C11 UNL     1      20.882   5.761  49.876  1.00  0.00     0.102 C 
HETATM   14  C12 UNL     1      22.544   6.284  48.132  1.00  0.00     0.037 C 
HETATM   15  C13 UNL     1      23.737   6.080  49.036  1.00  0.00     0.270 C 
HETATM   16  N3  UNL     1      24.412   4.812  48.823  1.00  0.00     0.083 N 
HETATM   17  C14 UNL     1      25.259   4.552  49.959  1.00  0.00     0.271 C 
HETATM   18  C15 UNL     1      26.264   3.473  49.626  1.00  0.00     0.056 C 
HETATM   19  C16 UNL     1      27.076   3.025  50.812  1.00  0.00     0.169 C 
HETATM   20  O1  UNL     1      26.373   2.145  51.648  1.00  0.00    -0.387 OA
HETATM   21  C17 UNL     1      27.148   1.950  52.782  1.00  0.00     0.194 C 
HETATM   22  C18 UNL     1      26.701   0.886  53.685  1.00  0.00    -0.005 C 
HETATM   23  C19 UNL     1      25.844  -0.098  53.981  1.00  0.00    -0.024 C 
HETATM   24  C20 UNL     1      24.648  -0.642  53.254  1.00  0.00     0.073 C 
HETATM   25  C21 UNL     1      23.434  -0.484  54.056  1.00  0.00     0.093 C 
HETATM   26  N4  UNL     1      22.789   0.157  53.254  1.00  0.00    -0.270 NA
HETATM   27  H15 UNL     1      25.002   4.890  47.973  1.00  0.00     0.315 HD
ENDROOT
TORSDOF 0
ENDMDL
MODEL 5
REMARK VINA RESULT:      -8.1      2.033      7.309
REMARK  0 active torsions:
REMARK  status: ('A' for Active; 'I' for Inactive)
ROOT
HETATM    1  C1  UNL     1      19.124   1.054  50.612  1.00  0.00    -0.082 C 
HETATM    2  C2  UNL     1      18.853   1.893  49.901  1.00  0.00     0.030 C 
HETATM    3  N1  UNL     1      18.543   2.933  49.035  1.00  0.00    -0.228 NA
HETATM    4  C3  UNL     1      19.489   3.807  48.768  1.00  0.00     0.172 C 
HETATM    5  C4  UNL     1      20.150   4.936  48.214  1.00  0.00     0.030 C 
HETATM    6  C5  UNL     1      21.455   4.912  48.691  1.00  0.00     0.032 C 
HETATM    7  C6  UNL     1      21.875   3.818  49.569  1.00  0.00     0.066 C 
HETATM    8  C7  UNL     1      21.871   4.235  50.986  1.00  0.00     0.035 C 
HETATM    9  C8  UNL     1      21.333   3.686  52.100  1.00  0.00     0.665 C 
HETATM   10  N2  UNL     1      20.604   2.454  51.995  1.00  0.00     0.027 NA
HETATM   11  C9  UNL     1      20.474   1.720  53.069  1.00  0.00     0.239 C 
HETATM   12  C10 UNL     1      19.711   0.445  52.908  1.00  0.00     0.032 C 
HETATM   13  C11 UNL     1      19.485   0.021  51.492  1.00  0.00     0.102 C 
HETATM   14  C12 UNL     1      20.580  -0.657  53.594  1.00  0.00     0.037 C 
HETATM   15  C13 UNL     1      21.980  -0.576  53.033  1.00  0.00     0.270 C 
HETATM   16  N3  UNL     1      22.696   0.620  53.440  1.00  0.00     0.083 N 
HETATM   17  C14 UNL     1      23.830   0.790  52.567  1.00  0.00     0.271 C 
HETATM   18  C15 UNL     1      24.814   1.766  53.170  1.00  0.00     0.056 C 
HETATM   19  C16 UNL     1      25.945   2.126  52.244  1.00  0.00     0.169 C 
HETATM   20  O1  UNL     1      25.570   3.067  51.274  1.00  0.00    -0.387 OA
HETATM   21  C17 UNL     1      26.628   3.180  50.383  1.00  0.00     0.194 C 
HETATM   22  C18 UNL     1      26.535   4.279  49.419  1.00  0.00    -0.005 C 
HETATM   23  C19 UNL     1      25.883   5.341  48.933  1.00  0.00    -0.024 C 
HETATM   24  C20 UNL     1      24.598   6.004  49.338  1.00  0.00     0.073 C 
HETATM   25  C21 UNL     1      23.624   5.964  48.247  1.00  0.00     0.093 C 
HETATM   26  N4  UNL     1      22.734   5.394  48.841  1.00  0.00    -0.270 NA
HETATM   27  H15 UNL     1      23.036   0.488  54.411  1.00  0.00     0.315 HD
ENDROOT
TORSDOF 0
ENDMDL
MODEL 6
REMARK VINA RESULT:      -8.1      2.225      6.177
REMARK  0 active torsions:
REMARK  status: ('A' for Active; 'I' for Inactive)
ROOT
HETATM    1  C1  UNL     1      22.853   0.871  52.536  1.00  0.00    -0.082 C 
HETATM    2  C2  UNL     1      21.735   1.023  52.642  1.00  0.00     0.030 C 
HETATM    3  N1  UNL     1      20.368   1.233  52.760  1.00  0.00    -0.228 NA
HETATM    4  C3  UNL     1      19.859   2.289  52.164  1.00  0.00     0.172 C 
HETATM    5  C4  UNL     1      18.908   3.248  51.721  1.00  0.00     0.030 C 
HETATM    6  C5  UNL     1      19.600   4.173  50.949  1.00  0.00     0.032 C 
HETATM    7  C6  UNL     1      21.037   3.993  50.734  1.00  0.00     0.066 C 
HETATM    8  C7  UNL     1      21.828   4.862  51.629  1.00  0.00     0.035 C 
HETATM    9  C8  UNL     1      22.863   4.614  52.464  1.00  0.00     0.665 C 
HETATM   10  N2  UNL     1      23.373   3.277  52.576  1.00  0.00     0.027 NA
HETATM   11  C9  UNL     1      24.595   3.115  53.011  1.00  0.00     0.239 C 
HETATM   12  C10 UNL     1      25.081   1.706  53.105  1.00  0.00     0.032 C 
HETATM   13  C11 UNL     1      24.238   0.700  52.387  1.00  0.00     0.102 C 
HETATM   14  C12 UNL     1      26.491   1.699  52.434  1.00  0.00     0.037 C 
HETATM   15  C13 UNL     1      26.371   2.334  51.068  1.00  0.00     0.270 C 
HETATM   16  N3  UNL     1      26.105   3.760  51.117  1.00  0.00     0.083 N 
HETATM   17  C14 UNL     1      25.632   4.178  49.822  1.00  0.00     0.271 C 
HETATM   18  C15 UNL     1      25.715   5.682  49.694  1.00  0.00     0.056 C 
HETATM   19  C16 UNL     1      25.083   6.212  48.434  1.00  0.00     0.169 C 
HETATM   20  O1  UNL     1      23.684   6.273  48.516  1.00  0.00    -0.387 OA
HETATM   21  C17 UNL     1      23.215   6.599  47.252  1.00  0.00     0.194 C 
HETATM   22  C18 UNL     1      21.791   6.937  47.168  1.00  0.00    -0.005 C 
HETATM   23  C19 UNL     1      20.607   7.120  47.763  1.00  0.00    -0.024 C 
HETATM   24  C20 UNL     1      20.177   7.018  49.198  1.00  0.00     0.073 C 
HETATM   25  C21 UNL     1      19.151   5.987  49.363  1.00  0.00     0.093 C 
HETATM   26  N4  UNL     1      19.727   5.312  50.188  1.00  0.00    -0.270 NA
HETATM   27  H15 UNL     1      26.993   4.255  51.327  1.00  0.00     0.315 HD
ENDROOT
TORSDOF 0
ENDMDL
MODEL 7
REMARK VINA RESULT:      -8.1      1.937      3.025
REMARK  0 active torsions:
REMARK  status: ('A' for Active; 'I' for Inactive)
ROOT
HETATM    1  C1  UNL     1      24.370   1.357  51.955  1.00  0.00    -0.082 C 
HETATM    2  C2  UNL     1      24.163   0.610  52.782  1.00  0.00     0.030 C 
HETATM    3  N1  UNL     1      23.885  -0.301  53.791  1.00  0.00    -0.228 NA
HETATM    4  C3  UNL     1      22.633  -0.672  53.950  1.00  0.00     0.172 C 
HETATM    5  C4  UNL     1      21.488  -1.331  54.476  1.00  0.00     0.030 C 
HETATM    6  C5  UNL     1      20.404  -0.924  53.708  1.00  0.00     0.032 C 
HETATM    7  C6  UNL     1      20.623  -0.003  52.591  1.00  0.00     0.066 C 
HETATM    8  C7  UNL     1      20.272   1.383  52.960  1.00  0.00     0.035 C 
HETATM    9  C8  UNL     1      20.937   2.556  52.847  1.00  0.00     0.665 C 
HETATM   10  N2  UNL     1      22.249   2.568  52.264  1.00  0.00     0.027 NA
HETATM   11  C9  UNL     1      22.692   3.691  51.762  1.00  0.00     0.239 C 
HETATM   12  C10 UNL     1      24.060   3.651  51.163  1.00  0.00     0.032 C 
HETATM   13  C11 UNL     1      24.602   2.278  50.921  1.00  0.00     0.102 C 
HETATM   14  C12 UNL     1      23.935   4.356  49.775  1.00  0.00     0.037 C 
HETATM   15  C13 UNL     1      22.795   3.717  49.018  1.00  0.00     0.270 C 
HETATM   16  N3  UNL     1      21.490   4.009  49.585  1.00  0.00     0.083 N 
HETATM   17  C14 UNL     1      20.540   3.068  49.050  1.00  0.00     0.271 C 
HETATM   18  C15 UNL     1      19.129   3.555  49.285  1.00  0.00     0.056 C 
HETATM   19  C16 UNL     1      18.076   2.549  48.905  1.00  0.00     0.169 C 
HETATM   20  O1  UNL     1      17.915   1.544  49.870  1.00  0.00    -0.387 OA
HETATM   21  C17 UNL     1      17.062   0.592  49.331  1.00  0.00     0.194 C 
HETATM   22  C18 UNL     1      16.580  -0.433  50.262  1.00  0.00    -0.005 C 
HETATM   23  C19 UNL     1      16.536  -0.948  51.495  1.00  0.00    -0.024 C 
HETATM   24  C20 UNL     1      17.166  -0.517  52.789  1.00  0.00     0.073 C 
HETATM   25  C21 UNL     1      18.069  -1.549  53.299  1.00  0.00     0.093 C 
HETATM   26  N4  UNL     1      19.073  -0.873  53.362  1.00  0.00    -0.270 NA
HETATM   27  H15 UNL     1      21.212   4.967  49.299  1.00  0.00     0.315 HD
ENDROOT
TORSDOF 0
ENDMDL
MODEL 8
REMARK VINA RESULT:      -7.4      6.610     10.405
REMARK  0 active torsions:
REMARK  status: ('A' for Active; 'I' for Inactive)
ROOT
HETATM    1  C1  UNL     1      25.859   5.764  48.823  1.00  0.00    -0.082 C 
HETATM    2  C2  UNL     1      26.883   5.296  48.702  1.00  0.00     0.030 C 
HETATM    3  N1  UNL     1      28.148   4.745  48.547  1.00  0.00    -0.228 NA
HETATM    4  C3  UNL     1      29.149   5.569  48.324  1.00  0.00     0.172 C 
HETATM    5  C4  UNL     1      30.468   6.036  48.075  1.00  0.00     0.030 C 
HETATM    6  C5  UNL     1      30.397   7.422  48.007  1.00  0.00     0.032 C 
HETATM    7  C6  UNL     1      29.106   8.083  48.211  1.00  0.00     0.066 C 
HETATM    8  C7  UNL     1      28.487   8.465  46.926  1.00  0.00     0.035 C 
HETATM    9  C8  UNL     1      27.254   8.263  46.408  1.00  0.00     0.665 C 
HETATM   10  N2  UNL     1      26.275   7.549  47.180  1.00  0.00     0.027 NA
HETATM   11  C9  UNL     1      25.012   7.730  46.895  1.00  0.00     0.239 C 
HETATM   12  C10 UNL     1      24.033   6.970  47.729  1.00  0.00     0.032 C 
HETATM   13  C11 UNL     1      24.600   6.367  48.975  1.00  0.00     0.102 C 
HETATM   14  C12 UNL     1      22.950   8.008  48.162  1.00  0.00     0.037 C 
HETATM   15  C13 UNL     1      23.651   9.199  48.775  1.00  0.00     0.270 C 
HETATM   16  N3  UNL     1      24.403   9.983  47.812  1.00  0.00     0.083 N 
HETATM   17  C14 UNL     1      25.320  10.829  48.532  1.00  0.00     0.271 C 
HETATM   18  C15 UNL     1      25.835  11.929  47.632  1.00  0.00     0.056 C 
HETATM   19  C16 UNL     1      26.926  12.755  48.261  1.00  0.00     0.169 C 
HETATM   20  O1  UNL     1      28.173  12.115  48.233  1.00  0.00    -0.387 OA
HETATM   21  C17 UNL     1      29.045  12.884  48.991  1.00  0.00     0.194 C 
HETATM   22  C18 UNL     1      30.461  12.514  48.906  1.00  0.00    -0.005 C 
HETATM   23  C19 UNL     1      31.427  11.739  48.401  1.00  0.00    -0.024 C 
HETATM   24  C20 UNL     1      31.395  10.607  47.415  1.00  0.00     0.073 C 
HETATM   25  C21 UNL     1      31.884   9.371  48.024  1.00  0.00     0.093 C 
HETATM   26  N4  UNL     1      30.904   8.687  47.820  1.00  0.00    -0.270 NA
HETATM   27  H15 UNL     1      23.740  10.580  47.281  1.00  0.00     0.315 HD
ENDROOT
TORSDOF 0
ENDMDL
MODEL 9
REMARK VINA RESULT:      -7.4      7.638     12.363
REMARK  0 active torsions:
REMARK  status: ('A' for Active; 'I' for Inactive)
ROOT
HETATM    1  C1  UNL     1      26.152   9.000  46.913  1.00  0.00    -0.082 C 
HETATM    2  C2  UNL     1      26.378  10.057  46.572  1.00  0.00     0.030 C 
HETATM    3  N1  UNL     1      26.681  11.348  46.162  1.00  0.00    -0.228 NA
HETATM    4  C3  UNL     1      27.948  11.697  46.129  1.00  0.00     0.172 C 
HETATM    5  C4  UNL     1      29.114  12.488  45.947  1.00  0.00     0.030 C 
HETATM    6  C5  UNL     1      30.201  11.680  46.256  1.00  0.00     0.032 C 
HETATM    7  C6  UNL     1      29.969  10.288  46.648  1.00  0.00     0.066 C 
HETATM    8  C7  UNL     1      30.038  10.125  48.115  1.00  0.00     0.035 C 
HETATM    9  C8  UNL     1      29.206   9.544  49.010  1.00  0.00     0.665 C 
HETATM   10  N2  UNL     1      27.990   8.935  48.550  1.00  0.00     0.027 NA
HETATM   11  C9  UNL     1      27.430   8.025  49.304  1.00  0.00     0.239 C 
HETATM   12  C10 UNL     1      26.170   7.418  48.779  1.00  0.00     0.032 C 
HETATM   13  C11 UNL     1      25.897   7.685  47.333  1.00  0.00     0.102 C 
HETATM   14  C12 UNL     1      26.343   5.875  48.946  1.00  0.00     0.037 C 
HETATM   15  C13 UNL     1      27.657   5.473  48.317  1.00  0.00     0.270 C 
HETATM   16  N3  UNL     1      28.817   5.952  49.047  1.00  0.00     0.083 N 
HETATM   17  C14 UNL     1      29.967   5.859  48.185  1.00  0.00     0.271 C 
HETATM   18  C15 UNL     1      31.239   5.964  48.995  1.00  0.00     0.056 C 
HETATM   19  C16 UNL     1      32.482   6.044  48.149  1.00  0.00     0.169 C 
HETATM   20  O1  UNL     1      32.690   7.324  47.614  1.00  0.00    -0.387 OA
HETATM   21  C17 UNL     1      33.748   7.227  46.722  1.00  0.00     0.194 C 
HETATM   22  C18 UNL     1      34.277   8.498  46.220  1.00  0.00    -0.005 C 
HETATM   23  C19 UNL     1      34.257   9.836  46.204  1.00  0.00    -0.024 C 
HETATM   24  C20 UNL     1      33.413  10.837  46.939  1.00  0.00     0.073 C 
HETATM   25  C21 UNL     1      32.639  11.654  46.003  1.00  0.00     0.093 C 
HETATM   26  N4  UNL     1      31.536  11.407  46.442  1.00  0.00    -0.270 NA
HETATM   27  H15 UNL     1      28.964   5.340  49.872  1.00  0.00     0.315 HD
ENDROOT
TORSDOF 0
ENDMDL
