MODEL 1
REMARK VINA RESULT:      -8.4      0.000      0.000
REMARK  7 active torsions:
REMARK  status: ('A' for Active; 'I' for Inactive)
REMARK    1  A    between atoms: C5_5  and  C6_6 
REMARK    2  A    between atoms: C9_9  and  N1_10 
REMARK    3  A    between atoms: N2_12  and  C11_13 
REMARK    4  A    between atoms: C11_13  and  C12_14 
REMARK    5  A    between atoms: C12_14  and  N3_15 
REMARK    6  A    between atoms: N3_15  and  C13_16 
REMARK    7  A    between atoms: C13_16  and  C15_18 
ROOT
HETATM    1  N1  UNL     1      25.146   4.998  49.300  1.00  0.00    -0.241 N 
HETATM    2  C10 UNL     1      24.856   4.567  50.474  1.00  0.00     0.212 A 
HETATM    3  N2  UNL     1      23.765   4.809  49.561  1.00  0.00    -0.110 NA
ENDROOT
BRANCH   1   4
HETATM    4  C9  UNL     1      26.511   5.218  48.944  1.00  0.00     0.127 A 
HETATM    5  C8  UNL     1      26.971   6.304  48.343  1.00  0.00     0.079 A 
HETATM    6  C7  UNL     1      28.301   5.724  48.373  1.00  0.00     0.038 A 
HETATM    7  C6  UNL     1      29.517   6.026  48.009  1.00  0.00     0.043 C 
HETATM    8  N4  UNL     1      27.775   4.578  49.014  1.00  0.00    -0.341 N 
HETATM    9  H22 UNL     1      27.773   3.646  49.461  1.00  0.00     0.167 HD
BRANCH   7  10
HETATM   10  C5  UNL     1      30.824   5.467  48.032  1.00  0.00    -0.011 A 
HETATM   11  C4  UNL     1      31.070   4.421  47.223  1.00  0.00     0.015 A 
HETATM   12  C3  UNL     1      32.347   3.759  47.148  1.00  0.00     0.025 A 
HETATM   13  C2  UNL     1      33.377   4.129  47.867  1.00  0.00     0.005 A 
HETATM   14  C1  UNL     1      34.681   3.431  47.771  1.00  0.00     0.068 C 
HETATM   15  N5  UNL     1      33.258   5.207  48.754  1.00  0.00    -0.363 N 
HETATM   16  C22 UNL     1      31.992   5.831  48.800  1.00  0.00     0.020 A 
HETATM   17  H25 UNL     1      34.048   5.522  49.333  1.00  0.00     0.165 HD
HETATM   18  C23 UNL     1      31.871   6.841  49.621  1.00  0.00     0.064 C 
ENDBRANCH   7  10
ENDBRANCH   1   4
BRANCH   3  19
HETATM   19  C11 UNL     1      22.558   4.584  49.969  1.00  0.00    -0.025 C 
BRANCH  19  20
HETATM   20  C12 UNL     1      21.469   4.098  50.493  1.00  0.00     0.155 C 
BRANCH  20  21
HETATM   21  N3  UNL     1      21.637   2.770  50.951  1.00  0.00    -0.384 N 
HETATM   22  H10 UNL     1      21.139   3.047  51.860  1.00  0.00     0.160 HD
BRANCH  21  23
HETATM   23  C13 UNL     1      22.073   1.418  50.862  1.00  0.00     0.111 C 
HETATM   24  C14 UNL     1      21.363   0.776  49.664  1.00  0.00     0.037 C 
BRANCH  23  25
HETATM   25  C15 UNL     1      21.971   0.627  52.084  1.00  0.00    -0.030 A 
HETATM   26  C16 UNL     1      20.669   0.206  52.388  1.00  0.00     0.010 A 
HETATM   27  C17 UNL     1      20.273  -0.557  53.480  1.00  0.00     0.001 A 
HETATM   28  C18 UNL     1      21.239  -0.950  54.365  1.00  0.00     0.001 A 
HETATM   29  C19 UNL     1      22.547  -0.558  54.105  1.00  0.00     0.007 A 
HETATM   30  C20 UNL     1      22.876   0.205  52.994  1.00  0.00    -0.054 A 
HETATM   31  C21 UNL     1      24.268   0.601  52.779  1.00  0.00     0.049 C 
ENDBRANCH  23  25
ENDBRANCH  21  23
ENDBRANCH  20  21
ENDBRANCH  19  20
ENDBRANCH   3  19
TORSDOF 7
ENDMDL
MODEL 2
REMARK VINA RESULT:      -8.2      1.790      2.604
REMARK  7 active torsions:
REMARK  status: ('A' for Active; 'I' for Inactive)
REMARK    1  A    between atoms: C5_5  and  C6_6 
REMARK    2  A    between atoms: C9_9  and  N1_10 
REMARK    3  A    between atoms: N2_12  and  C11_13 
REMARK    4  A    between atoms: C11_13  and  C12_14 
REMARK    5  A    between atoms: C12_14  and  N3_15 
REMARK    6  A    between atoms: N3_15  and  C13_16 
REMARK    7  A    between atoms: C13_16  and  C15_18 
ROOT
HETATM    1  N1  UNL     1      23.137   4.994  50.438  1.00  0.00    -0.241 N 
HETATM    2  C10 UNL     1      23.007   4.996  51.716  1.00  0.00     0.212 A 
HETATM    3  N2  UNL     1      21.898   4.511  50.932  1.00  0.00    -0.110 NA
ENDROOT
BRANCH   1   4
HETATM    4  C9  UNL     1      24.350   5.462  49.848  1.00  0.00     0.127 A 
HETATM    5  C8  UNL     1      24.447   6.003  48.645  1.00  0.00     0.079 A 
HETATM    6  C7  UNL     1      25.874   6.157  48.859  1.00  0.00     0.038 A 
HETATM    7  C6  UNL     1      26.922   6.616  48.231  1.00  0.00     0.043 C 
HETATM    8  N4  UNL     1      25.733   5.574  50.140  1.00  0.00    -0.341 N 
HETATM    9  H22 UNL     1      26.018   5.222  51.069  1.00  0.00     0.167 HD
BRANCH   7  10
HETATM   10  C5  UNL     1      28.321   6.771  48.430  1.00  0.00    -0.011 A 
HETATM   11  C4  UNL     1      29.111   5.714  48.161  1.00  0.00     0.015 A 
HETATM   12  C3  UNL     1      30.542   5.733  48.320  1.00  0.00     0.025 A 
HETATM   13  C2  UNL     1      31.191   6.789  48.740  1.00  0.00     0.005 A 
HETATM   14  C1  UNL     1      32.665   6.782  48.895  1.00  0.00     0.068 C 
HETATM   15  N5  UNL     1      30.490   7.960  49.057  1.00  0.00    -0.363 N 
HETATM   16  C22 UNL     1      29.089   7.904  48.888  1.00  0.00     0.020 A 
HETATM   17  H25 UNL     1      30.971   8.806  49.390  1.00  0.00     0.165 HD
HETATM   18  C23 UNL     1      28.424   8.993  49.177  1.00  0.00     0.064 C 
ENDBRANCH   7  10
ENDBRANCH   1   4
BRANCH   3  19
HETATM   19  C11 UNL     1      20.835   4.108  51.550  1.00  0.00    -0.025 C 
BRANCH  19  20
HETATM   20  C12 UNL     1      19.712   3.554  51.906  1.00  0.00     0.155 C 
BRANCH  20  21
HETATM   21  N3  UNL     1      19.855   2.172  52.177  1.00  0.00    -0.384 N 
HETATM   22  H10 UNL     1      19.422   2.342  53.143  1.00  0.00     0.160 HD
BRANCH  21  23
HETATM   23  C13 UNL     1      20.232   0.831  51.886  1.00  0.00     0.111 C 
HETATM   24  C14 UNL     1      18.950  -0.006  51.797  1.00  0.00     0.037 C 
BRANCH  23  25
HETATM   25  C15 UNL     1      21.243   0.244  52.758  1.00  0.00    -0.030 A 
HETATM   26  C16 UNL     1      20.726  -0.597  53.753  1.00  0.00     0.010 A 
HETATM   27  C17 UNL     1      21.448  -1.290  54.717  1.00  0.00     0.001 A 
HETATM   28  C18 UNL     1      22.809  -1.153  54.714  1.00  0.00     0.001 A 
HETATM   29  C19 UNL     1      23.369  -0.330  53.743  1.00  0.00     0.007 A 
HETATM   30  C20 UNL     1      22.591   0.335  52.808  1.00  0.00    -0.054 A 
HETATM   31  C21 UNL     1      23.235   1.200  51.818  1.00  0.00     0.049 C 
ENDBRANCH  23  25
ENDBRANCH  21  23
ENDBRANCH  20  21
ENDBRANCH  19  20
ENDBRANCH   3  19
TORSDOF 7
ENDMDL
MODEL 3
REMARK VINA RESULT:      -8.2      1.819      2.879
REMARK  7 active torsions:
REMARK  status: ('A' for Active; 'I' for Inactive)
REMARK    1  A    between atoms: C5_5  and  C6_6 
REMARK    2  A    between atoms: C9_9  and  N1_10 
REMARK    3  A    between atoms: N2_12  and  C11_13 
REMARK    4  A    between atoms: C11_13  and  C12_14 
REMARK    5  A    between atoms: C12_14  and  N3_15 
REMARK    6  A    between atoms: N3_15  and  C13_16 
REMARK    7  A    between atoms: C13_16  and  C15_18 
ROOT
HETATM    1  N1  UNL     1      25.637   4.520  49.086  1.00  0.00    -0.241 N 
HETATM    2  C10 UNL     1      24.626   5.090  49.634  1.00  0.00     0.212 A 
HETATM    3  N2  UNL     1      24.511   3.688  49.314  1.00  0.00    -0.110 NA
ENDROOT
BRANCH   1   4
HETATM    4  C9  UNL     1      26.817   5.277  48.816  1.00  0.00     0.127 A 
HETATM    5  C8  UNL     1      26.838   6.463  48.230  1.00  0.00     0.079 A 
HETATM    6  C7  UNL     1      28.284   6.469  48.356  1.00  0.00     0.038 A 
HETATM    7  C6  UNL     1      29.296   7.241  48.067  1.00  0.00     0.043 C 
HETATM    8  N4  UNL     1      28.224   5.201  48.979  1.00  0.00    -0.341 N 
HETATM    9  H22 UNL     1      28.569   4.342  49.439  1.00  0.00     0.167 HD
BRANCH   7  10
HETATM   10  C5  UNL     1      30.713   7.257  48.184  1.00  0.00    -0.011 A 
HETATM   11  C4  UNL     1      31.399   6.252  47.610  1.00  0.00     0.015 A 
HETATM   12  C3  UNL     1      32.834   6.144  47.652  1.00  0.00     0.025 A 
HETATM   13  C2  UNL     1      33.589   7.025  48.259  1.00  0.00     0.005 A 
HETATM   14  C1  UNL     1      35.065   6.891  48.289  1.00  0.00     0.068 C 
HETATM   15  N5  UNL     1      33.003   8.124  48.901  1.00  0.00    -0.363 N 
HETATM   16  C22 UNL     1      31.594   8.196  48.837  1.00  0.00     0.020 A 
HETATM   17  H25 UNL     1      33.570   8.833  49.386  1.00  0.00     0.165 HD
HETATM   18  C23 UNL     1      31.037   9.220  49.429  1.00  0.00     0.064 C 
ENDBRANCH   7  10
ENDBRANCH   1   4
BRANCH   3  19
HETATM   19  C11 UNL     1      23.403   3.080  49.591  1.00  0.00    -0.025 C 
BRANCH  19  20
HETATM   20  C12 UNL     1      22.425   2.421  50.143  1.00  0.00     0.155 C 
BRANCH  20  21
HETATM   21  N3  UNL     1      22.624   2.223  51.530  1.00  0.00    -0.384 N 
HETATM   22  H10 UNL     1      21.562   2.120  51.642  1.00  0.00     0.160 HD
BRANCH  21  23
HETATM   23  C13 UNL     1      23.394   2.109  52.721  1.00  0.00     0.111 C 
HETATM   24  C14 UNL     1      23.909   3.507  53.081  1.00  0.00     0.037 C 
BRANCH  23  25
HETATM   25  C15 UNL     1      24.442   1.094  52.715  1.00  0.00    -0.030 A 
HETATM   26  C16 UNL     1      25.599   1.466  52.017  1.00  0.00     0.010 A 
HETATM   27  C17 UNL     1      26.750   0.708  51.847  1.00  0.00     0.001 A 
HETATM   28  C18 UNL     1      26.782  -0.537  52.413  1.00  0.00     0.001 A 
HETATM   29  C19 UNL     1      25.658  -0.951  53.118  1.00  0.00     0.007 A 
HETATM   30  C20 UNL     1      24.537  -0.144  53.250  1.00  0.00    -0.054 A 
HETATM   31  C21 UNL     1      23.377  -0.638  53.992  1.00  0.00     0.049 C 
ENDBRANCH  23  25
ENDBRANCH  21  23
ENDBRANCH  20  21
ENDBRANCH  19  20
ENDBRANCH   3  19
TORSDOF 7
ENDMDL
MODEL 4
REMARK VINA RESULT:      -8.1      2.038      3.579
REMARK  7 active torsions:
REMARK  status: ('A' for Active; 'I' for Inactive)
REMARK    1  A    between atoms: C5_5  and  C6_6 
REMARK    2  A    between atoms: C9_9  and  N1_10 
REMARK    3  A    between atoms: N2_12  and  C11_13 
REMARK    4  A    between atoms: C11_13  and  C12_14 
REMARK    5  A    between atoms: C12_14  and  N3_15 
REMARK    6  A    between atoms: N3_15  and  C13_16 
REMARK    7  A    between atoms: C13_16  and  C15_18 
ROOT
HETATM    1  N1  UNL     1      24.735   3.309  50.110  1.00  0.00    -0.241 N 
HETATM    2  C10 UNL     1      23.736   2.986  49.370  1.00  0.00     0.212 A 
HETATM    3  N2  UNL     1      23.810   2.402  50.688  1.00  0.00    -0.110 NA
ENDROOT
BRANCH   1   4
HETATM    4  C9  UNL     1      25.718   4.218  49.613  1.00  0.00     0.127 A 
HETATM    5  C8  UNL     1      25.454   5.324  48.937  1.00  0.00     0.079 A 
HETATM    6  C7  UNL     1      26.880   5.579  48.852  1.00  0.00     0.038 A 
HETATM    7  C6  UNL     1      27.695   6.472  48.360  1.00  0.00     0.043 C 
HETATM    8  N4  UNL     1      27.126   4.390  49.577  1.00  0.00    -0.341 N 
HETATM    9  H22 UNL     1      27.673   3.652  50.050  1.00  0.00     0.167 HD
BRANCH   7  10
HETATM   10  C5  UNL     1      29.090   6.732  48.270  1.00  0.00    -0.011 A 
HETATM   11  C4  UNL     1      29.883   5.738  47.831  1.00  0.00     0.015 A 
HETATM   12  C3  UNL     1      31.311   5.864  47.693  1.00  0.00     0.025 A 
HETATM   13  C2  UNL     1      31.953   6.967  47.986  1.00  0.00     0.005 A 
HETATM   14  C1  UNL     1      33.424   7.072  47.836  1.00  0.00     0.068 C 
HETATM   15  N5  UNL     1      31.247   8.083  48.456  1.00  0.00    -0.363 N 
HETATM   16  C22 UNL     1      29.849   7.921  48.577  1.00  0.00     0.020 A 
HETATM   17  H25 UNL     1      31.723   8.963  48.695  1.00  0.00     0.165 HD
HETATM   18  C23 UNL     1      29.180   8.957  49.011  1.00  0.00     0.064 C 
ENDBRANCH   7  10
ENDBRANCH   1   4
BRANCH   3  19
HETATM   19  C11 UNL     1      22.876   1.586  51.055  1.00  0.00    -0.025 C 
BRANCH  19  20
HETATM   20  C12 UNL     1      22.101   0.751  51.686  1.00  0.00     0.155 C 
BRANCH  20  21
HETATM   21  N3  UNL     1      22.776   0.068  52.725  1.00  0.00    -0.384 N 
HETATM   22  H10 UNL     1      21.900   0.178  53.333  1.00  0.00     0.160 HD
BRANCH  21  23
HETATM   23  C13 UNL     1      23.877  -0.603  53.327  1.00  0.00     0.111 C 
HETATM   24  C14 UNL     1      23.474  -0.969  54.760  1.00  0.00     0.037 C 
BRANCH  23  25
HETATM   25  C15 UNL     1      25.166   0.074  53.247  1.00  0.00    -0.030 A 
HETATM   26  C16 UNL     1      25.141   1.409  53.675  1.00  0.00     0.010 A 
HETATM   27  C17 UNL     1      26.213   2.292  53.712  1.00  0.00     0.001 A 
HETATM   28  C18 UNL     1      27.431   1.834  53.291  1.00  0.00     0.001 A 
HETATM   29  C19 UNL     1      27.506   0.515  52.858  1.00  0.00     0.007 A 
HETATM   30  C20 UNL     1      26.396  -0.317  52.846  1.00  0.00    -0.054 A 
HETATM   31  C21 UNL     1      26.532  -1.693  52.367  1.00  0.00     0.049 C 
ENDBRANCH  23  25
ENDBRANCH  21  23
ENDBRANCH  20  21
ENDBRANCH  19  20
ENDBRANCH   3  19
TORSDOF 7
ENDMDL
MODEL 5
REMARK VINA RESULT:      -8.1      6.112      9.542
REMARK  7 active torsions:
REMARK  status: ('A' for Active; 'I' for Inactive)
REMARK    1  A    between atoms: C5_5  and  C6_6 
REMARK    2  A    between atoms: C9_9  and  N1_10 
REMARK    3  A    between atoms: N2_12  and  C11_13 
REMARK    4  A    between atoms: C11_13  and  C12_14 
REMARK    5  A    between atoms: C12_14  and  N3_15 
REMARK    6  A    between atoms: N3_15  and  C13_16 
REMARK    7  A    between atoms: C13_16  and  C15_18 
ROOT
HETATM    1  N1  UNL     1      18.797  -0.112  52.595  1.00  0.00    -0.241 N 
HETATM    2  C10 UNL     1      18.361  -1.130  53.246  1.00  0.00     0.212 A 
HETATM    3  N2  UNL     1      17.388  -0.276  52.609  1.00  0.00    -0.110 NA
ENDROOT
BRANCH   1   4
HETATM    4  C9  UNL     1      20.202   0.135  52.526  1.00  0.00     0.127 A 
HETATM    5  C8  UNL     1      20.845   0.549  51.446  1.00  0.00     0.079 A 
HETATM    6  C7  UNL     1      22.080   0.529  52.208  1.00  0.00     0.038 A 
HETATM    7  C6  UNL     1      23.348   0.786  52.038  1.00  0.00     0.043 C 
HETATM    8  N4  UNL     1      21.361   0.087  53.342  1.00  0.00    -0.341 N 
HETATM    9  H22 UNL     1      21.201  -0.216  54.317  1.00  0.00     0.167 HD
BRANCH   7  10
HETATM   10  C5  UNL     1      24.565   0.769  52.774  1.00  0.00    -0.011 A 
HETATM   11  C4  UNL     1      25.210  -0.406  52.886  1.00  0.00     0.015 A 
HETATM   12  C3  UNL     1      26.449  -0.565  53.604  1.00  0.00     0.025 A 
HETATM   13  C2  UNL     1      27.047   0.431  54.207  1.00  0.00     0.005 A 
HETATM   14  C1  UNL     1      28.322   0.241  54.939  1.00  0.00     0.068 C 
HETATM   15  N5  UNL     1      26.481   1.712  54.170  1.00  0.00    -0.363 N 
HETATM   16  C22 UNL     1      25.268   1.830  53.456  1.00  0.00     0.020 A 
HETATM   17  H25 UNL     1      26.927   2.515  54.634  1.00  0.00     0.165 HD
HETATM   18  C23 UNL     1      24.733   3.022  53.412  1.00  0.00     0.064 C 
ENDBRANCH   7  10
ENDBRANCH   1   4
BRANCH   3  19
HETATM   19  C11 UNL     1      16.135  -0.574  52.726  1.00  0.00    -0.025 C 
BRANCH  19  20
HETATM   20  C12 UNL     1      14.898  -0.938  52.541  1.00  0.00     0.155 C 
BRANCH  20  21
HETATM   21  N3  UNL     1      14.001  -0.248  53.391  1.00  0.00    -0.384 N 
HETATM   22  H10 UNL     1      14.839   0.059  53.986  1.00  0.00     0.160 HD
BRANCH  21  23
HETATM   23  C13 UNL     1      12.723   0.197  53.831  1.00  0.00     0.111 C 
HETATM   24  C14 UNL     1      11.665  -0.474  52.948  1.00  0.00     0.037 C 
BRANCH  23  25
HETATM   25  C15 UNL     1      12.549   1.641  53.943  1.00  0.00    -0.030 A 
HETATM   26  C16 UNL     1      13.109   2.371  52.886  1.00  0.00     0.010 A 
HETATM   27  C17 UNL     1      13.094   3.751  52.727  1.00  0.00     0.001 A 
HETATM   28  C18 UNL     1      12.474   4.497  53.691  1.00  0.00     0.001 A 
HETATM   29  C19 UNL     1      11.901   3.817  54.759  1.00  0.00     0.007 A 
HETATM   30  C20 UNL     1      11.950   2.435  54.859  1.00  0.00    -0.054 A 
HETATM   31  C21 UNL     1      11.342   1.774  56.014  1.00  0.00     0.049 C 
ENDBRANCH  23  25
ENDBRANCH  21  23
ENDBRANCH  20  21
ENDBRANCH  19  20
ENDBRANCH   3  19
TORSDOF 7
ENDMDL
MODEL 6
REMARK VINA RESULT:      -8.1      1.566      2.149
REMARK  7 active torsions:
REMARK  status: ('A' for Active; 'I' for Inactive)
REMARK    1  A    between atoms: C5_5  and  C6_6 
REMARK    2  A    between atoms: C9_9  and  N1_10 
REMARK    3  A    between atoms: N2_12  and  C11_13 
REMARK    4  A    between atoms: C11_13  and  C12_14 
REMARK    5  A    between atoms: C12_14  and  N3_15 
REMARK    6  A    between atoms: N3_15  and  C13_16 
REMARK    7  A    between atoms: C13_16  and  C15_18 
ROOT
HETATM    1  N1  UNL     1      24.988   4.986  49.896  1.00  0.00    -0.241 N 
HETATM    2  C10 UNL     1      24.341   3.952  49.494  1.00  0.00     0.212 A 
HETATM    3  N2  UNL     1      23.698   4.811  50.459  1.00  0.00    -0.110 NA
ENDROOT
BRANCH   1   4
HETATM    4  C9  UNL     1      26.295   5.247  49.385  1.00  0.00     0.127 A 
HETATM    5  C8  UNL     1      27.113   4.329  48.895  1.00  0.00     0.079 A 
HETATM    6  C7  UNL     1      28.091   5.373  48.648  1.00  0.00     0.038 A 
HETATM    7  C6  UNL     1      29.294   5.501  48.157  1.00  0.00     0.043 C 
HETATM    8  N4  UNL     1      27.191   6.327  49.178  1.00  0.00    -0.341 N 
HETATM    9  H22 UNL     1      26.840   7.254  49.469  1.00  0.00     0.167 HD
BRANCH   7  10
HETATM   10  C5  UNL     1      30.260   6.515  47.911  1.00  0.00    -0.011 A 
HETATM   11  C4  UNL     1      30.021   7.374  46.903  1.00  0.00     0.015 A 
HETATM   12  C3  UNL     1      30.913   8.445  46.544  1.00  0.00     0.025 A 
HETATM   13  C2  UNL     1      32.037   8.668  47.178  1.00  0.00     0.005 A 
HETATM   14  C1  UNL     1      32.940   9.778  46.788  1.00  0.00     0.068 C 
HETATM   15  N5  UNL     1      32.411   7.846  48.249  1.00  0.00    -0.363 N 
HETATM   16  C22 UNL     1      31.509   6.808  48.572  1.00  0.00     0.020 A 
HETATM   17  H25 UNL     1      33.287   7.995  48.767  1.00  0.00     0.165 HD
HETATM   18  C23 UNL     1      31.845   6.037  49.574  1.00  0.00     0.064 C 
ENDBRANCH   7  10
ENDBRANCH   1   4
BRANCH   3  19
HETATM   19  C11 UNL     1      22.512   4.497  50.870  1.00  0.00    -0.025 C 
BRANCH  19  20
HETATM   20  C12 UNL     1      21.474   3.987  51.469  1.00  0.00     0.155 C 
BRANCH  20  21
HETATM   21  N3  UNL     1      21.549   2.577  51.571  1.00  0.00    -0.384 N 
HETATM   22  H10 UNL     1      20.652   2.597  52.158  1.00  0.00     0.160 HD
BRANCH  21  23
HETATM   23  C13 UNL     1      22.120   1.294  51.342  1.00  0.00     0.111 C 
HETATM   24  C14 UNL     1      21.410   0.675  50.132  1.00  0.00     0.037 C 
BRANCH  23  25
HETATM   25  C15 UNL     1      22.179   0.401  52.494  1.00  0.00    -0.030 A 
HETATM   26  C16 UNL     1      20.934  -0.109  52.890  1.00  0.00     0.010 A 
HETATM   27  C17 UNL     1      20.687  -0.978  53.945  1.00  0.00     0.001 A 
HETATM   28  C18 UNL     1      21.755  -1.393  54.691  1.00  0.00     0.001 A 
HETATM   29  C19 UNL     1      23.011  -0.916  54.336  1.00  0.00     0.007 A 
HETATM   30  C20 UNL     1      23.191  -0.048  53.269  1.00  0.00    -0.054 A 
HETATM   31  C21 UNL     1      24.535   0.433  52.950  1.00  0.00     0.049 C 
ENDBRANCH  23  25
ENDBRANCH  21  23
ENDBRANCH  20  21
ENDBRANCH  19  20
ENDBRANCH   3  19
TORSDOF 7
ENDMDL
MODEL 7
REMARK VINA RESULT:      -8.0      6.048      9.528
REMARK  7 active torsions:
REMARK  status: ('A' for Active; 'I' for Inactive)
REMARK    1  A    between atoms: C5_5  and  C6_6 
REMARK    2  A    between atoms: C9_9  and  N1_10 
REMARK    3  A    between atoms: N2_12  and  C11_13 
REMARK    4  A    between atoms: C11_13  and  C12_14 
REMARK    5  A    between atoms: C12_14  and  N3_15 
REMARK    6  A    between atoms: N3_15  and  C13_16 
REMARK    7  A    between atoms: C13_16  and  C15_18 
ROOT
HETATM    1  N1  UNL     1      19.073  -0.154  52.808  1.00  0.00    -0.241 N 
HETATM    2  C10 UNL     1      18.583  -1.137  53.474  1.00  0.00     0.212 A 
HETATM    3  N2  UNL     1      17.668  -0.326  52.709  1.00  0.00    -0.110 NA
ENDROOT
BRANCH   1   4
HETATM    4  C9  UNL     1      20.477   0.098  52.847  1.00  0.00     0.127 A 
HETATM    5  C8  UNL     1      21.039   1.283  52.670  1.00  0.00     0.079 A 
HETATM    6  C7  UNL     1      22.339   0.664  52.855  1.00  0.00     0.038 A 
HETATM    7  C6  UNL     1      23.599   1.002  52.872  1.00  0.00     0.043 C 
HETATM    8  N4  UNL     1      21.704  -0.587  53.038  1.00  0.00    -0.341 N 
HETATM    9  H22 UNL     1      21.620  -1.602  53.216  1.00  0.00     0.167 HD
BRANCH   7  10
HETATM   10  C5  UNL     1      24.878   0.406  53.051  1.00  0.00    -0.011 A 
HETATM   11  C4  UNL     1      25.844   0.724  52.170  1.00  0.00     0.015 A 
HETATM   12  C3  UNL     1      27.181   0.194  52.232  1.00  0.00     0.025 A 
HETATM   13  C2  UNL     1      27.563  -0.648  53.160  1.00  0.00     0.005 A 
HETATM   14  C1  UNL     1      28.946  -1.180  53.202  1.00  0.00     0.068 C 
HETATM   15  N5  UNL     1      26.654  -1.065  54.142  1.00  0.00    -0.363 N 
HETATM   16  C22 UNL     1      25.354  -0.522  54.049  1.00  0.00     0.020 A 
HETATM   17  H25 UNL     1      26.925  -1.725  54.883  1.00  0.00     0.165 HD
HETATM   18  C23 UNL     1      24.499  -0.902  54.962  1.00  0.00     0.064 C 
ENDBRANCH   7  10
ENDBRANCH   1   4
BRANCH   3  19
HETATM   19  C11 UNL     1      16.410  -0.625  52.734  1.00  0.00    -0.025 C 
BRANCH  19  20
HETATM   20  C12 UNL     1      15.179  -0.944  52.452  1.00  0.00     0.155 C 
BRANCH  20  21
HETATM   21  N3  UNL     1      14.241  -0.175  53.180  1.00  0.00    -0.384 N 
HETATM   22  H10 UNL     1      15.053   0.424  53.545  1.00  0.00     0.160 HD
BRANCH  21  23
HETATM   23  C13 UNL     1      12.943   0.182  53.640  1.00  0.00     0.111 C 
HETATM   24  C14 UNL     1      11.920  -0.438  52.681  1.00  0.00     0.037 C 
BRANCH  23  25
HETATM   25  C15 UNL     1      12.715   1.601  53.886  1.00  0.00    -0.030 A 
HETATM   26  C16 UNL     1      13.332   2.452  52.958  1.00  0.00     0.010 A 
HETATM   27  C17 UNL     1      13.287   3.840  52.941  1.00  0.00     0.001 A 
HETATM   28  C18 UNL     1      12.570   4.466  53.924  1.00  0.00     0.001 A 
HETATM   29  C19 UNL     1      11.938   3.664  54.867  1.00  0.00     0.007 A 
HETATM   30  C20 UNL     1      12.023   2.280  54.828  1.00  0.00    -0.054 A 
HETATM   31  C21 UNL     1      11.348   1.488  55.856  1.00  0.00     0.049 C 
ENDBRANCH  23  25
ENDBRANCH  21  23
ENDBRANCH  20  21
ENDBRANCH  19  20
ENDBRANCH   3  19
TORSDOF 7
ENDMDL
MODEL 8
REMARK VINA RESULT:      -7.9      2.909      4.618
REMARK  7 active torsions:
REMARK  status: ('A' for Active; 'I' for Inactive)
REMARK    1  A    between atoms: C5_5  and  C6_6 
REMARK    2  A    between atoms: C9_9  and  N1_10 
REMARK    3  A    between atoms: N2_12  and  C11_13 
REMARK    4  A    between atoms: C11_13  and  C12_14 
REMARK    5  A    between atoms: C12_14  and  N3_15 
REMARK    6  A    between atoms: N3_15  and  C13_16 
REMARK    7  A    between atoms: C13_16  and  C15_18 
ROOT
HETATM    1  N1  UNL     1      25.624   4.197  49.962  1.00  0.00    -0.241 N 
HETATM    2  C10 UNL     1      25.925   3.056  50.470  1.00  0.00     0.212 A 
HETATM    3  N2  UNL     1      24.541   3.463  50.513  1.00  0.00    -0.110 NA
ENDROOT
BRANCH   1   4
HETATM    4  C9  UNL     1      26.647   5.007  49.384  1.00  0.00     0.127 A 
HETATM    5  C8  UNL     1      27.623   4.556  48.612  1.00  0.00     0.079 A 
HETATM    6  C7  UNL     1      28.125   5.913  48.503  1.00  0.00     0.038 A 
HETATM    7  C6  UNL     1      29.101   6.561  47.926  1.00  0.00     0.043 C 
HETATM    8  N4  UNL     1      27.069   6.360  49.331  1.00  0.00    -0.341 N 
HETATM    9  H22 UNL     1      26.483   7.025  49.861  1.00  0.00     0.167 HD
BRANCH   7  10
HETATM   10  C5  UNL     1      29.602   7.887  47.812  1.00  0.00    -0.011 A 
HETATM   11  C4  UNL     1      30.136   8.449  48.912  1.00  0.00     0.015 A 
HETATM   12  C3  UNL     1      30.678   9.783  48.937  1.00  0.00     0.025 A 
HETATM   13  C2  UNL     1      30.693  10.558  47.882  1.00  0.00     0.005 A 
HETATM   14  C1  UNL     1      31.257  11.928  47.935  1.00  0.00     0.068 C 
HETATM   15  N5  UNL     1      30.167  10.097  46.668  1.00  0.00    -0.363 N 
HETATM   16  C22 UNL     1      29.646   8.784  46.682  1.00  0.00     0.020 A 
HETATM   17  H25 UNL     1      30.165  10.682  45.823  1.00  0.00     0.165 HD
HETATM   18  C23 UNL     1      29.155   8.342  45.553  1.00  0.00     0.064 C 
ENDBRANCH   7  10
ENDBRANCH   1   4
BRANCH   3  19
HETATM   19  C11 UNL     1      23.680   2.667  51.060  1.00  0.00    -0.025 C 
BRANCH  19  20
HETATM   20  C12 UNL     1      22.984   1.647  51.472  1.00  0.00     0.155 C 
BRANCH  20  21
HETATM   21  N3  UNL     1      23.659   0.900  52.467  1.00  0.00    -0.384 N 
HETATM   22  H10 UNL     1      23.301   1.599  53.198  1.00  0.00     0.160 HD
BRANCH  21  23
HETATM   23  C13 UNL     1      24.473  -0.158  52.958  1.00  0.00     0.111 C 
HETATM   24  C14 UNL     1      23.797  -0.724  54.213  1.00  0.00     0.037 C 
BRANCH  23  25
HETATM   25  C15 UNL     1      25.884   0.153  53.155  1.00  0.00    -0.030 A 
HETATM   26  C16 UNL     1      26.130   1.468  53.572  1.00  0.00     0.010 A 
HETATM   27  C17 UNL     1      27.367   2.041  53.838  1.00  0.00     0.001 A 
HETATM   28  C18 UNL     1      28.478   1.258  53.683  1.00  0.00     0.001 A 
HETATM   29  C19 UNL     1      28.285  -0.055  53.272  1.00  0.00     0.007 A 
HETATM   30  C20 UNL     1      27.020  -0.567  53.023  1.00  0.00    -0.054 A 
HETATM   31  C21 UNL     1      26.879  -1.954  52.578  1.00  0.00     0.049 C 
ENDBRANCH  23  25
ENDBRANCH  21  23
ENDBRANCH  20  21
ENDBRANCH  19  20
ENDBRANCH   3  19
TORSDOF 7
ENDMDL
MODEL 9
REMARK VINA RESULT:      -7.8      3.229      4.495
REMARK  7 active torsions:
REMARK  status: ('A' for Active; 'I' for Inactive)
REMARK    1  A    between atoms: C5_5  and  C6_6 
REMARK    2  A    between atoms: C9_9  and  N1_10 
REMARK    3  A    between atoms: N2_12  and  C11_13 
REMARK    4  A    between atoms: C11_13  and  C12_14 
REMARK    5  A    between atoms: C12_14  and  N3_15 
REMARK    6  A    between atoms: N3_15  and  C13_16 
REMARK    7  A    between atoms: C13_16  and  C15_18 
ROOT
HETATM    1  N1  UNL     1      26.286   4.506  49.674  1.00  0.00    -0.241 N 
HETATM    2  C10 UNL     1      26.683   3.285  49.693  1.00  0.00     0.212 A 
HETATM    3  N2  UNL     1      25.478   3.608  50.418  1.00  0.00    -0.110 NA
ENDROOT
BRANCH   1   4
HETATM    4  C9  UNL     1      27.035   5.483  48.951  1.00  0.00     0.127 A 
HETATM    5  C8  UNL     1      26.508   6.466  48.239  1.00  0.00     0.079 A 
HETATM    6  C7  UNL     1      27.850   6.904  47.901  1.00  0.00     0.038 A 
HETATM    7  C6  UNL     1      28.437   7.843  47.211  1.00  0.00     0.043 C 
HETATM    8  N4  UNL     1      28.379   5.841  48.671  1.00  0.00    -0.341 N 
HETATM    9  H22 UNL     1      29.096   5.238  49.107  1.00  0.00     0.167 HD
BRANCH   7  10
HETATM   10  C5  UNL     1      29.747   8.280  46.873  1.00  0.00    -0.011 A 
HETATM   11  C4  UNL     1      30.125   8.183  45.585  1.00  0.00     0.015 A 
HETATM   12  C3  UNL     1      31.421   8.587  45.106  1.00  0.00     0.025 A 
HETATM   13  C2  UNL     1      32.341   9.085  45.894  1.00  0.00     0.005 A 
HETATM   14  C1  UNL     1      33.668   9.494  45.376  1.00  0.00     0.068 C 
HETATM   15  N5  UNL     1      32.079   9.241  47.262  1.00  0.00    -0.363 N 
HETATM   16  C22 UNL     1      30.797   8.835  47.694  1.00  0.00     0.020 A 
HETATM   17  H25 UNL     1      32.781   9.628  47.907  1.00  0.00     0.165 HD
HETATM   18  C23 UNL     1      30.541   8.978  48.968  1.00  0.00     0.064 C 
ENDBRANCH   7  10
ENDBRANCH   1   4
BRANCH   3  19
HETATM   19  C11 UNL     1      24.864   2.660  51.048  1.00  0.00    -0.025 C 
BRANCH  19  20
HETATM   20  C12 UNL     1      24.006   1.797  51.510  1.00  0.00     0.155 C 
BRANCH  20  21
HETATM   21  N3  UNL     1      24.568   0.949  52.494  1.00  0.00    -0.384 N 
HETATM   22  H10 UNL     1      24.384   1.715  53.222  1.00  0.00     0.160 HD
BRANCH  21  23
HETATM   23  C13 UNL     1      25.185  -0.239  52.976  1.00  0.00     0.111 C 
HETATM   24  C14 UNL     1      24.412  -0.696  54.218  1.00  0.00     0.037 C 
BRANCH  23  25
HETATM   25  C15 UNL     1      26.627  -0.175  53.186  1.00  0.00    -0.030 A 
HETATM   26  C16 UNL     1      27.088   1.070  53.634  1.00  0.00     0.010 A 
HETATM   27  C17 UNL     1      28.402   1.419  53.918  1.00  0.00     0.001 A 
HETATM   28  C18 UNL     1      29.366   0.463  53.750  1.00  0.00     0.001 A 
HETATM   29  C19 UNL     1      28.957  -0.790  53.309  1.00  0.00     0.007 A 
HETATM   30  C20 UNL     1      27.626  -1.075  53.042  1.00  0.00    -0.054 A 
HETATM   31  C21 UNL     1      27.255  -2.408  52.566  1.00  0.00     0.049 C 
ENDBRANCH  23  25
ENDBRANCH  21  23
ENDBRANCH  20  21
ENDBRANCH  19  20
ENDBRANCH   3  19
TORSDOF 7
ENDMDL
