MODEL 1
REMARK VINA RESULT:      -8.0      0.000      0.000
REMARK  2 active torsions:
REMARK  status: ('A' for Active; 'I' for Inactive)
REMARK    1  A    between atoms: O1_2  and  C2_3 
REMARK    2  A    between atoms: C9_12  and  C10_13 
ROOT
HETATM    1  C2  UNL     1      26.398   5.984  49.306  1.00  0.00     0.081 C 
HETATM    2  C3  UNL     1      26.091   7.221  49.651  1.00  0.00     0.039 C 
HETATM    3  C4  UNL     1      24.902   7.257  50.481  1.00  0.00     0.021 C 
HETATM    4  C5  UNL     1      24.140   6.319  50.945  1.00  0.00     0.005 C 
HETATM    5  S1  UNL     1      24.216   4.914  50.303  1.00  0.00    -0.159 SA
HETATM    6  C6  UNL     1      25.688   4.745  49.671  1.00  0.00     0.019 C 
HETATM    7  C7  UNL     1      26.575   3.553  49.340  1.00  0.00     0.167 C 
HETATM    8  N1  UNL     1      26.792   2.716  50.540  1.00  0.00    -0.388 N 
HETATM    9  C8  UNL     1      25.673   2.348  51.325  1.00  0.00     0.020 C 
HETATM   10  C9  UNL     1      25.676   2.140  52.649  1.00  0.00    -0.005 C 
HETATM   11  C16 UNL     1      24.431   2.401  53.457  1.00  0.00     0.191 C 
HETATM   12  N2  UNL     1      23.615   3.330  52.671  1.00  0.00    -0.283 NA
HETATM   13  C17 UNL     1      23.911   3.637  51.471  1.00  0.00     0.059 C 
HETATM   14  C18 UNL     1      24.198   2.243  50.875  1.00  0.00     0.122 C 
HETATM   15  H6  UNL     1      23.341   4.736  49.272  1.00  0.00     0.097 HD
HETATM   16  H9  UNL     1      27.587   2.292  51.043  1.00  0.00     0.159 HD
ENDROOT
BRANCH  10  17
HETATM   17  C10 UNL     1      27.011   1.648  53.067  1.00  0.00    -0.025 A 
HETATM   18  C11 UNL     1      28.066   2.364  53.589  1.00  0.00     0.012 A 
HETATM   19  C12 UNL     1      29.227   1.714  53.933  1.00  0.00     0.002 A 
HETATM   20  C13 UNL     1      29.398   0.354  53.780  1.00  0.00     0.019 A 
HETATM   21  C14 UNL     1      28.350  -0.382  53.258  1.00  0.00     0.011 A 
HETATM   22 BR1  UNL     1      28.662  -2.249  53.082  1.00  0.00    -0.051 Br
HETATM   23  C15 UNL     1      27.174   0.285  52.912  1.00  0.00     0.031 A 
ENDBRANCH  10  17
BRANCH   1  24
HETATM   24  O1  UNL     1      27.510   5.859  48.520  1.00  0.00    -0.355 OA
HETATM   25  C1  UNL     1      28.375   6.915  48.156  1.00  0.00     0.210 C 
ENDBRANCH   1  24
TORSDOF 2
ENDMDL
MODEL 2
REMARK VINA RESULT:      -8.0      3.381      6.447
REMARK  2 active torsions:
REMARK  status: ('A' for Active; 'I' for Inactive)
REMARK    1  A    between atoms: O1_2  and  C2_3 
REMARK    2  A    between atoms: C9_12  and  C10_13 
ROOT
HETATM    1  C2  UNL     1      28.111  -0.251  53.304  1.00  0.00     0.081 C 
HETATM    2  C3  UNL     1      28.140  -1.522  52.946  1.00  0.00     0.039 C 
HETATM    3  C4  UNL     1      26.813  -2.005  52.611  1.00  0.00     0.021 C 
HETATM    4  C5  UNL     1      25.660  -1.419  52.578  1.00  0.00     0.005 C 
HETATM    5  S1  UNL     1      25.490  -0.071  53.315  1.00  0.00    -0.159 SA
HETATM    6  C6  UNL     1      26.936   0.637  53.380  1.00  0.00     0.019 C 
HETATM    7  C7  UNL     1      27.413   2.076  53.509  1.00  0.00     0.167 C 
HETATM    8  N1  UNL     1      26.849   2.910  52.426  1.00  0.00    -0.388 N 
HETATM    9  C8  UNL     1      25.462   2.830  52.156  1.00  0.00     0.020 C 
HETATM   10  C9  UNL     1      24.882   2.998  50.959  1.00  0.00    -0.005 C 
HETATM   11  C16 UNL     1      23.594   2.284  50.637  1.00  0.00     0.191 C 
HETATM   12  N2  UNL     1      23.518   1.138  51.547  1.00  0.00    -0.283 NA
HETATM   13  C17 UNL     1      24.340   0.984  52.507  1.00  0.00     0.059 C 
HETATM   14  C18 UNL     1      24.336   2.398  53.124  1.00  0.00     0.122 C 
HETATM   15  H6  UNL     1      25.077  -0.203  54.608  1.00  0.00     0.097 HD
HETATM   16  H9  UNL     1      27.190   3.585  51.723  1.00  0.00     0.159 HD
ENDROOT
BRANCH  10  17
HETATM   17  C10 UNL     1      25.695   3.934  50.146  1.00  0.00    -0.025 A 
HETATM   18  C11 UNL     1      26.813   3.665  49.388  1.00  0.00     0.012 A 
HETATM   19  C12 UNL     1      27.421   4.679  48.686  1.00  0.00     0.002 A 
HETATM   20  C13 UNL     1      26.961   5.979  48.699  1.00  0.00     0.019 A 
HETATM   21  C14 UNL     1      25.839   6.269  49.454  1.00  0.00     0.011 A 
HETATM   22 BR1  UNL     1      25.267   8.080  49.417  1.00  0.00    -0.051 Br
HETATM   23  C15 UNL     1      25.229   5.234  50.164  1.00  0.00     0.031 A 
ENDBRANCH  10  17
BRANCH   1  24
HETATM   24  O1  UNL     1      29.323   0.286  53.638  1.00  0.00    -0.355 OA
HETATM   25  C1  UNL     1      30.524  -0.442  53.790  1.00  0.00     0.210 C 
ENDBRANCH   1  24
TORSDOF 2
ENDMDL
MODEL 3
REMARK VINA RESULT:      -7.7      2.919      4.938
REMARK  2 active torsions:
REMARK  status: ('A' for Active; 'I' for Inactive)
REMARK    1  A    between atoms: O1_2  and  C2_3 
REMARK    2  A    between atoms: C9_12  and  C10_13 
ROOT
HETATM    1  C2  UNL     1      21.422   0.838  51.188  1.00  0.00     0.081 C 
HETATM    2  C3  UNL     1      20.954   0.276  50.088  1.00  0.00     0.039 C 
HETATM    3  C4  UNL     1      21.429   0.965  48.903  1.00  0.00     0.021 C 
HETATM    4  C5  UNL     1      22.221   1.976  48.746  1.00  0.00     0.005 C 
HETATM    5  S1  UNL     1      22.508   2.891  49.959  1.00  0.00    -0.159 SA
HETATM    6  C6  UNL     1      22.313   2.008  51.293  1.00  0.00     0.019 C 
HETATM    7  C7  UNL     1      22.853   2.091  52.714  1.00  0.00     0.167 C 
HETATM    8  N1  UNL     1      24.332   2.093  52.709  1.00  0.00    -0.388 N 
HETATM    9  C8  UNL     1      25.009   2.971  51.829  1.00  0.00     0.020 C 
HETATM   10  C9  UNL     1      26.200   2.747  51.256  1.00  0.00    -0.005 C 
HETATM   11  C16 UNL     1      26.520   3.355  49.915  1.00  0.00     0.191 C 
HETATM   12  N2  UNL     1      25.234   3.657  49.281  1.00  0.00    -0.283 NA
HETATM   13  C17 UNL     1      24.132   3.560  49.912  1.00  0.00     0.059 C 
HETATM   14  C18 UNL     1      24.482   4.293  51.224  1.00  0.00     0.122 C 
HETATM   15  H6  UNL     1      21.642   3.938  50.071  1.00  0.00     0.097 HD
HETATM   16  H9  UNL     1      25.099   1.591  53.181  1.00  0.00     0.159 HD
ENDROOT
BRANCH  10  17
HETATM   17  C10 UNL     1      27.018   1.885  52.144  1.00  0.00    -0.025 A 
HETATM   18  C11 UNL     1      27.934   2.262  53.101  1.00  0.00     0.012 A 
HETATM   19  C12 UNL     1      28.583   1.301  53.838  1.00  0.00     0.002 A 
HETATM   20  C13 UNL     1      28.364  -0.050  53.668  1.00  0.00     0.019 A 
HETATM   21  C14 UNL     1      27.447  -0.448  52.712  1.00  0.00     0.011 A 
HETATM   22 BR1  UNL     1      27.197  -2.324  52.541  1.00  0.00    -0.051 Br
HETATM   23  C15 UNL     1      26.792   0.534  51.968  1.00  0.00     0.031 A 
ENDBRANCH  10  17
BRANCH   1  24
HETATM   24  O1  UNL     1      21.023   0.250  52.356  1.00  0.00    -0.355 OA
HETATM   25  C1  UNL     1      19.682   0.023  52.739  1.00  0.00     0.210 C 
ENDBRANCH   1  24
TORSDOF 2
ENDMDL
MODEL 4
REMARK VINA RESULT:      -7.5      3.779      6.411
REMARK  2 active torsions:
REMARK  status: ('A' for Active; 'I' for Inactive)
REMARK    1  A    between atoms: O1_2  and  C2_3 
REMARK    2  A    between atoms: C9_12  and  C10_13 
ROOT
HETATM    1  C2  UNL     1      23.369   0.822  53.013  1.00  0.00     0.081 C 
HETATM    2  C3  UNL     1      22.686  -0.240  52.624  1.00  0.00     0.039 C 
HETATM    3  C4  UNL     1      21.518   0.140  51.851  1.00  0.00     0.021 C 
HETATM    4  C5  UNL     1      21.068   1.292  51.470  1.00  0.00     0.005 C 
HETATM    5  S1  UNL     1      21.591   2.565  52.174  1.00  0.00    -0.159 SA
HETATM    6  C6  UNL     1      23.063   2.239  52.742  1.00  0.00     0.019 C 
HETATM    7  C7  UNL     1      24.283   3.081  53.088  1.00  0.00     0.167 C 
HETATM    8  N1  UNL     1      24.709   3.882  51.921  1.00  0.00    -0.388 N 
HETATM    9  C8  UNL     1      23.735   4.622  51.209  1.00  0.00     0.020 C 
HETATM   10  C9  UNL     1      23.760   4.899  49.897  1.00  0.00    -0.005 C 
HETATM   11  C16 UNL     1      22.471   5.079  49.138  1.00  0.00     0.191 C 
HETATM   12  N2  UNL     1      21.434   4.398  49.917  1.00  0.00    -0.283 NA
HETATM   13  C17 UNL     1      21.658   3.942  51.085  1.00  0.00     0.059 C 
HETATM   14  C18 UNL     1      22.377   5.144  51.733  1.00  0.00     0.122 C 
HETATM   15  H6  UNL     1      20.845   2.939  53.253  1.00  0.00     0.097 HD
HETATM   16  H9  UNL     1      25.580   4.074  51.401  1.00  0.00     0.159 HD
ENDROOT
BRANCH  10  17
HETATM   17  C10 UNL     1      25.168   4.984  49.440  1.00  0.00    -0.025 A 
HETATM   18  C11 UNL     1      26.109   3.981  49.364  1.00  0.00     0.012 A 
HETATM   19  C12 UNL     1      27.369   4.264  48.893  1.00  0.00     0.002 A 
HETATM   20  C13 UNL     1      27.751   5.523  48.481  1.00  0.00     0.019 A 
HETATM   21  C14 UNL     1      26.820   6.543  48.549  1.00  0.00     0.011 A 
HETATM   22 BR1  UNL     1      27.420   8.248  47.961  1.00  0.00    -0.051 Br
HETATM   23  C15 UNL     1      25.543   6.249  49.030  1.00  0.00     0.031 A 
ENDBRANCH  10  17
BRANCH   1  24
HETATM   24  O1  UNL     1      24.489   0.554  53.750  1.00  0.00    -0.355 OA
HETATM   25  C1  UNL     1      25.377  -0.521  53.523  1.00  0.00     0.210 C 
ENDBRANCH   1  24
TORSDOF 2
ENDMDL
MODEL 5
REMARK VINA RESULT:      -7.3      3.045      6.208
REMARK  2 active torsions:
REMARK  status: ('A' for Active; 'I' for Inactive)
REMARK    1  A    between atoms: O1_2  and  C2_3 
REMARK    2  A    between atoms: C9_12  and  C10_13 
ROOT
HETATM    1  C2  UNL     1      27.151   0.557  53.870  1.00  0.00     0.081 C 
HETATM    2  C3  UNL     1      27.688  -0.544  53.377  1.00  0.00     0.039 C 
HETATM    3  C4  UNL     1      26.710  -1.321  52.638  1.00  0.00     0.021 C 
HETATM    4  C5  UNL     1      25.462  -1.114  52.369  1.00  0.00     0.005 C 
HETATM    5  S1  UNL     1      24.688  -0.061  53.196  1.00  0.00    -0.159 SA
HETATM    6  C6  UNL     1      25.756   1.017  53.738  1.00  0.00     0.019 C 
HETATM    7  C7  UNL     1      25.675   2.474  54.170  1.00  0.00     0.167 C 
HETATM    8  N1  UNL     1      25.105   3.306  53.088  1.00  0.00    -0.388 N 
HETATM    9  C8  UNL     1      23.920   2.872  52.447  1.00  0.00     0.020 C 
HETATM   10  C9  UNL     1      23.588   3.103  51.168  1.00  0.00    -0.005 C 
HETATM   11  C16 UNL     1      22.722   2.120  50.424  1.00  0.00     0.191 C 
HETATM   12  N2  UNL     1      22.848   0.841  51.128  1.00  0.00    -0.283 NA
HETATM   13  C17 UNL     1      23.448   0.744  52.247  1.00  0.00     0.059 C 
HETATM   14  C18 UNL     1      22.830   1.933  53.013  1.00  0.00     0.122 C 
HETATM   15  H6  UNL     1      24.079  -0.576  54.303  1.00  0.00     0.097 HD
HETATM   16  H9  UNL     1      25.337   4.182  52.594  1.00  0.00     0.159 HD
ENDROOT
BRANCH  10  17
HETATM   17  C10 UNL     1      24.187   4.386  50.728  1.00  0.00    -0.025 A 
HETATM   18  C11 UNL     1      23.731   5.667  50.950  1.00  0.00     0.012 A 
HETATM   19  C12 UNL     1      24.446   6.737  50.467  1.00  0.00     0.002 A 
HETATM   20  C13 UNL     1      25.621   6.596  49.759  1.00  0.00     0.019 A 
HETATM   21  C14 UNL     1      26.095   5.318  49.527  1.00  0.00     0.011 A 
HETATM   22 BR1  UNL     1      27.720   5.206  48.548  1.00  0.00    -0.051 Br
HETATM   23  C15 UNL     1      25.363   4.236  50.020  1.00  0.00     0.031 A 
ENDBRANCH  10  17
BRANCH   1  24
HETATM   24  O1  UNL     1      28.005   1.350  54.584  1.00  0.00    -0.355 OA
HETATM   25  C1  UNL     1      29.404   1.418  54.397  1.00  0.00     0.210 C 
ENDBRANCH   1  24
TORSDOF 2
ENDMDL
MODEL 6
REMARK VINA RESULT:      -7.2      3.458      5.267
REMARK  2 active torsions:
REMARK  status: ('A' for Active; 'I' for Inactive)
REMARK    1  A    between atoms: O1_2  and  C2_3 
REMARK    2  A    between atoms: C9_12  and  C10_13 
ROOT
HETATM    1  C2  UNL     1      24.419   4.489  50.701  1.00  0.00     0.081 C 
HETATM    2  C3  UNL     1      24.733   4.556  49.421  1.00  0.00     0.039 C 
HETATM    3  C4  UNL     1      25.802   3.631  49.091  1.00  0.00     0.021 C 
HETATM    4  C5  UNL     1      26.450   2.767  49.803  1.00  0.00     0.005 C 
HETATM    5  S1  UNL     1      26.398   2.884  51.344  1.00  0.00    -0.159 SA
HETATM    6  C6  UNL     1      25.017   3.619  51.731  1.00  0.00     0.019 C 
HETATM    7  C7  UNL     1      24.129   3.636  52.968  1.00  0.00     0.167 C 
HETATM    8  N1  UNL     1      23.716   2.264  53.331  1.00  0.00    -0.388 N 
HETATM    9  C8  UNL     1      24.701   1.250  53.396  1.00  0.00     0.020 C 
HETATM   10  C9  UNL     1      24.512  -0.050  53.125  1.00  0.00    -0.005 C 
HETATM   11  C16 UNL     1      25.648  -0.883  52.591  1.00  0.00     0.191 C 
HETATM   12  N2  UNL     1      26.603   0.053  51.995  1.00  0.00    -0.283 NA
HETATM   13  C17 UNL     1      26.485   1.314  52.129  1.00  0.00     0.059 C 
HETATM   14  C18 UNL     1      26.217   1.422  53.645  1.00  0.00     0.122 C 
HETATM   15  H6  UNL     1      27.394   3.654  51.869  1.00  0.00     0.097 HD
HETATM   16  H9  UNL     1      22.842   1.762  53.555  1.00  0.00     0.159 HD
ENDROOT
BRANCH  10  17
HETATM   17  C10 UNL     1      23.112  -0.419  53.445  1.00  0.00    -0.025 A 
HETATM   18  C11 UNL     1      22.632  -1.102  54.541  1.00  0.00     0.012 A 
HETATM   19  C12 UNL     1      21.283  -1.334  54.662  1.00  0.00     0.002 A 
HETATM   20  C13 UNL     1      20.362  -0.911  53.727  1.00  0.00     0.019 A 
HETATM   21  C14 UNL     1      20.824  -0.223  52.620  1.00  0.00     0.011 A 
HETATM   22 BR1  UNL     1      19.495   0.330  51.379  1.00  0.00    -0.051 Br
HETATM   23  C15 UNL     1      22.196   0.008  52.503  1.00  0.00     0.031 A 
ENDBRANCH  10  17
BRANCH   1  24
HETATM   24  O1  UNL     1      23.419   5.331  51.100  1.00  0.00    -0.355 OA
HETATM   25  C1  UNL     1      22.210   5.550  50.401  1.00  0.00     0.210 C 
ENDBRANCH   1  24
TORSDOF 2
ENDMDL
MODEL 7
REMARK VINA RESULT:      -6.9      5.346      8.138
REMARK  2 active torsions:
REMARK  status: ('A' for Active; 'I' for Inactive)
REMARK    1  A    between atoms: O1_2  and  C2_3 
REMARK    2  A    between atoms: C9_12  and  C10_13 
ROOT
HETATM    1  C2  UNL     1      31.832  10.808  47.784  1.00  0.00     0.081 C 
HETATM    2  C3  UNL     1      32.355  11.233  46.649  1.00  0.00     0.039 C 
HETATM    3  C4  UNL     1      33.088  10.174  45.978  1.00  0.00     0.021 C 
HETATM    4  C5  UNL     1      33.282   8.931  46.278  1.00  0.00     0.005 C 
HETATM    5  S1  UNL     1      33.020   8.465  47.729  1.00  0.00    -0.159 SA
HETATM    6  C6  UNL     1      31.924   9.458  48.369  1.00  0.00     0.019 C 
HETATM    7  C7  UNL     1      30.904   9.337  49.493  1.00  0.00     0.167 C 
HETATM    8  N1  UNL     1      29.998   8.193  49.253  1.00  0.00    -0.388 N 
HETATM    9  C8  UNL     1      30.560   6.941  48.904  1.00  0.00     0.020 C 
HETATM   10  C9  UNL     1      29.991   6.015  48.120  1.00  0.00    -0.005 C 
HETATM   11  C16 UNL     1      30.850   5.086  47.302  1.00  0.00     0.191 C 
HETATM   12  N2  UNL     1      32.150   5.746  47.156  1.00  0.00    -0.283 NA
HETATM   13  C17 UNL     1      32.443   6.807  47.797  1.00  0.00     0.059 C 
HETATM   14  C18 UNL     1      31.983   6.424  49.219  1.00  0.00     0.122 C 
HETATM   15  H6  UNL     1      34.117   8.545  48.535  1.00  0.00     0.097 HD
HETATM   16  H9  UNL     1      28.983   8.010  49.241  1.00  0.00     0.159 HD
ENDROOT
BRANCH  10  17
HETATM   17  C10 UNL     1      28.516   6.105  48.243  1.00  0.00    -0.025 A 
HETATM   18  C11 UNL     1      27.680   7.120  47.832  1.00  0.00     0.012 A 
HETATM   19  C12 UNL     1      26.324   7.005  48.025  1.00  0.00     0.002 A 
HETATM   20  C13 UNL     1      25.741   5.906  48.619  1.00  0.00     0.019 A 
HETATM   21  C14 UNL     1      26.564   4.876  49.038  1.00  0.00     0.011 A 
HETATM   22 BR1  UNL     1      25.686   3.396  49.843  1.00  0.00    -0.051 Br
HETATM   23  C15 UNL     1      27.940   5.000  48.839  1.00  0.00     0.031 A 
ENDBRANCH  10  17
BRANCH   1  24
HETATM   24  O1  UNL     1      31.122  11.745  48.483  1.00  0.00    -0.355 OA
HETATM   25  C1  UNL     1      30.060  12.518  47.964  1.00  0.00     0.210 C 
ENDBRANCH   1  24
TORSDOF 2
ENDMDL
MODEL 8
REMARK VINA RESULT:      -6.8      2.653      3.350
REMARK  2 active torsions:
REMARK  status: ('A' for Active; 'I' for Inactive)
REMARK    1  A    between atoms: O1_2  and  C2_3 
REMARK    2  A    between atoms: C9_12  and  C10_13 
ROOT
HETATM    1  C2  UNL     1      22.469   5.326  48.949  1.00  0.00     0.081 C 
HETATM    2  C3  UNL     1      21.751   6.389  49.262  1.00  0.00     0.039 C 
HETATM    3  C4  UNL     1      20.566   6.021  50.014  1.00  0.00     0.021 C 
HETATM    4  C5  UNL     1      20.127   4.881  50.437  1.00  0.00     0.005 C 
HETATM    5  S1  UNL     1      20.700   3.586  49.815  1.00  0.00    -0.159 SA
HETATM    6  C6  UNL     1      22.183   3.917  49.280  1.00  0.00     0.019 C 
HETATM    7  C7  UNL     1      23.431   3.086  49.017  1.00  0.00     0.167 C 
HETATM    8  N1  UNL     1      23.835   2.353  50.236  1.00  0.00    -0.388 N 
HETATM    9  C8  UNL     1      22.852   1.628  50.952  1.00  0.00     0.020 C 
HETATM   10  C9  UNL     1      22.839   1.417  52.276  1.00  0.00    -0.005 C 
HETATM   11  C16 UNL     1      21.528   1.245  53.000  1.00  0.00     0.191 C 
HETATM   12  N2  UNL     1      20.504   1.864  52.154  1.00  0.00    -0.283 NA
HETATM   13  C17 UNL     1      20.758   2.266  50.973  1.00  0.00     0.059 C 
HETATM   14  C18 UNL     1      21.524   1.050  50.410  1.00  0.00     0.122 C 
HETATM   15  H6  UNL     1      19.999   3.143  48.732  1.00  0.00     0.097 HD
HETATM   16  H9  UNL     1      24.691   2.207  50.793  1.00  0.00     0.159 HD
ENDROOT
BRANCH  10  17
HETATM   17  C10 UNL     1      24.232   1.386  52.782  1.00  0.00    -0.025 A 
HETATM   18  C11 UNL     1      24.935   2.381  53.424  1.00  0.00     0.012 A 
HETATM   19  C12 UNL     1      26.226   2.147  53.834  1.00  0.00     0.002 A 
HETATM   20  C13 UNL     1      26.869   0.944  53.636  1.00  0.00     0.019 A 
HETATM   21  C14 UNL     1      26.179  -0.069  52.994  1.00  0.00     0.011 A 
HETATM   22 BR1  UNL     1      27.132  -1.697  52.762  1.00  0.00    -0.051 Br
HETATM   23  C15 UNL     1      24.869   0.177  52.580  1.00  0.00     0.031 A 
ENDBRANCH  10  17
BRANCH   1  24
HETATM   24  O1  UNL     1      23.607   5.582  48.237  1.00  0.00    -0.355 OA
HETATM   25  C1  UNL     1      24.643   6.454  48.639  1.00  0.00     0.210 C 
ENDBRANCH   1  24
TORSDOF 2
ENDMDL
MODEL 9
REMARK VINA RESULT:      -6.4      6.550      9.249
REMARK  2 active torsions:
REMARK  status: ('A' for Active; 'I' for Inactive)
REMARK    1  A    between atoms: O1_2  and  C2_3 
REMARK    2  A    between atoms: C9_12  and  C10_13 
ROOT
HETATM    1  C2  UNL     1      32.895   5.902  43.992  1.00  0.00     0.081 C 
HETATM    2  C3  UNL     1      33.508   4.766  43.717  1.00  0.00     0.039 C 
HETATM    3  C4  UNL     1      34.267   4.288  44.859  1.00  0.00     0.021 C 
HETATM    4  C5  UNL     1      34.415   4.752  46.057  1.00  0.00     0.005 C 
HETATM    5  S1  UNL     1      34.039   6.226  46.335  1.00  0.00    -0.159 SA
HETATM    6  C6  UNL     1      32.918   6.655  45.260  1.00  0.00     0.019 C 
HETATM    7  C7  UNL     1      31.817   7.706  45.230  1.00  0.00     0.167 C 
HETATM    8  N1  UNL     1      30.910   7.542  46.386  1.00  0.00    -0.388 N 
HETATM    9  C8  UNL     1      31.471   7.394  47.677  1.00  0.00     0.020 C 
HETATM   10  C9  UNL     1      30.943   6.689  48.688  1.00  0.00    -0.005 C 
HETATM   11  C16 UNL     1      31.842   6.059  49.720  1.00  0.00     0.191 C 
HETATM   12  N2  UNL     1      33.161   5.929  49.096  1.00  0.00    -0.283 NA
HETATM   13  C17 UNL     1      33.427   6.455  47.967  1.00  0.00     0.059 C 
HETATM   14  C18 UNL     1      32.857   7.875  48.165  1.00  0.00     0.122 C 
HETATM   15  H6  UNL     1      35.076   7.096  46.167  1.00  0.00     0.097 HD
HETATM   16  H9  UNL     1      29.895   7.477  46.559  1.00  0.00     0.159 HD
ENDROOT
BRANCH  10  17
HETATM   17  C10 UNL     1      29.465   6.690  48.569  1.00  0.00    -0.025 A 
HETATM   18  C11 UNL     1      28.622   5.626  48.338  1.00  0.00     0.012 A 
HETATM   19  C12 UNL     1      27.264   5.834  48.277  1.00  0.00     0.002 A 
HETATM   20  C13 UNL     1      26.688   7.076  48.438  1.00  0.00     0.019 A 
HETATM   21  C14 UNL     1      27.518   8.157  48.671  1.00  0.00     0.011 A 
HETATM   22 BR1  UNL     1      26.649   9.833  48.887  1.00  0.00    -0.051 Br
HETATM   23  C15 UNL     1      28.896   7.938  48.732  1.00  0.00     0.031 A 
ENDBRANCH  10  17
BRANCH   1  24
HETATM   24  O1  UNL     1      32.155   6.425  42.969  1.00  0.00    -0.355 OA
HETATM   25  C1  UNL     1      32.669   6.847  41.722  1.00  0.00     0.210 C 
ENDBRANCH   1  24
TORSDOF 2
ENDMDL
