MODEL 1
REMARK VINA RESULT:      -7.1      0.000      0.000
REMARK  5 active torsions:
REMARK  status: ('A' for Active; 'I' for Inactive)
REMARK    1  A    between atoms: O1_2  and  C2_3 
REMARK    2  A    between atoms: C3_4  and  C4_5 
REMARK    3  A    between atoms: C5_6  and  O2_7 
REMARK    4  A    between atoms: O2_7  and  C6_8 
REMARK    5  A    between atoms: C16_19  and  N2_20 
ROOT
HETATM    1  C6  UNL     1      25.937   2.841  50.569  1.00  0.00     0.152 C 
HETATM    2  C7  UNL     1      25.990   3.535  49.443  1.00  0.00     0.118 C 
HETATM    3  C8  UNL     1      27.157   4.300  49.053  1.00  0.00     0.089 C 
HETATM    4  N1  UNL     1      28.098   4.901  48.737  1.00  0.00    -0.192 NA
ENDROOT
BRANCH   1   5
HETATM    5  O2  UNL     1      24.828   2.124  50.925  1.00  0.00    -0.326 OA
BRANCH   5   6
HETATM    6  C5  UNL     1      24.623   1.575  52.206  1.00  0.00     0.059 C 
HETATM    7  C4  UNL     1      23.431   0.936  52.196  1.00  0.00    -0.023 C 
HETATM    8  C15 UNL     1      22.884  -0.171  53.065  1.00  0.00     0.068 C 
HETATM    9  C14 UNL     1      23.922  -0.515  54.112  1.00  0.00    -0.013 C 
HETATM   10  C13 UNL     1      25.244  -0.446  54.008  1.00  0.00    -0.039 C 
HETATM   11  C12 UNL     1      26.232  -0.195  55.099  1.00  0.00     0.005 C 
HETATM   12  C16 UNL     1      26.206  -0.554  52.823  1.00  0.00     0.115 C 
HETATM   13  C11 UNL     1      27.264   0.490  54.533  1.00  0.00    -0.019 C 
HETATM   14  C10 UNL     1      26.846   0.829  53.111  1.00  0.00     0.041 C 
HETATM   15  C9  UNL     1      25.771   1.886  53.109  1.00  0.00     0.076 C 
BRANCH   7  16
HETATM   16  C3  UNL     1      22.524   1.379  51.186  1.00  0.00     0.034 C 
HETATM   17  C2  UNL     1      21.493   0.639  50.791  1.00  0.00     0.134 C 
BRANCH  17  18
HETATM   18  O1  UNL     1      20.636   1.099  49.815  1.00  0.00    -0.368 OA
HETATM   19  C1  UNL     1      21.175   1.518  48.576  1.00  0.00     0.208 C 
ENDBRANCH  17  18
ENDBRANCH   7  16
BRANCH  12  20
HETATM   20  N2  UNL     1      27.204  -1.536  53.092  1.00  0.00    -0.422 N 
HETATM   21  H17 UNL     1      27.090  -2.068  53.963  1.00  0.00     0.150 HD
HETATM   22  H18 UNL     1      27.527  -2.069  52.264  1.00  0.00     0.150 HD
ENDBRANCH  12  20
ENDBRANCH   5   6
ENDBRANCH   1   5
TORSDOF 5
ENDMDL
MODEL 2
REMARK VINA RESULT:      -6.7      2.718      5.800
REMARK  5 active torsions:
REMARK  status: ('A' for Active; 'I' for Inactive)
REMARK    1  A    between atoms: O1_2  and  C2_3 
REMARK    2  A    between atoms: C3_4  and  C4_5 
REMARK    3  A    between atoms: C5_6  and  O2_7 
REMARK    4  A    between atoms: O2_7  and  C6_8 
REMARK    5  A    between atoms: C16_19  and  N2_20 
ROOT
HETATM    1  C6  UNL     1      26.934   1.660  52.444  1.00  0.00     0.152 C 
HETATM    2  C7  UNL     1      27.227   0.400  52.723  1.00  0.00     0.118 C 
HETATM    3  C8  UNL     1      27.825  -0.001  53.981  1.00  0.00     0.089 C 
HETATM    4  N1  UNL     1      28.292  -0.320  54.993  1.00  0.00    -0.192 NA
ENDROOT
BRANCH   1   5
HETATM    5  O2  UNL     1      26.369   2.025  51.253  1.00  0.00    -0.326 OA
BRANCH   5   6
HETATM    6  C5  UNL     1      25.251   2.874  51.139  1.00  0.00     0.059 C 
HETATM    7  C4  UNL     1      25.392   3.592  50.002  1.00  0.00    -0.023 C 
HETATM    8  C15 UNL     1      24.376   4.298  49.135  1.00  0.00     0.068 C 
HETATM    9  C14 UNL     1      23.011   4.134  49.766  1.00  0.00    -0.013 C 
HETATM   10  C13 UNL     1      22.560   3.116  50.491  1.00  0.00    -0.039 C 
HETATM   11  C12 UNL     1      21.533   3.153  51.574  1.00  0.00     0.005 C 
HETATM   12  C16 UNL     1      22.906   1.627  50.530  1.00  0.00     0.115 C 
HETATM   13  C11 UNL     1      21.885   2.192  52.471  1.00  0.00    -0.019 C 
HETATM   14  C10 UNL     1      23.243   1.660  52.043  1.00  0.00     0.041 C 
HETATM   15  C9  UNL     1      24.319   2.686  52.292  1.00  0.00     0.076 C 
BRANCH   7  16
HETATM   16  C3  UNL     1      26.734   3.707  49.529  1.00  0.00     0.034 C 
HETATM   17  C2  UNL     1      27.139   4.742  48.802  1.00  0.00     0.134 C 
BRANCH  17  18
HETATM   18  O1  UNL     1      28.443   4.821  48.363  1.00  0.00    -0.368 OA
HETATM   19  C1  UNL     1      29.054   6.093  48.265  1.00  0.00     0.208 C 
ENDBRANCH  17  18
ENDBRANCH   7  16
BRANCH  12  20
HETATM   20  N2  UNL     1      21.723   0.846  50.386  1.00  0.00    -0.422 N 
HETATM   21  H17 UNL     1      20.886   1.350  50.070  1.00  0.00     0.150 HD
HETATM   22  H18 UNL     1      21.868  -0.101  49.991  1.00  0.00     0.150 HD
ENDBRANCH  12  20
ENDBRANCH   5   6
ENDBRANCH   1   5
TORSDOF 5
ENDMDL
MODEL 3
REMARK VINA RESULT:      -6.7      1.997      2.395
REMARK  5 active torsions:
REMARK  status: ('A' for Active; 'I' for Inactive)
REMARK    1  A    between atoms: O1_2  and  C2_3 
REMARK    2  A    between atoms: C3_4  and  C4_5 
REMARK    3  A    between atoms: C5_6  and  O2_7 
REMARK    4  A    between atoms: O2_7  and  C6_8 
REMARK    5  A    between atoms: C16_19  and  N2_20 
ROOT
HETATM    1  C6  UNL     1      23.368   2.596  50.867  1.00  0.00     0.152 C 
HETATM    2  C7  UNL     1      23.492   2.795  49.564  1.00  0.00     0.118 C 
HETATM    3  C8  UNL     1      23.661   4.115  48.990  1.00  0.00     0.089 C 
HETATM    4  N1  UNL     1      23.809   5.172  48.536  1.00  0.00    -0.192 NA
ENDROOT
BRANCH   1   5
HETATM    5  O2  UNL     1      23.209   1.344  51.395  1.00  0.00    -0.326 OA
BRANCH   5   6
HETATM    6  C5  UNL     1      23.606   0.983  52.698  1.00  0.00     0.059 C 
HETATM    7  C4  UNL     1      22.723   0.070  53.160  1.00  0.00    -0.023 C 
HETATM    8  C15 UNL     1      22.845  -0.980  54.240  1.00  0.00     0.068 C 
HETATM    9  C14 UNL     1      24.220  -0.869  54.862  1.00  0.00    -0.013 C 
HETATM   10  C13 UNL     1      25.352  -0.484  54.283  1.00  0.00    -0.039 C 
HETATM   11  C12 UNL     1      26.521   0.187  54.925  1.00  0.00     0.005 C 
HETATM   12  C16 UNL     1      25.860  -0.540  52.842  1.00  0.00     0.115 C 
HETATM   13  C11 UNL     1      27.058   1.008  53.982  1.00  0.00    -0.019 C 
HETATM   14  C10 UNL     1      26.118   0.987  52.787  1.00  0.00     0.041 C 
HETATM   15  C9  UNL     1      24.840   1.721  53.103  1.00  0.00     0.076 C 
BRANCH   7  16
HETATM   16  C3  UNL     1      21.447   0.092  52.519  1.00  0.00     0.034 C 
HETATM   17  C2  UNL     1      20.315  -0.068  53.195  1.00  0.00     0.134 C 
BRANCH  17  18
HETATM   18  O1  UNL     1      19.101  -0.039  52.544  1.00  0.00    -0.368 OA
HETATM   19  C1  UNL     1      18.126  -1.008  52.876  1.00  0.00     0.208 C 
ENDBRANCH  17  18
ENDBRANCH   7  16
BRANCH  12  20
HETATM   20  N2  UNL     1      27.135  -1.177  52.796  1.00  0.00    -0.422 N 
HETATM   21  H17 UNL     1      27.261  -1.978  53.428  1.00  0.00     0.150 HD
HETATM   22  H18 UNL     1      27.545  -1.267  51.850  1.00  0.00     0.150 HD
ENDBRANCH  12  20
ENDBRANCH   5   6
ENDBRANCH   1   5
TORSDOF 5
ENDMDL
MODEL 4
REMARK VINA RESULT:      -6.7      2.459      5.005
REMARK  5 active torsions:
REMARK  status: ('A' for Active; 'I' for Inactive)
REMARK    1  A    between atoms: O1_2  and  C2_3 
REMARK    2  A    between atoms: C3_4  and  C4_5 
REMARK    3  A    between atoms: C5_6  and  O2_7 
REMARK    4  A    between atoms: O2_7  and  C6_8 
REMARK    5  A    between atoms: C16_19  and  N2_20 
ROOT
HETATM    1  C6  UNL     1      25.110   2.958  50.972  1.00  0.00     0.152 C 
HETATM    2  C7  UNL     1      26.390   3.136  50.685  1.00  0.00     0.118 C 
HETATM    3  C8  UNL     1      26.833   3.953  49.573  1.00  0.00     0.089 C 
HETATM    4  N1  UNL     1      27.183   4.618  48.690  1.00  0.00    -0.192 NA
ENDROOT
BRANCH   1   5
HETATM    5  O2  UNL     1      24.707   2.185  52.026  1.00  0.00    -0.326 OA
BRANCH   5   6
HETATM    6  C5  UNL     1      23.708   1.194  51.939  1.00  0.00     0.059 C 
HETATM    7  C4  UNL     1      23.830   0.389  53.018  1.00  0.00    -0.023 C 
HETATM    8  C15 UNL     1      22.838  -0.522  53.701  1.00  0.00     0.068 C 
HETATM    9  C14 UNL     1      21.533  -0.469  52.936  1.00  0.00    -0.013 C 
HETATM   10  C13 UNL     1      21.024   0.552  52.255  1.00  0.00    -0.039 C 
HETATM   11  C12 UNL     1      20.125   0.495  51.064  1.00  0.00     0.005 C 
HETATM   12  C16 UNL     1      21.167   2.070  52.384  1.00  0.00     0.115 C 
HETATM   13  C11 UNL     1      20.432   1.578  50.299  1.00  0.00    -0.019 C 
HETATM   14  C10 UNL     1      21.656   2.231  50.922  1.00  0.00     0.041 C 
HETATM   15  C9  UNL     1      22.881   1.379  50.709  1.00  0.00     0.076 C 
BRANCH   7  16
HETATM   16  C3  UNL     1      25.121   0.397  53.628  1.00  0.00     0.034 C 
HETATM   17  C2  UNL     1      25.483  -0.515  54.524  1.00  0.00     0.134 C 
BRANCH  17  18
HETATM   18  O1  UNL     1      26.738  -0.477  55.092  1.00  0.00    -0.368 OA
HETATM   19  C1  UNL     1      27.756   0.263  54.448  1.00  0.00     0.208 C 
ENDBRANCH  17  18
ENDBRANCH   7  16
BRANCH  12  20
HETATM   20  N2  UNL     1      19.880   2.677  52.460  1.00  0.00    -0.422 N 
HETATM   21  H17 UNL     1      19.122   2.190  51.967  1.00  0.00     0.150 HD
HETATM   22  H18 UNL     1      19.643   3.085  53.382  1.00  0.00     0.150 HD
ENDBRANCH  12  20
ENDBRANCH   5   6
ENDBRANCH   1   5
TORSDOF 5
ENDMDL
MODEL 5
REMARK VINA RESULT:      -6.7      2.220      5.170
REMARK  5 active torsions:
REMARK  status: ('A' for Active; 'I' for Inactive)
REMARK    1  A    between atoms: O1_2  and  C2_3 
REMARK    2  A    between atoms: C3_4  and  C4_5 
REMARK    3  A    between atoms: C5_6  and  O2_7 
REMARK    4  A    between atoms: O2_7  and  C6_8 
REMARK    5  A    between atoms: C16_19  and  N2_20 
ROOT
HETATM    1  C6  UNL     1      27.067   0.668  53.160  1.00  0.00     0.152 C 
HETATM    2  C7  UNL     1      27.580  -0.358  53.820  1.00  0.00     0.118 C 
HETATM    3  C8  UNL     1      28.989  -0.691  53.772  1.00  0.00     0.089 C 
HETATM    4  N1  UNL     1      30.120  -0.946  53.741  1.00  0.00    -0.192 NA
ENDROOT
BRANCH   1   5
HETATM    5  O2  UNL     1      25.735   0.971  53.215  1.00  0.00    -0.326 OA
BRANCH   5   6
HETATM    6  C5  UNL     1      24.933   1.207  52.081  1.00  0.00     0.059 C 
HETATM    7  C4  UNL     1      23.661   0.877  52.398  1.00  0.00    -0.023 C 
HETATM    8  C15 UNL     1      22.340   1.305  51.804  1.00  0.00     0.068 C 
HETATM    9  C14 UNL     1      22.617   2.233  50.641  1.00  0.00    -0.013 C 
HETATM   10  C13 UNL     1      23.633   3.076  50.489  1.00  0.00    -0.039 C 
HETATM   11  C12 UNL     1      24.256   3.530  49.211  1.00  0.00     0.005 C 
HETATM   12  C16 UNL     1      24.521   3.832  51.479  1.00  0.00     0.115 C 
HETATM   13  C11 UNL     1      25.575   3.732  49.477  1.00  0.00    -0.019 C 
HETATM   14  C10 UNL     1      25.825   3.234  50.892  1.00  0.00     0.041 C 
HETATM   15  C9  UNL     1      25.754   1.730  50.948  1.00  0.00     0.076 C 
BRANCH   7  16
HETATM   16  C3  UNL     1      23.534  -0.038  53.488  1.00  0.00     0.034 C 
HETATM   17  C2  UNL     1      22.354  -0.351  54.012  1.00  0.00     0.134 C 
BRANCH  17  18
HETATM   18  O1  UNL     1      22.268  -1.238  55.063  1.00  0.00    -0.368 OA
HETATM   19  C1  UNL     1      23.449  -1.586  55.759  1.00  0.00     0.208 C 
ENDBRANCH  17  18
ENDBRANCH   7  16
BRANCH  12  20
HETATM   20  N2  UNL     1      24.525   5.223  51.168  1.00  0.00    -0.422 N 
HETATM   21  H17 UNL     1      23.675   5.588  50.721  1.00  0.00     0.150 HD
HETATM   22  H18 UNL     1      24.968   5.829  51.882  1.00  0.00     0.150 HD
ENDBRANCH  12  20
ENDBRANCH   5   6
ENDBRANCH   1   5
TORSDOF 5
ENDMDL
MODEL 6
REMARK VINA RESULT:      -6.4      2.850      5.253
REMARK  5 active torsions:
REMARK  status: ('A' for Active; 'I' for Inactive)
REMARK    1  A    between atoms: O1_2  and  C2_3 
REMARK    2  A    between atoms: C3_4  and  C4_5 
REMARK    3  A    between atoms: C5_6  and  O2_7 
REMARK    4  A    between atoms: O2_7  and  C6_8 
REMARK    5  A    between atoms: C16_19  and  N2_20 
ROOT
HETATM    1  C6  UNL     1      26.026   2.303  52.290  1.00  0.00     0.152 C 
HETATM    2  C7  UNL     1      27.139   1.628  52.530  1.00  0.00     0.118 C 
HETATM    3  C8  UNL     1      28.165   2.110  53.432  1.00  0.00     0.089 C 
HETATM    4  N1  UNL     1      28.978   2.493  54.165  1.00  0.00    -0.192 NA
ENDROOT
BRANCH   1   5
HETATM    5  O2  UNL     1      25.066   1.836  51.436  1.00  0.00    -0.326 OA
BRANCH   5   6
HETATM    6  C5  UNL     1      23.923   2.568  51.059  1.00  0.00     0.059 C 
HETATM    7  C4  UNL     1      22.897   2.163  51.842  1.00  0.00    -0.023 C 
HETATM    8  C15 UNL     1      21.603   2.843  52.222  1.00  0.00     0.068 C 
HETATM    9  C14 UNL     1      21.540   4.181  51.518  1.00  0.00    -0.013 C 
HETATM   10  C13 UNL     1      22.549   4.979  51.184  1.00  0.00    -0.039 C 
HETATM   11  C12 UNL     1      22.613   5.934  50.038  1.00  0.00     0.005 C 
HETATM   12  C16 UNL     1      23.946   5.198  51.767  1.00  0.00     0.115 C 
HETATM   13  C11 UNL     1      23.913   5.965  49.637  1.00  0.00    -0.019 C 
HETATM   14  C10 UNL     1      24.647   4.888  50.420  1.00  0.00     0.041 C 
HETATM   15  C9  UNL     1      24.239   3.516  49.949  1.00  0.00     0.076 C 
BRANCH   7  16
HETATM   16  C3  UNL     1      23.058   0.866  52.416  1.00  0.00     0.034 C 
HETATM   17  C2  UNL     1      22.305   0.444  53.427  1.00  0.00     0.134 C 
BRANCH  17  18
HETATM   18  O1  UNL     1      22.487  -0.815  53.956  1.00  0.00    -0.368 OA
HETATM   19  C1  UNL     1      21.351  -1.565  54.339  1.00  0.00     0.208 C 
ENDBRANCH  17  18
ENDBRANCH   7  16
BRANCH  12  20
HETATM   20  N2  UNL     1      24.152   6.583  52.034  1.00  0.00    -0.422 N 
HETATM   21  H17 UNL     1      23.624   7.239  51.445  1.00  0.00     0.150 HD
HETATM   22  H18 UNL     1      24.237   6.828  53.036  1.00  0.00     0.150 HD
ENDBRANCH  12  20
ENDBRANCH   5   6
ENDBRANCH   1   5
TORSDOF 5
ENDMDL
MODEL 7
REMARK VINA RESULT:      -6.4      2.724      4.638
REMARK  5 active torsions:
REMARK  status: ('A' for Active; 'I' for Inactive)
REMARK    1  A    between atoms: O1_2  and  C2_3 
REMARK    2  A    between atoms: C3_4  and  C4_5 
REMARK    3  A    between atoms: C5_6  and  O2_7 
REMARK    4  A    between atoms: O2_7  and  C6_8 
REMARK    5  A    between atoms: C16_19  and  N2_20 
ROOT
HETATM    1  C6  UNL     1      21.658   0.980  53.200  1.00  0.00     0.152 C 
HETATM    2  C7  UNL     1      20.660   0.907  52.334  1.00  0.00     0.118 C 
HETATM    3  C8  UNL     1      19.519   0.034  52.530  1.00  0.00     0.089 C 
HETATM    4  N1  UNL     1      18.602  -0.655  52.698  1.00  0.00    -0.192 NA
ENDROOT
BRANCH   1   5
HETATM    5  O2  UNL     1      22.728   1.808  53.002  1.00  0.00    -0.326 OA
BRANCH   5   6
HETATM    6  C5  UNL     1      23.893   1.436  52.303  1.00  0.00     0.059 C 
HETATM    7  C4  UNL     1      24.266   2.483  51.534  1.00  0.00    -0.023 C 
HETATM    8  C15 UNL     1      25.601   2.859  50.937  1.00  0.00     0.068 C 
HETATM    9  C14 UNL     1      26.606   1.787  51.300  1.00  0.00    -0.013 C 
HETATM   10  C13 UNL     1      26.640   1.033  52.393  1.00  0.00    -0.039 C 
HETATM   11  C12 UNL     1      27.188  -0.349  52.530  1.00  0.00     0.005 C 
HETATM   12  C16 UNL     1      26.145   1.245  53.825  1.00  0.00     0.115 C 
HETATM   13  C11 UNL     1      26.424  -0.974  53.467  1.00  0.00    -0.019 C 
HETATM   14  C10 UNL     1      25.274  -0.037  53.801  1.00  0.00     0.041 C 
HETATM   15  C9  UNL     1      24.301   0.042  52.652  1.00  0.00     0.076 C 
BRANCH   7  16
HETATM   16  C3  UNL     1      23.217   3.403  51.227  1.00  0.00     0.034 C 
HETATM   17  C2  UNL     1      22.691   3.493  50.009  1.00  0.00     0.134 C 
BRANCH  17  18
HETATM   18  O1  UNL     1      21.680   4.391  49.749  1.00  0.00    -0.368 OA
HETATM   19  C1  UNL     1      20.383   4.120  50.242  1.00  0.00     0.208 C 
ENDBRANCH  17  18
ENDBRANCH   7  16
BRANCH  12  20
HETATM   20  N2  UNL     1      27.204   1.009  54.749  1.00  0.00    -0.422 N 
HETATM   21  H17 UNL     1      27.272   0.055  55.123  1.00  0.00     0.150 HD
HETATM   22  H18 UNL     1      28.098   1.479  54.519  1.00  0.00     0.150 HD
ENDBRANCH  12  20
ENDBRANCH   5   6
ENDBRANCH   1   5
TORSDOF 5
ENDMDL
MODEL 8
REMARK VINA RESULT:      -6.3      3.281      4.803
REMARK  5 active torsions:
REMARK  status: ('A' for Active; 'I' for Inactive)
REMARK    1  A    between atoms: O1_2  and  C2_3 
REMARK    2  A    between atoms: C3_4  and  C4_5 
REMARK    3  A    between atoms: C5_6  and  O2_7 
REMARK    4  A    between atoms: O2_7  and  C6_8 
REMARK    5  A    between atoms: C16_19  and  N2_20 
ROOT
HETATM    1  C6  UNL     1      21.877   3.637  52.278  1.00  0.00     0.152 C 
HETATM    2  C7  UNL     1      20.904   3.897  51.419  1.00  0.00     0.118 C 
HETATM    3  C8  UNL     1      19.511   3.624  51.712  1.00  0.00     0.089 C 
HETATM    4  N1  UNL     1      18.396   3.416  51.956  1.00  0.00    -0.192 NA
ENDROOT
BRANCH   1   5
HETATM    5  O2  UNL     1      23.187   3.901  51.989  1.00  0.00    -0.326 OA
BRANCH   5   6
HETATM    6  C5  UNL     1      24.109   2.928  51.554  1.00  0.00     0.059 C 
HETATM    7  C4  UNL     1      25.009   3.540  50.753  1.00  0.00    -0.023 C 
HETATM    8  C15 UNL     1      26.420   3.165  50.366  1.00  0.00     0.068 C 
HETATM    9  C14 UNL     1      26.759   1.842  51.018  1.00  0.00    -0.013 C 
HETATM   10  C13 UNL     1      26.317   1.362  52.175  1.00  0.00    -0.039 C 
HETATM   11  C12 UNL     1      26.133  -0.070  52.557  1.00  0.00     0.005 C 
HETATM   12  C16 UNL     1      25.829   2.026  53.464  1.00  0.00     0.115 C 
HETATM   13  C11 UNL     1      25.070  -0.107  53.406  1.00  0.00    -0.019 C 
HETATM   14  C10 UNL     1      24.466   1.288  53.425  1.00  0.00     0.041 C 
HETATM   15  C9  UNL     1      23.774   1.586  52.120  1.00  0.00     0.076 C 
BRANCH   7  16
HETATM   16  C3  UNL     1      24.555   4.760  50.165  1.00  0.00     0.034 C 
HETATM   17  C2  UNL     1      24.005   4.799  48.956  1.00  0.00     0.134 C 
BRANCH  17  18
HETATM   18  O1  UNL     1      23.577   5.994  48.421  1.00  0.00    -0.368 OA
HETATM   19  C1  UNL     1      23.172   7.028  49.297  1.00  0.00     0.208 C 
ENDBRANCH  17  18
ENDBRANCH   7  16
BRANCH  12  20
HETATM   20  N2  UNL     1      26.548   1.511  54.582  1.00  0.00    -0.422 N 
HETATM   21  H17 UNL     1      27.553   1.721  54.607  1.00  0.00     0.150 HD
HETATM   22  H18 UNL     1      26.044   1.559  55.486  1.00  0.00     0.150 HD
ENDBRANCH  12  20
ENDBRANCH   5   6
ENDBRANCH   1   5
TORSDOF 5
ENDMDL
MODEL 9
REMARK VINA RESULT:      -6.3      2.869      5.171
REMARK  5 active torsions:
REMARK  status: ('A' for Active; 'I' for Inactive)
REMARK    1  A    between atoms: O1_2  and  C2_3 
REMARK    2  A    between atoms: C3_4  and  C4_5 
REMARK    3  A    between atoms: C5_6  and  O2_7 
REMARK    4  A    between atoms: O2_7  and  C6_8 
REMARK    5  A    between atoms: C16_19  and  N2_20 
ROOT
HETATM    1  C6  UNL     1      23.167   1.935  50.893  1.00  0.00     0.152 C 
HETATM    2  C7  UNL     1      23.719   2.839  50.098  1.00  0.00     0.118 C 
HETATM    3  C8  UNL     1      23.080   3.304  48.884  1.00  0.00     0.089 C 
HETATM    4  N1  UNL     1      22.560   3.684  47.920  1.00  0.00    -0.192 NA
ENDROOT
BRANCH   1   5
HETATM    5  O2  UNL     1      23.782   1.505  52.036  1.00  0.00    -0.326 OA
BRANCH   5   6
HETATM    6  C5  UNL     1      23.469   0.298  52.692  1.00  0.00     0.059 C 
HETATM    7  C4  UNL     1      24.490   0.007  53.529  1.00  0.00    -0.023 C 
HETATM    8  C15 UNL     1      24.551  -0.855  54.768  1.00  0.00     0.068 C 
HETATM    9  C14 UNL     1      23.187  -1.472  54.989  1.00  0.00    -0.013 C 
HETATM   10  C13 UNL     1      21.998  -0.964  54.681  1.00  0.00    -0.039 C 
HETATM   11  C12 UNL     1      20.753  -1.709  54.330  1.00  0.00     0.005 C 
HETATM   12  C16 UNL     1      21.477   0.467  54.543  1.00  0.00     0.115 C 
HETATM   13  C11 UNL     1      20.078  -0.932  53.439  1.00  0.00    -0.019 C 
HETATM   14  C10 UNL     1      20.988   0.236  53.090  1.00  0.00     0.041 C 
HETATM   15  C9  UNL     1      22.145  -0.226  52.241  1.00  0.00     0.076 C 
BRANCH   7  16
HETATM   16  C3  UNL     1      25.735   0.619  53.191  1.00  0.00     0.034 C 
HETATM   17  C2  UNL     1      26.897   0.140  53.622  1.00  0.00     0.134 C 
BRANCH  17  18
HETATM   18  O1  UNL     1      28.079   0.755  53.275  1.00  0.00    -0.368 OA
HETATM   19  C1  UNL     1      29.202   0.604  54.122  1.00  0.00     0.208 C 
ENDBRANCH  17  18
ENDBRANCH   7  16
BRANCH  12  20
HETATM   20  N2  UNL     1      20.315   0.645  55.348  1.00  0.00    -0.422 N 
HETATM   21  H17 UNL     1      20.010   1.615  55.493  1.00  0.00     0.150 HD
HETATM   22  H18 UNL     1      19.567  -0.056  55.198  1.00  0.00     0.150 HD
ENDBRANCH  12  20
ENDBRANCH   5   6
ENDBRANCH   1   5
TORSDOF 5
ENDMDL
