MODEL 1
REMARK VINA RESULT:      -6.3      0.000      0.000
REMARK  6 active torsions:
REMARK  status: ('A' for Active; 'I' for Inactive)
REMARK    1  A    between atoms: C2_2  and  O1_3 
REMARK    2  A    between atoms: O1_3  and  C3_4 
REMARK    3  A    between atoms: C4_5  and  O2_6 
REMARK    4  A    between atoms: N2_13  and  C10_14 
REMARK    5  A    between atoms: C14_18  and  N3_19 
REMARK    6  A    between atoms: C14_18  and  O3_20 
ROOT
HETATM    1  C3  UNL     1      23.093   1.306  53.020  1.00  0.00     0.184 C 
HETATM    2  C4  UNL     1      21.756   1.451  52.976  1.00  0.00     0.119 C 
HETATM    3  C6  UNL     1      20.711   0.658  53.616  1.00  0.00     0.039 C 
HETATM    4  C7  UNL     1      20.643  -0.570  54.108  1.00  0.00    -0.002 C 
HETATM    5  C8  UNL     1      21.496  -1.773  54.292  1.00  0.00     0.177 C 
HETATM    6  N1  UNL     1      22.799  -1.470  54.846  1.00  0.00    -0.281 NA
HETATM    7  C9  UNL     1      23.770  -0.650  54.618  1.00  0.00     0.211 C 
HETATM    8  N2  UNL     1      24.017   0.392  53.656  1.00  0.00    -0.283 N 
ENDROOT
BRANCH   8   9
HETATM    9  C10 UNL     1      25.362   0.529  53.294  1.00  0.00     0.089 A 
HETATM   10  C11 UNL     1      25.676  -0.049  52.128  1.00  0.00     0.031 A 
HETATM   11  C12 UNL     1      27.095   0.158  51.855  1.00  0.00     0.003 A 
HETATM   12  C13 UNL     1      27.605   0.854  52.859  1.00  0.00     0.050 A 
HETATM   13  C14 UNL     1      26.564   1.170  53.889  1.00  0.00     0.319 A 
BRANCH  13  14
HETATM   14  N3  UNL     1      26.378   2.605  53.827  1.00  0.00     0.124 N 
HETATM   15  H17 UNL     1      27.327   3.024  53.588  1.00  0.00     0.317 HD
HETATM   16  H18 UNL     1      25.835   2.763  52.924  1.00  0.00     0.317 HD
ENDBRANCH  13  14
BRANCH  13  17
HETATM   17  O3  UNL     1      26.880   0.695  55.127  1.00  0.00    -0.350 OA
HETATM   18  C15 UNL     1      28.169   0.158  55.202  1.00  0.00     0.205 C 
ENDBRANCH  13  17
ENDBRANCH   8   9
BRANCH   1  19
HETATM   19  O1  UNL     1      23.744   2.239  52.293  1.00  0.00    -0.334 OA
BRANCH  19  20
HETATM   20  C2  UNL     1      23.818   2.587  50.980  1.00  0.00     0.173 C 
HETATM   21  C1  UNL     1      25.127   3.292  50.605  1.00  0.00     0.034 C 
ENDBRANCH  19  20
ENDBRANCH   1  19
BRANCH   2  22
HETATM   22  O2  UNL     1      21.372   2.530  52.190  1.00  0.00    -0.352 OA
HETATM   23  C5  UNL     1      19.993   2.844  52.136  1.00  0.00     0.210 C 
ENDBRANCH   2  22
TORSDOF 6
ENDMDL
MODEL 2
REMARK VINA RESULT:      -6.1      2.076      4.643
REMARK  6 active torsions:
REMARK  status: ('A' for Active; 'I' for Inactive)
REMARK    1  A    between atoms: C2_2  and  O1_3 
REMARK    2  A    between atoms: O1_3  and  C3_4 
REMARK    3  A    between atoms: C4_5  and  O2_6 
REMARK    4  A    between atoms: N2_13  and  C10_14 
REMARK    5  A    between atoms: C14_18  and  N3_19 
REMARK    6  A    between atoms: C14_18  and  O3_20 
ROOT
HETATM    1  C3  UNL     1      23.545   1.242  52.925  1.00  0.00     0.184 C 
HETATM    2  C4  UNL     1      23.457  -0.002  53.431  1.00  0.00     0.119 C 
HETATM    3  C6  UNL     1      24.374  -0.716  54.314  1.00  0.00     0.039 C 
HETATM    4  C7  UNL     1      25.658  -0.597  54.617  1.00  0.00    -0.002 C 
HETATM    5  C8  UNL     1      26.835   0.247  54.281  1.00  0.00     0.177 C 
HETATM    6  N1  UNL     1      26.548   1.666  54.314  1.00  0.00    -0.281 NA
HETATM    7  C9  UNL     1      25.662   2.476  53.838  1.00  0.00     0.211 C 
HETATM    8  N2  UNL     1      24.492   2.332  53.013  1.00  0.00    -0.283 N 
ENDROOT
BRANCH   8   9
HETATM    9  C10 UNL     1      24.247   3.425  52.174  1.00  0.00     0.089 A 
HETATM   10  C11 UNL     1      23.554   4.415  52.751  1.00  0.00     0.031 A 
HETATM   11  C12 UNL     1      23.360   5.493  51.788  1.00  0.00     0.003 A 
HETATM   12  C13 UNL     1      23.939   5.133  50.652  1.00  0.00     0.050 A 
HETATM   13  C14 UNL     1      24.567   3.779  50.766  1.00  0.00     0.319 A 
BRANCH  13  14
HETATM   14  N3  UNL     1      25.996   4.004  50.680  1.00  0.00     0.124 N 
HETATM   15  H17 UNL     1      26.424   3.567  51.552  1.00  0.00     0.317 HD
HETATM   16  H18 UNL     1      26.324   3.338  49.917  1.00  0.00     0.317 HD
ENDBRANCH  13  14
BRANCH  13  17
HETATM   17  O3  UNL     1      24.081   2.889  49.855  1.00  0.00    -0.350 OA
HETATM   18  C15 UNL     1      23.387   3.495  48.804  1.00  0.00     0.205 C 
ENDBRANCH  13  17
ENDBRANCH   8   9
BRANCH   1  19
HETATM   19  O1  UNL     1      22.496   1.561  52.138  1.00  0.00    -0.334 OA
BRANCH  19  20
HETATM   20  C2  UNL     1      21.200   1.924  52.328  1.00  0.00     0.173 C 
HETATM   21  C1  UNL     1      20.620   2.757  51.178  1.00  0.00     0.034 C 
ENDBRANCH  19  20
ENDBRANCH   1  19
BRANCH   2  22
HETATM   22  O2  UNL     1      22.303  -0.655  53.019  1.00  0.00    -0.352 OA
HETATM   23  C5  UNL     1      21.622  -1.448  53.972  1.00  0.00     0.210 C 
ENDBRANCH   2  22
TORSDOF 6
ENDMDL
MODEL 3
REMARK VINA RESULT:      -6.1      2.744      5.457
REMARK  6 active torsions:
REMARK  status: ('A' for Active; 'I' for Inactive)
REMARK    1  A    between atoms: C2_2  and  O1_3 
REMARK    2  A    between atoms: O1_3  and  C3_4 
REMARK    3  A    between atoms: C4_5  and  O2_6 
REMARK    4  A    between atoms: N2_13  and  C10_14 
REMARK    5  A    between atoms: C14_18  and  N3_19 
REMARK    6  A    between atoms: C14_18  and  O3_20 
ROOT
HETATM    1  C3  UNL     1      25.364   2.495  51.248  1.00  0.00     0.184 C 
HETATM    2  C4  UNL     1      26.207   1.745  51.982  1.00  0.00     0.119 C 
HETATM    3  C6  UNL     1      25.944   0.533  52.753  1.00  0.00     0.039 C 
HETATM    4  C7  UNL     1      24.862  -0.018  53.283  1.00  0.00    -0.002 C 
HETATM    5  C8  UNL     1      23.401   0.229  53.407  1.00  0.00     0.177 C 
HETATM    6  N1  UNL     1      22.776   0.596  52.154  1.00  0.00    -0.281 NA
HETATM    7  C9  UNL     1      22.973   1.438  51.195  1.00  0.00     0.211 C 
HETATM    8  N2  UNL     1      23.956   2.452  50.917  1.00  0.00    -0.283 N 
ENDROOT
BRANCH   8   9
HETATM    9  C10 UNL     1      23.457   3.557  50.219  1.00  0.00     0.089 A 
HETATM   10  C11 UNL     1      23.370   3.376  48.896  1.00  0.00     0.031 A 
HETATM   11  C12 UNL     1      22.840   4.586  48.277  1.00  0.00     0.003 A 
HETATM   12  C13 UNL     1      22.617   5.470  49.238  1.00  0.00     0.050 A 
HETATM   13  C14 UNL     1      22.984   4.919  50.581  1.00  0.00     0.319 A 
BRANCH  13  14
HETATM   14  N3  UNL     1      21.733   4.777  51.299  1.00  0.00     0.124 N 
HETATM   15  H17 UNL     1      21.614   5.662  51.879  1.00  0.00     0.317 HD
HETATM   16  H18 UNL     1      20.984   4.903  50.552  1.00  0.00     0.317 HD
ENDBRANCH  13  14
BRANCH  13  17
HETATM   17  O3  UNL     1      23.922   5.669  51.226  1.00  0.00    -0.350 OA
HETATM   18  C15 UNL     1      23.862   7.028  50.902  1.00  0.00     0.205 C 
ENDBRANCH  13  17
ENDBRANCH   8   9
BRANCH   1  19
HETATM   19  O1  UNL     1      25.974   3.553  50.673  1.00  0.00    -0.334 OA
BRANCH  19  20
HETATM   20  C2  UNL     1      26.746   3.765  49.574  1.00  0.00     0.173 C 
HETATM   21  C1  UNL     1      26.605   5.174  48.986  1.00  0.00     0.034 C 
ENDBRANCH  19  20
ENDBRANCH   1  19
BRANCH   2  22
HETATM   22  O2  UNL     1      27.501   2.245  51.969  1.00  0.00    -0.352 OA
HETATM   23  C5  UNL     1      28.222   2.233  53.186  1.00  0.00     0.210 C 
ENDBRANCH   2  22
TORSDOF 6
ENDMDL
MODEL 4
REMARK VINA RESULT:      -5.8      2.262      5.013
REMARK  6 active torsions:
REMARK  status: ('A' for Active; 'I' for Inactive)
REMARK    1  A    between atoms: C2_2  and  O1_3 
REMARK    2  A    between atoms: O1_3  and  C3_4 
REMARK    3  A    between atoms: C4_5  and  O2_6 
REMARK    4  A    between atoms: N2_13  and  C10_14 
REMARK    5  A    between atoms: C14_18  and  N3_19 
REMARK    6  A    between atoms: C14_18  and  O3_20 
ROOT
HETATM    1  C3  UNL     1      23.457   1.292  52.645  1.00  0.00     0.184 C 
HETATM    2  C4  UNL     1      23.640   0.208  53.422  1.00  0.00     0.119 C 
HETATM    3  C6  UNL     1      24.867  -0.521  53.731  1.00  0.00     0.039 C 
HETATM    4  C7  UNL     1      26.054  -0.634  53.153  1.00  0.00    -0.002 C 
HETATM    5  C8  UNL     1      26.793  -0.143  51.960  1.00  0.00     0.177 C 
HETATM    6  N1  UNL     1      26.675   1.287  51.765  1.00  0.00    -0.281 NA
HETATM    7  C9  UNL     1      25.738   2.173  51.716  1.00  0.00     0.211 C 
HETATM    8  N2  UNL     1      24.304   2.146  51.840  1.00  0.00    -0.283 N 
ENDROOT
BRANCH   8   9
HETATM    9  C10 UNL     1      23.644   3.098  51.055  1.00  0.00     0.089 A 
HETATM   10  C11 UNL     1      23.349   2.679  49.818  1.00  0.00     0.031 A 
HETATM   11  C12 UNL     1      22.667   3.748  49.097  1.00  0.00     0.003 A 
HETATM   12  C13 UNL     1      22.564   4.787  49.912  1.00  0.00     0.050 A 
HETATM   13  C14 UNL     1      23.173   4.495  51.248  1.00  0.00     0.319 A 
BRANCH  13  14
HETATM   14  N3  UNL     1      22.066   4.463  52.183  1.00  0.00     0.124 N 
HETATM   15  H17 UNL     1      21.177   4.416  51.598  1.00  0.00     0.317 HD
HETATM   16  H18 UNL     1      22.103   3.486  52.605  1.00  0.00     0.317 HD
ENDBRANCH  13  14
BRANCH  13  17
HETATM   17  O3  UNL     1      24.167   5.365  51.582  1.00  0.00    -0.350 OA
HETATM   18  C15 UNL     1      23.972   6.652  51.070  1.00  0.00     0.205 C 
ENDBRANCH  13  17
ENDBRANCH   8   9
BRANCH   1  19
HETATM   19  O1  UNL     1      22.168   1.688  52.597  1.00  0.00    -0.334 OA
BRANCH  19  20
HETATM   20  C2  UNL     1      20.983   1.134  52.228  1.00  0.00     0.173 C 
HETATM   21  C1  UNL     1      21.044   0.387  50.890  1.00  0.00     0.034 C 
ENDBRANCH  19  20
ENDBRANCH   1  19
BRANCH   2  22
HETATM   22  O2  UNL     1      22.453  -0.238  53.987  1.00  0.00    -0.352 OA
HETATM   23  C5  UNL     1      22.534  -1.264  54.958  1.00  0.00     0.210 C 
ENDBRANCH   2  22
TORSDOF 6
ENDMDL
MODEL 5
REMARK VINA RESULT:      -5.6      2.366      5.351
REMARK  6 active torsions:
REMARK  status: ('A' for Active; 'I' for Inactive)
REMARK    1  A    between atoms: C2_2  and  O1_3 
REMARK    2  A    between atoms: O1_3  and  C3_4 
REMARK    3  A    between atoms: C4_5  and  O2_6 
REMARK    4  A    between atoms: N2_13  and  C10_14 
REMARK    5  A    between atoms: C14_18  and  N3_19 
REMARK    6  A    between atoms: C14_18  and  O3_20 
ROOT
HETATM    1  C3  UNL     1      25.269   2.004  51.764  1.00  0.00     0.184 C 
HETATM    2  C4  UNL     1      26.322   1.359  52.300  1.00  0.00     0.119 C 
HETATM    3  C6  UNL     1      26.364   0.106  53.048  1.00  0.00     0.039 C 
HETATM    4  C7  UNL     1      25.479  -0.599  53.737  1.00  0.00    -0.002 C 
HETATM    5  C8  UNL     1      24.047  -0.555  54.133  1.00  0.00     0.177 C 
HETATM    6  N1  UNL     1      23.159  -0.248  53.031  1.00  0.00    -0.281 NA
HETATM    7  C9  UNL     1      23.066   0.634  52.093  1.00  0.00     0.211 C 
HETATM    8  N2  UNL     1      23.842   1.777  51.690  1.00  0.00    -0.283 N 
ENDROOT
BRANCH   8   9
HETATM    9  C10 UNL     1      23.083   2.820  51.146  1.00  0.00     0.089 A 
HETATM   10  C11 UNL     1      23.018   3.911  51.920  1.00  0.00     0.031 A 
HETATM   11  C12 UNL     1      22.207   4.926  51.255  1.00  0.00     0.003 A 
HETATM   12  C13 UNL     1      21.801   4.427  50.097  1.00  0.00     0.050 A 
HETATM   13  C14 UNL     1      22.310   3.033  49.895  1.00  0.00     0.319 A 
BRANCH  13  14
HETATM   14  N3  UNL     1      23.254   3.118  48.799  1.00  0.00     0.124 N 
HETATM   15  H17 UNL     1      24.018   3.792  49.109  1.00  0.00     0.317 HD
HETATM   16  H18 UNL     1      23.765   2.183  48.818  1.00  0.00     0.317 HD
ENDBRANCH  13  14
BRANCH  13  17
HETATM   17  O3  UNL     1      21.311   2.124  49.709  1.00  0.00    -0.350 OA
HETATM   18  C15 UNL     1      21.552   1.245  48.650  1.00  0.00     0.205 C 
ENDBRANCH  13  17
ENDBRANCH   8   9
BRANCH   1  19
HETATM   19  O1  UNL     1      25.620   3.147  51.139  1.00  0.00    -0.334 OA
BRANCH  19  20
HETATM   20  C2  UNL     1      26.353   3.484  50.045  1.00  0.00     0.173 C 
HETATM   21  C1  UNL     1      26.091   4.910  49.544  1.00  0.00     0.034 C 
ENDBRANCH  19  20
ENDBRANCH   1  19
BRANCH   2  22
HETATM   22  O2  UNL     1      27.516   2.030  52.077  1.00  0.00    -0.352 OA
HETATM   23  C5  UNL     1      28.350   2.273  53.194  1.00  0.00     0.210 C 
ENDBRANCH   2  22
TORSDOF 6
ENDMDL
MODEL 6
REMARK VINA RESULT:      -5.4      9.356     11.170
REMARK  6 active torsions:
REMARK  status: ('A' for Active; 'I' for Inactive)
REMARK    1  A    between atoms: C2_2  and  O1_3 
REMARK    2  A    between atoms: O1_3  and  C3_4 
REMARK    3  A    between atoms: C4_5  and  O2_6 
REMARK    4  A    between atoms: N2_13  and  C10_14 
REMARK    5  A    between atoms: C14_18  and  N3_19 
REMARK    6  A    between atoms: C14_18  and  O3_20 
ROOT
HETATM    1  C3  UNL     1      31.124   7.836  48.508  1.00  0.00     0.184 C 
HETATM    2  C4  UNL     1      30.375   8.829  49.022  1.00  0.00     0.119 C 
HETATM    3  C6  UNL     1      28.942   8.866  49.301  1.00  0.00     0.039 C 
HETATM    4  C7  UNL     1      27.891   8.186  48.869  1.00  0.00    -0.002 C 
HETATM    5  C8  UNL     1      27.553   7.083  47.931  1.00  0.00     0.177 C 
HETATM    6  N1  UNL     1      28.420   5.932  48.068  1.00  0.00    -0.281 NA
HETATM    7  C9  UNL     1      29.687   5.687  48.114  1.00  0.00     0.211 C 
HETATM    8  N2  UNL     1      30.882   6.487  48.044  1.00  0.00    -0.283 N 
ENDROOT
BRANCH   8   9
HETATM    9  C10 UNL     1      31.964   5.846  47.431  1.00  0.00     0.089 A 
HETATM   10  C11 UNL     1      32.174   6.218  46.162  1.00  0.00     0.031 A 
HETATM   11  C12 UNL     1      33.320   5.489  45.630  1.00  0.00     0.003 A 
HETATM   12  C13 UNL     1      33.778   4.696  46.586  1.00  0.00     0.050 A 
HETATM   13  C14 UNL     1      32.969   4.830  47.839  1.00  0.00     0.319 A 
BRANCH  13  14
HETATM   14  N3  UNL     1      33.853   5.445  48.809  1.00  0.00     0.124 N 
HETATM   15  H17 UNL     1      33.362   5.378  49.751  1.00  0.00     0.317 HD
HETATM   16  H18 UNL     1      34.648   4.745  48.925  1.00  0.00     0.317 HD
ENDBRANCH  13  14
BRANCH  13  17
HETATM   17  O3  UNL     1      32.419   3.651  48.246  1.00  0.00    -0.350 OA
HETATM   18  C15 UNL     1      33.139   2.529  47.824  1.00  0.00     0.205 C 
ENDBRANCH  13  17
ENDBRANCH   8   9
BRANCH   1  19
HETATM   19  O1  UNL     1      32.426   8.171  48.392  1.00  0.00    -0.334 OA
BRANCH  19  20
HETATM   20  C2  UNL     1      33.158   9.018  47.621  1.00  0.00     0.173 C 
HETATM   21  C1  UNL     1      34.661   8.710  47.625  1.00  0.00     0.034 C 
ENDBRANCH  19  20
ENDBRANCH   1  19
BRANCH   2  22
HETATM   22  O2  UNL     1      31.128   9.959  49.308  1.00  0.00    -0.352 OA
HETATM   23  C5  UNL     1      30.526  11.221  49.090  1.00  0.00     0.210 C 
ENDBRANCH   2  22
TORSDOF 6
ENDMDL
MODEL 7
REMARK VINA RESULT:      -5.3     10.359     12.555
REMARK  6 active torsions:
REMARK  status: ('A' for Active; 'I' for Inactive)
REMARK    1  A    between atoms: C2_2  and  O1_3 
REMARK    2  A    between atoms: O1_3  and  C3_4 
REMARK    3  A    between atoms: C4_5  and  O2_6 
REMARK    4  A    between atoms: N2_13  and  C10_14 
REMARK    5  A    between atoms: C14_18  and  N3_19 
REMARK    6  A    between atoms: C14_18  and  O3_20 
ROOT
HETATM    1  C3  UNL     1      32.825   6.022  46.017  1.00  0.00     0.184 C 
HETATM    2  C4  UNL     1      33.851   5.593  45.259  1.00  0.00     0.119 C 
HETATM    3  C6  UNL     1      34.654   4.379  45.379  1.00  0.00     0.039 C 
HETATM    4  C7  UNL     1      34.916   3.528  46.359  1.00  0.00    -0.002 C 
HETATM    5  C8  UNL     1      34.591   3.305  47.793  1.00  0.00     0.177 C 
HETATM    6  N1  UNL     1      33.178   3.426  48.084  1.00  0.00    -0.281 NA
HETATM    7  C9  UNL     1      32.222   4.264  47.858  1.00  0.00     0.211 C 
HETATM    8  N2  UNL     1      32.117   5.529  47.179  1.00  0.00    -0.283 N 
ENDROOT
BRANCH   8   9
HETATM    9  C10 UNL     1      31.181   6.404  47.742  1.00  0.00     0.089 A 
HETATM   10  C11 UNL     1      29.915   6.159  47.379  1.00  0.00     0.031 A 
HETATM   11  C12 UNL     1      29.033   7.127  48.023  1.00  0.00     0.003 A 
HETATM   12  C13 UNL     1      29.783   7.933  48.759  1.00  0.00     0.050 A 
HETATM   13  C14 UNL     1      31.232   7.568  48.665  1.00  0.00     0.319 A 
BRANCH  13  14
HETATM   14  N3  UNL     1      31.596   7.075  49.979  1.00  0.00     0.124 N 
HETATM   15  H17 UNL     1      32.644   7.234  50.082  1.00  0.00     0.317 HD
HETATM   16  H18 UNL     1      31.197   7.798  50.652  1.00  0.00     0.317 HD
ENDBRANCH  13  14
BRANCH  13  17
HETATM   17  O3  UNL     1      32.010   8.591  48.211  1.00  0.00    -0.350 OA
HETATM   18  C15 UNL     1      31.406   9.845  48.340  1.00  0.00     0.205 C 
ENDBRANCH  13  17
ENDBRANCH   8   9
BRANCH   1  19
HETATM   19  O1  UNL     1      32.325   7.203  45.599  1.00  0.00    -0.334 OA
BRANCH  19  20
HETATM   20  C2  UNL     1      31.578   7.638  44.550  1.00  0.00     0.173 C 
HETATM   21  C1  UNL     1      30.697   8.849  44.883  1.00  0.00     0.034 C 
ENDBRANCH  19  20
ENDBRANCH   1  19
BRANCH   2  22
HETATM   22  O2  UNL     1      34.146   6.475  44.229  1.00  0.00    -0.352 OA
HETATM   23  C5  UNL     1      34.713   5.938  43.049  1.00  0.00     0.210 C 
ENDBRANCH   2  22
TORSDOF 6
ENDMDL
MODEL 8
REMARK VINA RESULT:      -5.2      8.690     11.674
REMARK  6 active torsions:
REMARK  status: ('A' for Active; 'I' for Inactive)
REMARK    1  A    between atoms: C2_2  and  O1_3 
REMARK    2  A    between atoms: O1_3  and  C3_4 
REMARK    3  A    between atoms: C4_5  and  O2_6 
REMARK    4  A    between atoms: N2_13  and  C10_14 
REMARK    5  A    between atoms: C14_18  and  N3_19 
REMARK    6  A    between atoms: C14_18  and  O3_20 
ROOT
HETATM    1  C3  UNL     1      30.156   7.307  48.134  1.00  0.00     0.184 C 
HETATM    2  C4  UNL     1      29.960   5.986  48.303  1.00  0.00     0.119 C 
HETATM    3  C6  UNL     1      28.714   5.225  48.325  1.00  0.00     0.039 C 
HETATM    4  C7  UNL     1      27.443   5.525  48.546  1.00  0.00    -0.002 C 
HETATM    5  C8  UNL     1      26.588   6.696  48.874  1.00  0.00     0.177 C 
HETATM    6  N1  UNL     1      26.866   7.854  48.050  1.00  0.00    -0.281 NA
HETATM    7  C9  UNL     1      27.895   8.539  47.677  1.00  0.00     0.211 C 
HETATM    8  N2  UNL     1      29.312   8.462  47.920  1.00  0.00    -0.283 N 
ENDROOT
BRANCH   8   9
HETATM    9  C10 UNL     1      29.954   9.705  47.951  1.00  0.00     0.089 A 
HETATM   10  C11 UNL     1      30.058  10.238  49.174  1.00  0.00     0.031 A 
HETATM   11  C12 UNL     1      30.741  11.525  49.084  1.00  0.00     0.003 A 
HETATM   12  C13 UNL     1      31.035  11.740  47.811  1.00  0.00     0.050 A 
HETATM   13  C14 UNL     1      30.569  10.611  46.945  1.00  0.00     0.319 A 
BRANCH  13  14
HETATM   14  N3  UNL     1      31.774   9.973  46.454  1.00  0.00     0.124 N 
HETATM   15  H17 UNL     1      32.523  10.128  47.195  1.00  0.00     0.317 HD
HETATM   16  H18 UNL     1      31.581   8.931  46.550  1.00  0.00     0.317 HD
ENDBRANCH  13  14
BRANCH  13  17
HETATM   17  O3  UNL     1      29.705  11.010  45.969  1.00  0.00    -0.350 OA
HETATM   18  C15 UNL     1      29.834  10.282  44.783  1.00  0.00     0.205 C 
ENDBRANCH  13  17
ENDBRANCH   8   9
BRANCH   1  19
HETATM   19  O1  UNL     1      31.461   7.650  48.174  1.00  0.00    -0.334 OA
BRANCH  19  20
HETATM   20  C2  UNL     1      32.432   7.715  49.124  1.00  0.00     0.173 C 
HETATM   21  C1  UNL     1      33.851   7.796  48.548  1.00  0.00     0.034 C 
ENDBRANCH  19  20
ENDBRANCH   1  19
BRANCH   2  22
HETATM   22  O2  UNL     1      31.152   5.297  48.476  1.00  0.00    -0.352 OA
HETATM   23  C5  UNL     1      31.567   4.432  47.437  1.00  0.00     0.210 C 
ENDBRANCH   2  22
TORSDOF 6
ENDMDL
MODEL 9
REMARK VINA RESULT:      -5.2      2.893      4.763
REMARK  6 active torsions:
REMARK  status: ('A' for Active; 'I' for Inactive)
REMARK    1  A    between atoms: C2_2  and  O1_3 
REMARK    2  A    between atoms: O1_3  and  C3_4 
REMARK    3  A    between atoms: C4_5  and  O2_6 
REMARK    4  A    between atoms: N2_13  and  C10_14 
REMARK    5  A    between atoms: C14_18  and  N3_19 
REMARK    6  A    between atoms: C14_18  and  O3_20 
ROOT
HETATM    1  C3  UNL     1      20.816   0.963  52.227  1.00  0.00     0.184 C 
HETATM    2  C4  UNL     1      20.301   0.076  53.100  1.00  0.00     0.119 C 
HETATM    3  C6  UNL     1      20.960  -0.665  54.172  1.00  0.00     0.039 C 
HETATM    4  C7  UNL     1      22.211  -1.011  54.433  1.00  0.00    -0.002 C 
HETATM    5  C8  UNL     1      23.575  -0.875  53.858  1.00  0.00     0.177 C 
HETATM    6  N1  UNL     1      23.886   0.475  53.438  1.00  0.00    -0.281 NA
HETATM    7  C9  UNL     1      23.345   1.405  52.723  1.00  0.00     0.211 C 
HETATM    8  N2  UNL     1      22.122   1.531  51.975  1.00  0.00    -0.283 N 
ENDROOT
BRANCH   8   9
HETATM    9  C10 UNL     1      22.232   2.330  50.831  1.00  0.00     0.089 A 
HETATM   10  C11 UNL     1      22.402   1.640  49.696  1.00  0.00     0.031 A 
HETATM   11  C12 UNL     1      22.503   2.571  48.577  1.00  0.00     0.003 A 
HETATM   12  C13 UNL     1      22.391   3.800  49.059  1.00  0.00     0.050 A 
HETATM   13  C14 UNL     1      22.208   3.788  50.545  1.00  0.00     0.319 A 
BRANCH  13  14
HETATM   14  N3  UNL     1      20.858   4.262  50.774  1.00  0.00     0.124 N 
HETATM   15  H17 UNL     1      20.205   3.497  50.425  1.00  0.00     0.317 HD
HETATM   16  H18 UNL     1      20.730   4.196  51.830  1.00  0.00     0.317 HD
ENDBRANCH  13  14
BRANCH  13  17
HETATM   17  O3  UNL     1      23.172   4.490  51.205  1.00  0.00    -0.350 OA
HETATM   18  C15 UNL     1      22.712   5.090  52.381  1.00  0.00     0.205 C 
ENDBRANCH  13  17
ENDBRANCH   8   9
BRANCH   1  19
HETATM   19  O1  UNL     1      19.893   1.447  51.370  1.00  0.00    -0.334 OA
BRANCH  19  20
HETATM   20  C2  UNL     1      19.100   0.940  50.389  1.00  0.00     0.173 C 
HETATM   21  C1  UNL     1      18.649   1.985  49.361  1.00  0.00     0.034 C 
ENDBRANCH  19  20
ENDBRANCH   1  19
BRANCH   2  22
HETATM   22  O2  UNL     1      18.942  -0.123  52.904  1.00  0.00    -0.352 OA
HETATM   23  C5  UNL     1      18.380  -1.329  53.385  1.00  0.00     0.210 C 
ENDBRANCH   2  22
TORSDOF 6
ENDMDL
