MODEL 1
REMARK VINA RESULT:      -8.3      0.000      0.000
REMARK  6 active torsions:
REMARK  status: ('A' for Active; 'I' for Inactive)
REMARK    1  A    between atoms: C3_3  and  O1_4 
REMARK    2  A    between atoms: O1_4  and  C4_5 
REMARK    3  A    between atoms: C7_8  and  N1_9 
REMARK    4  A    between atoms: N1_9  and  C8_10 
REMARK    5  A    between atoms: C12_14  and  C13_15 
REMARK    6  A    between atoms: C18_23  and  O2_24 
ROOT
HETATM    1  C1  UNL     1      27.166   4.375  48.956  1.00  0.00     0.014 C 
HETATM    2  C2  UNL     1      26.538   3.765  49.787  1.00  0.00    -0.091 C 
HETATM    3  C3  UNL     1      25.757   3.008  50.798  1.00  0.00     0.268 C 
ENDROOT
BRANCH   3   4
HETATM    4  O1  UNL     1      26.539   1.946  51.313  1.00  0.00    -0.337 OA
BRANCH   4   5
HETATM    5  C4  UNL     1      26.016   1.156  52.303  1.00  0.00     0.104 A 
HETATM    6  C5  UNL     1      24.689   0.879  52.497  1.00  0.00     0.057 A 
HETATM    7  C6  UNL     1      24.223   0.072  53.511  1.00  0.00     0.042 A 
HETATM    8  C7  UNL     1      22.877  -0.179  53.671  1.00  0.00     0.142 A 
HETATM    9  C16 UNL     1      25.137  -0.493  54.391  1.00  0.00     0.075 A 
HETATM   10  N2  UNL     1      22.419  -0.977  54.685  1.00  0.00    -0.224 NA
HETATM   11  C15 UNL     1      23.346  -1.519  55.536  1.00  0.00     0.236 A 
HETATM   12  N3  UNL     1      24.641  -1.260  55.357  1.00  0.00    -0.241 NA
HETATM   13  C17 UNL     1      26.472  -0.210  54.193  1.00  0.00     0.072 A 
HETATM   14  C18 UNL     1      26.952   0.607  53.166  1.00  0.00     0.103 A 
BRANCH   8  15
HETATM   15  N1  UNL     1      21.907   0.352  52.795  1.00  0.00    -0.340 N 
HETATM   16  H5  UNL     1      22.471   1.228  52.564  1.00  0.00     0.167 HD
BRANCH  15  17
HETATM   17  C8  UNL     1      20.678   0.286  52.147  1.00  0.00     0.034 A 
HETATM   18  C9  UNL     1      20.418   0.794  50.901  1.00  0.00     0.029 A 
HETATM   19  C10 UNL     1      19.127   0.605  50.493  1.00  0.00     0.003 A 
HETATM   20  C11 UNL     1      18.120  -0.021  51.191  1.00  0.00     0.008 A 
HETATM   21  C12 UNL     1      18.407  -0.535  52.464  1.00  0.00    -0.042 A 
HETATM   22  C14 UNL     1      19.711  -0.358  52.909  1.00  0.00     0.037 A 
BRANCH  21  23
HETATM   23  C13 UNL     1      17.374  -1.212  53.260  1.00  0.00     0.153 C 
HETATM   24 CL1  UNL     1      17.980  -2.817  53.799  1.00  0.00    -0.126 Cl
ENDBRANCH  21  23
ENDBRANCH  15  17
ENDBRANCH   8  15
BRANCH  14  25
HETATM   25  O2  UNL     1      28.320   0.842  53.036  1.00  0.00    -0.353 OA
HETATM   26  C19 UNL     1      29.182   1.072  54.095  1.00  0.00     0.210 C 
ENDBRANCH  14  25
ENDBRANCH   4   5
ENDBRANCH   3   4
TORSDOF 6
ENDMDL
MODEL 2
REMARK VINA RESULT:      -8.2      2.076      2.597
REMARK  6 active torsions:
REMARK  status: ('A' for Active; 'I' for Inactive)
REMARK    1  A    between atoms: C3_3  and  O1_4 
REMARK    2  A    between atoms: O1_4  and  C4_5 
REMARK    3  A    between atoms: C7_8  and  N1_9 
REMARK    4  A    between atoms: N1_9  and  C8_10 
REMARK    5  A    between atoms: C12_14  and  C13_15 
REMARK    6  A    between atoms: C18_23  and  O2_24 
ROOT
HETATM    1  C1  UNL     1      27.203   4.763  48.805  1.00  0.00     0.014 C 
HETATM    2  C2  UNL     1      26.651   3.934  49.486  1.00  0.00    -0.091 C 
HETATM    3  C3  UNL     1      25.969   2.905  50.311  1.00  0.00     0.268 C 
ENDROOT
BRANCH   3   4
HETATM    4  O1  UNL     1      26.926   2.177  51.060  1.00  0.00    -0.337 OA
BRANCH   4   5
HETATM    5  C4  UNL     1      26.508   1.447  52.141  1.00  0.00     0.104 A 
HETATM    6  C5  UNL     1      25.285   0.845  52.284  1.00  0.00     0.057 A 
HETATM    7  C6  UNL     1      24.922   0.120  53.396  1.00  0.00     0.042 A 
HETATM    8  C7  UNL     1      23.679  -0.468  53.500  1.00  0.00     0.142 A 
HETATM    9  C16 UNL     1      25.835  -0.014  54.435  1.00  0.00     0.075 A 
HETATM   10  N2  UNL     1      23.322  -1.183  54.611  1.00  0.00    -0.224 NA
HETATM   11  C15 UNL     1      24.244  -1.296  55.618  1.00  0.00     0.236 A 
HETATM   12  N3  UNL     1      25.439  -0.719  55.491  1.00  0.00    -0.241 NA
HETATM   13  C17 UNL     1      27.064   0.593  54.288  1.00  0.00     0.072 A 
HETATM   14  C18 UNL     1      27.438   1.331  53.162  1.00  0.00     0.103 A 
BRANCH   8  15
HETATM   15  N1  UNL     1      22.722  -0.381  52.467  1.00  0.00    -0.340 N 
HETATM   16  H5  UNL     1      23.199  -1.107  51.847  1.00  0.00     0.167 HD
BRANCH  15  17
HETATM   17  C8  UNL     1      21.559   0.151  51.919  1.00  0.00     0.034 A 
HETATM   18  C9  UNL     1      20.341   0.187  52.545  1.00  0.00     0.029 A 
HETATM   19  C10 UNL     1      19.356   0.757  51.789  1.00  0.00     0.003 A 
HETATM   20  C11 UNL     1      19.478   1.272  50.518  1.00  0.00     0.008 A 
HETATM   21  C12 UNL     1      20.734   1.226  49.895  1.00  0.00    -0.042 A 
HETATM   22  C14 UNL     1      21.758   0.651  50.638  1.00  0.00     0.037 A 
BRANCH  21  23
HETATM   23  C13 UNL     1      20.929   1.756  48.539  1.00  0.00     0.153 C 
HETATM   24 CL1  UNL     1      22.618   2.347  48.356  1.00  0.00    -0.126 Cl
ENDBRANCH  21  23
ENDBRANCH  15  17
ENDBRANCH   8  15
BRANCH  14  25
HETATM   25  O2  UNL     1      28.703   1.914  53.092  1.00  0.00    -0.353 OA
HETATM   26  C19 UNL     1      29.505   2.185  54.188  1.00  0.00     0.210 C 
ENDBRANCH  14  25
ENDBRANCH   4   5
ENDBRANCH   3   4
TORSDOF 6
ENDMDL
MODEL 3
REMARK VINA RESULT:      -8.0      3.025      3.958
REMARK  6 active torsions:
REMARK  status: ('A' for Active; 'I' for Inactive)
REMARK    1  A    between atoms: C3_3  and  O1_4 
REMARK    2  A    between atoms: O1_4  and  C4_5 
REMARK    3  A    between atoms: C7_8  and  N1_9 
REMARK    4  A    between atoms: N1_9  and  C8_10 
REMARK    5  A    between atoms: C12_14  and  C13_15 
REMARK    6  A    between atoms: C18_23  and  O2_24 
ROOT
HETATM    1  C1  UNL     1      26.325   3.261  49.568  1.00  0.00     0.014 C 
HETATM    2  C2  UNL     1      26.641   2.770  50.623  1.00  0.00    -0.091 C 
HETATM    3  C3  UNL     1      27.016   2.171  51.930  1.00  0.00     0.268 C 
ENDROOT
BRANCH   3   4
HETATM    4  O1  UNL     1      26.748   0.781  51.916  1.00  0.00    -0.337 OA
BRANCH   4   5
HETATM    5  C4  UNL     1      25.696   0.300  52.650  1.00  0.00     0.104 A 
HETATM    6  C5  UNL     1      24.368   0.437  52.341  1.00  0.00     0.057 A 
HETATM    7  C6  UNL     1      23.352  -0.072  53.118  1.00  0.00     0.042 A 
HETATM    8  C7  UNL     1      22.028   0.090  52.771  1.00  0.00     0.142 A 
HETATM    9  C16 UNL     1      23.679  -0.760  54.280  1.00  0.00     0.075 A 
HETATM   10  N2  UNL     1      21.022  -0.413  53.551  1.00  0.00    -0.224 NA
HETATM   11  C15 UNL     1      21.377  -1.086  54.690  1.00  0.00     0.236 A 
HETATM   12  N3  UNL     1      22.665  -1.229  55.001  1.00  0.00    -0.241 NA
HETATM   13  C17 UNL     1      25.016  -0.895  54.588  1.00  0.00     0.072 A 
HETATM   14  C18 UNL     1      26.052  -0.381  53.804  1.00  0.00     0.103 A 
BRANCH   8  15
HETATM   15  N1  UNL     1      21.641   0.763  51.592  1.00  0.00    -0.340 N 
HETATM   16  H5  UNL     1      20.613   0.483  51.669  1.00  0.00     0.167 HD
BRANCH  15  17
HETATM   17  C8  UNL     1      21.931   1.544  50.479  1.00  0.00     0.034 A 
HETATM   18  C9  UNL     1      21.763   1.152  49.178  1.00  0.00     0.029 A 
HETATM   19  C10 UNL     1      22.130   2.104  48.268  1.00  0.00     0.003 A 
HETATM   20  C11 UNL     1      22.626   3.360  48.537  1.00  0.00     0.008 A 
HETATM   21  C12 UNL     1      22.789   3.742  49.876  1.00  0.00    -0.042 A 
HETATM   22  C14 UNL     1      22.426   2.795  50.826  1.00  0.00     0.037 A 
BRANCH  21  23
HETATM   23  C13 UNL     1      23.317   5.068  50.228  1.00  0.00     0.153 C 
HETATM   24 CL1  UNL     1      23.535   6.048  48.736  1.00  0.00    -0.126 Cl
ENDBRANCH  21  23
ENDBRANCH  15  17
ENDBRANCH   8  15
BRANCH  14  25
HETATM   25  O2  UNL     1      27.380  -0.562  54.187  1.00  0.00    -0.353 OA
HETATM   26  C19 UNL     1      28.108   0.338  54.948  1.00  0.00     0.210 C 
ENDBRANCH  14  25
ENDBRANCH   4   5
ENDBRANCH   3   4
TORSDOF 6
ENDMDL
MODEL 4
REMARK VINA RESULT:      -7.9      3.215      6.534
REMARK  6 active torsions:
REMARK  status: ('A' for Active; 'I' for Inactive)
REMARK    1  A    between atoms: C3_3  and  O1_4 
REMARK    2  A    between atoms: O1_4  and  C4_5 
REMARK    3  A    between atoms: C7_8  and  N1_9 
REMARK    4  A    between atoms: N1_9  and  C8_10 
REMARK    5  A    between atoms: C12_14  and  C13_15 
REMARK    6  A    between atoms: C18_23  and  O2_24 
ROOT
HETATM    1  C1  UNL     1      26.314   3.556  49.643  1.00  0.00     0.014 C 
HETATM    2  C2  UNL     1      25.430   3.846  50.412  1.00  0.00    -0.091 C 
HETATM    3  C3  UNL     1      24.341   4.218  51.351  1.00  0.00     0.268 C 
ENDROOT
BRANCH   3   4
HETATM    4  O1  UNL     1      23.134   3.589  50.960  1.00  0.00    -0.337 OA
BRANCH   4   5
HETATM    5  C4  UNL     1      22.606   2.610  51.759  1.00  0.00     0.104 A 
HETATM    6  C5  UNL     1      23.317   1.666  52.454  1.00  0.00     0.057 A 
HETATM    7  C6  UNL     1      22.729   0.706  53.246  1.00  0.00     0.042 A 
HETATM    8  C7  UNL     1      23.482  -0.226  53.928  1.00  0.00     0.142 A 
HETATM    9  C16 UNL     1      21.344   0.681  53.352  1.00  0.00     0.075 A 
HETATM   10  N2  UNL     1      22.891  -1.183  54.709  1.00  0.00    -0.224 NA
HETATM   11  C15 UNL     1      21.524  -1.180  54.792  1.00  0.00     0.236 A 
HETATM   12  N3  UNL     1      20.821  -0.267  54.124  1.00  0.00    -0.241 NA
HETATM   13  C17 UNL     1      20.633   1.632  52.650  1.00  0.00     0.072 A 
HETATM   14  C18 UNL     1      21.223   2.609  51.845  1.00  0.00     0.103 A 
BRANCH   8  15
HETATM   15  N1  UNL     1      24.892  -0.234  53.873  1.00  0.00    -0.340 N 
HETATM   16  H5  UNL     1      24.976  -1.287  54.024  1.00  0.00     0.167 HD
BRANCH  15  17
HETATM   17  C8  UNL     1      26.114   0.415  53.728  1.00  0.00     0.034 A 
HETATM   18  C9  UNL     1      26.277   1.772  53.645  1.00  0.00     0.029 A 
HETATM   19  C10 UNL     1      27.581   2.157  53.500  1.00  0.00     0.003 A 
HETATM   20  C11 UNL     1      28.685   1.338  53.434  1.00  0.00     0.008 A 
HETATM   21  C12 UNL     1      28.495  -0.049  53.522  1.00  0.00    -0.042 A 
HETATM   22  C14 UNL     1      27.181  -0.473  53.669  1.00  0.00     0.037 A 
BRANCH  21  23
HETATM   23  C13 UNL     1      29.633  -0.976  53.456  1.00  0.00     0.153 C 
HETATM   24 CL1  UNL     1      29.041  -2.639  53.110  1.00  0.00    -0.126 Cl
ENDBRANCH  21  23
ENDBRANCH  15  17
ENDBRANCH   8  15
BRANCH  14  25
HETATM   25  O2  UNL     1      20.430   3.534  51.168  1.00  0.00    -0.353 OA
HETATM   26  C19 UNL     1      19.053   3.623  51.284  1.00  0.00     0.210 C 
ENDBRANCH  14  25
ENDBRANCH   4   5
ENDBRANCH   3   4
TORSDOF 6
ENDMDL
MODEL 5
REMARK VINA RESULT:      -7.9      3.573      6.988
REMARK  6 active torsions:
REMARK  status: ('A' for Active; 'I' for Inactive)
REMARK    1  A    between atoms: C3_3  and  O1_4 
REMARK    2  A    between atoms: O1_4  and  C4_5 
REMARK    3  A    between atoms: C7_8  and  N1_9 
REMARK    4  A    between atoms: N1_9  and  C8_10 
REMARK    5  A    between atoms: C12_14  and  C13_15 
REMARK    6  A    between atoms: C18_23  and  O2_24 
ROOT
HETATM    1  C1  UNL     1      23.127   3.280  48.732  1.00  0.00     0.014 C 
HETATM    2  C2  UNL     1      22.375   2.337  48.750  1.00  0.00    -0.091 C 
HETATM    3  C3  UNL     1      21.462   1.166  48.779  1.00  0.00     0.268 C 
ENDROOT
BRANCH   3   4
HETATM    4  O1  UNL     1      20.507   1.327  49.812  1.00  0.00    -0.337 OA
BRANCH   4   5
HETATM    5  C4  UNL     1      20.716   0.699  51.012  1.00  0.00     0.104 A 
HETATM    6  C5  UNL     1      21.932   0.472  51.603  1.00  0.00     0.057 A 
HETATM    7  C6  UNL     1      22.079  -0.163  52.815  1.00  0.00     0.042 A 
HETATM    8  C7  UNL     1      23.322  -0.372  53.373  1.00  0.00     0.142 A 
HETATM    9  C16 UNL     1      20.942  -0.603  53.483  1.00  0.00     0.075 A 
HETATM   10  N2  UNL     1      23.462  -1.011  54.577  1.00  0.00    -0.224 NA
HETATM   11  C15 UNL     1      22.323  -1.432  55.209  1.00  0.00     0.236 A 
HETATM   12  N3  UNL     1      21.134  -1.215  54.648  1.00  0.00    -0.241 NA
HETATM   13  C17 UNL     1      19.722  -0.373  52.885  1.00  0.00     0.072 A 
HETATM   14  C18 UNL     1      19.565   0.270  51.655  1.00  0.00     0.103 A 
BRANCH   8  15
HETATM   15  N1  UNL     1      24.507   0.071  52.749  1.00  0.00    -0.340 N 
HETATM   16  H5  UNL     1      24.245  -0.313  51.788  1.00  0.00     0.167 HD
BRANCH  15  17
HETATM   17  C8  UNL     1      25.741   0.712  52.783  1.00  0.00     0.034 A 
HETATM   18  C9  UNL     1      26.064   1.833  52.067  1.00  0.00     0.029 A 
HETATM   19  C10 UNL     1      27.346   2.262  52.273  1.00  0.00     0.003 A 
HETATM   20  C11 UNL     1      28.289   1.691  53.098  1.00  0.00     0.008 A 
HETATM   21  C12 UNL     1      27.937   0.544  53.823  1.00  0.00    -0.042 A 
HETATM   22  C14 UNL     1      26.640   0.082  53.635  1.00  0.00     0.037 A 
BRANCH  21  23
HETATM   23  C13 UNL     1      28.899  -0.113  54.718  1.00  0.00     0.153 C 
HETATM   24 CL1  UNL     1      30.101  -1.032  53.747  1.00  0.00    -0.126 Cl
ENDBRANCH  21  23
ENDBRANCH  15  17
ENDBRANCH   8  15
BRANCH  14  25
HETATM   25  O2  UNL     1      18.292   0.463  51.119  1.00  0.00    -0.353 OA
HETATM   26  C19 UNL     1      17.110   0.178  51.780  1.00  0.00     0.210 C 
ENDBRANCH  14  25
ENDBRANCH   4   5
ENDBRANCH   3   4
TORSDOF 6
ENDMDL
MODEL 6
REMARK VINA RESULT:      -7.8      4.091      7.301
REMARK  6 active torsions:
REMARK  status: ('A' for Active; 'I' for Inactive)
REMARK    1  A    between atoms: C3_3  and  O1_4 
REMARK    2  A    between atoms: O1_4  and  C4_5 
REMARK    3  A    between atoms: C7_8  and  N1_9 
REMARK    4  A    between atoms: N1_9  and  C8_10 
REMARK    5  A    between atoms: C12_14  and  C13_15 
REMARK    6  A    between atoms: C18_23  and  O2_24 
ROOT
HETATM    1  C1  UNL     1      29.720  -0.825  53.525  1.00  0.00     0.014 C 
HETATM    2  C2  UNL     1      28.543  -0.925  53.279  1.00  0.00    -0.091 C 
HETATM    3  C3  UNL     1      27.093  -1.060  52.987  1.00  0.00     0.268 C 
ENDROOT
BRANCH   3   4
HETATM    4  O1  UNL     1      26.377  -0.009  53.610  1.00  0.00    -0.337 OA
BRANCH   4   5
HETATM    5  C4  UNL     1      25.228   0.450  53.022  1.00  0.00     0.104 A 
HETATM    6  C5  UNL     1      25.154   1.349  51.990  1.00  0.00     0.057 A 
HETATM    7  C6  UNL     1      23.966   1.772  51.438  1.00  0.00     0.042 A 
HETATM    8  C7  UNL     1      23.936   2.680  50.401  1.00  0.00     0.142 A 
HETATM    9  C16 UNL     1      22.774   1.270  51.946  1.00  0.00     0.075 A 
HETATM   10  N2  UNL     1      22.751   3.102  49.859  1.00  0.00    -0.224 NA
HETATM   11  C15 UNL     1      21.595   2.588  50.384  1.00  0.00     0.236 A 
HETATM   12  N3  UNL     1      21.652   1.711  51.385  1.00  0.00    -0.241 NA
HETATM   13  C17 UNL     1      22.854   0.367  52.985  1.00  0.00     0.072 A 
HETATM   14  C18 UNL     1      24.055  -0.067  53.550  1.00  0.00     0.103 A 
BRANCH   8  15
HETATM   15  N1  UNL     1      25.116   3.207  49.833  1.00  0.00    -0.340 N 
HETATM   16  H5  UNL     1      25.639   2.277  49.848  1.00  0.00     0.167 HD
BRANCH  15  17
HETATM   17  C8  UNL     1      25.856   4.262  49.310  1.00  0.00     0.034 A 
HETATM   18  C9  UNL     1      27.206   4.238  49.084  1.00  0.00     0.029 A 
HETATM   19  C10 UNL     1      27.694   5.408  48.571  1.00  0.00     0.003 A 
HETATM   20  C11 UNL     1      26.979   6.547  48.277  1.00  0.00     0.008 A 
HETATM   21  C12 UNL     1      25.597   6.549  48.515  1.00  0.00    -0.042 A 
HETATM   22  C14 UNL     1      25.070   5.375  49.038  1.00  0.00     0.037 A 
BRANCH  21  23
HETATM   23  C13 UNL     1      24.779   7.735  48.225  1.00  0.00     0.153 C 
HETATM   24 CL1  UNL     1      25.058   8.262  46.528  1.00  0.00    -0.126 Cl
ENDBRANCH  21  23
ENDBRANCH  15  17
ENDBRANCH   8  15
BRANCH  14  25
HETATM   25  O2  UNL     1      24.048  -0.984  54.600  1.00  0.00    -0.353 OA
HETATM   26  C19 UNL     1      22.936  -1.293  55.366  1.00  0.00     0.210 C 
ENDBRANCH  14  25
ENDBRANCH   4   5
ENDBRANCH   3   4
TORSDOF 6
ENDMDL
MODEL 7
REMARK VINA RESULT:      -7.7      3.911      6.692
REMARK  6 active torsions:
REMARK  status: ('A' for Active; 'I' for Inactive)
REMARK    1  A    between atoms: C3_3  and  O1_4 
REMARK    2  A    between atoms: O1_4  and  C4_5 
REMARK    3  A    between atoms: C7_8  and  N1_9 
REMARK    4  A    between atoms: N1_9  and  C8_10 
REMARK    5  A    between atoms: C12_14  and  C13_15 
REMARK    6  A    between atoms: C18_23  and  O2_24 
ROOT
HETATM    1  C1  UNL     1      20.614   3.485  51.949  1.00  0.00     0.014 C 
HETATM    2  C2  UNL     1      21.172   2.547  51.433  1.00  0.00    -0.091 C 
HETATM    3  C3  UNL     1      21.873   1.403  50.796  1.00  0.00     0.268 C 
ENDROOT
BRANCH   3   4
HETATM    4  O1  UNL     1      22.294   0.485  51.788  1.00  0.00    -0.337 OA
BRANCH   4   5
HETATM    5  C4  UNL     1      23.545   0.619  52.330  1.00  0.00     0.104 A 
HETATM    6  C5  UNL     1      24.583   1.334  51.793  1.00  0.00     0.057 A 
HETATM    7  C6  UNL     1      25.821   1.436  52.388  1.00  0.00     0.042 A 
HETATM    8  C7  UNL     1      26.840   2.165  51.812  1.00  0.00     0.142 A 
HETATM    9  C16 UNL     1      26.040   0.782  53.594  1.00  0.00     0.075 A 
HETATM   10  N2  UNL     1      28.071   2.257  52.405  1.00  0.00    -0.224 NA
HETATM   11  C15 UNL     1      28.254   1.600  53.592  1.00  0.00     0.236 A 
HETATM   12  N3  UNL     1      27.252   0.904  54.128  1.00  0.00    -0.241 NA
HETATM   13  C17 UNL     1      24.993   0.063  54.130  1.00  0.00     0.072 A 
HETATM   14  C18 UNL     1      23.735  -0.044  53.532  1.00  0.00     0.103 A 
BRANCH   8  15
HETATM   15  N1  UNL     1      26.666   2.865  50.599  1.00  0.00    -0.340 N 
HETATM   16  H5  UNL     1      26.754   1.996  49.986  1.00  0.00     0.167 HD
BRANCH  15  17
HETATM   17  C8  UNL     1      26.454   4.040  49.885  1.00  0.00     0.034 A 
HETATM   18  C9  UNL     1      27.338   4.588  48.995  1.00  0.00     0.029 A 
HETATM   19  C10 UNL     1      26.894   5.752  48.430  1.00  0.00     0.003 A 
HETATM   20  C11 UNL     1      25.695   6.384  48.669  1.00  0.00     0.008 A 
HETATM   21  C12 UNL     1      24.803   5.805  49.584  1.00  0.00    -0.042 A 
HETATM   22  C14 UNL     1      25.226   4.622  50.176  1.00  0.00     0.037 A 
BRANCH  21  23
HETATM   23  C13 UNL     1      23.509   6.433  49.883  1.00  0.00     0.153 C 
HETATM   24 CL1  UNL     1      23.746   7.788  51.040  1.00  0.00    -0.126 Cl
ENDBRANCH  21  23
ENDBRANCH  15  17
ENDBRANCH   8  15
BRANCH  14  25
HETATM   25  O2  UNL     1      22.729  -0.793  54.142  1.00  0.00    -0.353 OA
HETATM   26  C19 UNL     1      22.847  -1.411  55.375  1.00  0.00     0.210 C 
ENDBRANCH  14  25
ENDBRANCH   4   5
ENDBRANCH   3   4
TORSDOF 6
ENDMDL
MODEL 8
REMARK VINA RESULT:      -7.6      2.062      4.576
REMARK  6 active torsions:
REMARK  status: ('A' for Active; 'I' for Inactive)
REMARK    1  A    between atoms: C3_3  and  O1_4 
REMARK    2  A    between atoms: O1_4  and  C4_5 
REMARK    3  A    between atoms: C7_8  and  N1_9 
REMARK    4  A    between atoms: N1_9  and  C8_10 
REMARK    5  A    between atoms: C12_14  and  C13_15 
REMARK    6  A    between atoms: C18_23  and  O2_24 
ROOT
HETATM    1  C1  UNL     1      28.540   0.097  53.941  1.00  0.00     0.014 C 
HETATM    2  C2  UNL     1      27.798   0.345  53.022  1.00  0.00    -0.091 C 
HETATM    3  C3  UNL     1      26.871   0.649  51.902  1.00  0.00     0.268 C 
ENDROOT
BRANCH   3   4
HETATM    4  O1  UNL     1      26.889   2.038  51.626  1.00  0.00    -0.337 OA
BRANCH   4   5
HETATM    5  C4  UNL     1      25.749   2.636  51.157  1.00  0.00     0.104 A 
HETATM    6  C5  UNL     1      24.481   2.443  51.638  1.00  0.00     0.057 A 
HETATM    7  C6  UNL     1      23.371   3.077  51.125  1.00  0.00     0.042 A 
HETATM    8  C7  UNL     1      22.111   2.853  51.638  1.00  0.00     0.142 A 
HETATM    9  C16 UNL     1      23.534   3.959  50.063  1.00  0.00     0.075 A 
HETATM   10  N2  UNL     1      21.011   3.482  51.120  1.00  0.00    -0.224 NA
HETATM   11  C15 UNL     1      21.206   4.344  50.074  1.00  0.00     0.236 A 
HETATM   12  N3  UNL     1      22.434   4.544  49.598  1.00  0.00    -0.241 NA
HETATM   13  C17 UNL     1      24.812   4.149  49.582  1.00  0.00     0.072 A 
HETATM   14  C18 UNL     1      25.942   3.509  50.098  1.00  0.00     0.103 A 
BRANCH   8  15
HETATM   15  N1  UNL     1      21.891   1.984  52.728  1.00  0.00    -0.340 N 
HETATM   16  H5  UNL     1      22.170   2.702  53.466  1.00  0.00     0.167 HD
BRANCH  15  17
HETATM   17  C8  UNL     1      21.518   0.751  53.252  1.00  0.00     0.034 A 
HETATM   18  C9  UNL     1      22.339  -0.079  53.968  1.00  0.00     0.029 A 
HETATM   19  C10 UNL     1      21.732  -1.237  54.366  1.00  0.00     0.003 A 
HETATM   20  C11 UNL     1      20.433  -1.619  54.121  1.00  0.00     0.008 A 
HETATM   21  C12 UNL     1      19.608  -0.754  53.387  1.00  0.00    -0.042 A 
HETATM   22  C14 UNL     1      20.196   0.432  52.966  1.00  0.00     0.037 A 
BRANCH  21  23
HETATM   23  C13 UNL     1      18.213  -1.105  53.090  1.00  0.00     0.153 C 
HETATM   24 CL1  UNL     1      17.829  -2.714  53.797  1.00  0.00    -0.126 Cl
ENDBRANCH  21  23
ENDBRANCH  15  17
ENDBRANCH   8  15
BRANCH  14  25
HETATM   25  O2  UNL     1      27.201   3.758  49.552  1.00  0.00    -0.353 OA
HETATM   26  C19 UNL     1      27.496   4.813  48.705  1.00  0.00     0.210 C 
ENDBRANCH  14  25
ENDBRANCH   4   5
ENDBRANCH   3   4
TORSDOF 6
ENDMDL
MODEL 9
REMARK VINA RESULT:      -7.6      4.204      7.297
REMARK  6 active torsions:
REMARK  status: ('A' for Active; 'I' for Inactive)
REMARK    1  A    between atoms: C3_3  and  O1_4 
REMARK    2  A    between atoms: O1_4  and  C4_5 
REMARK    3  A    between atoms: C7_8  and  N1_9 
REMARK    4  A    between atoms: N1_9  and  C8_10 
REMARK    5  A    between atoms: C12_14  and  C13_15 
REMARK    6  A    between atoms: C18_23  and  O2_24 
ROOT
HETATM    1  C1  UNL     1      20.513   3.381  52.050  1.00  0.00     0.014 C 
HETATM    2  C2  UNL     1      20.911   2.360  51.544  1.00  0.00    -0.091 C 
HETATM    3  C3  UNL     1      21.413   1.112  50.915  1.00  0.00     0.268 C 
ENDROOT
BRANCH   3   4
HETATM    4  O1  UNL     1      21.950   0.256  51.907  1.00  0.00    -0.337 OA
BRANCH   4   5
HETATM    5  C4  UNL     1      23.231   0.467  52.344  1.00  0.00     0.104 A 
HETATM    6  C5  UNL     1      24.166   1.268  51.743  1.00  0.00     0.057 A 
HETATM    7  C6  UNL     1      25.441   1.444  52.233  1.00  0.00     0.042 A 
HETATM    8  C7  UNL     1      26.352   2.258  51.594  1.00  0.00     0.142 A 
HETATM    9  C16 UNL     1      25.809   0.779  53.395  1.00  0.00     0.075 A 
HETATM   10  N2  UNL     1      27.621   2.424  52.083  1.00  0.00    -0.224 NA
HETATM   11  C15 UNL     1      27.952   1.755  53.231  1.00  0.00     0.236 A 
HETATM   12  N3  UNL     1      27.052   0.975  53.828  1.00  0.00    -0.241 NA
HETATM   13  C17 UNL     1      24.866  -0.026  53.997  1.00  0.00     0.072 A 
HETATM   14  C18 UNL     1      23.571  -0.209  53.505  1.00  0.00     0.103 A 
BRANCH   8  15
HETATM   15  N1  UNL     1      26.025   2.973  50.422  1.00  0.00    -0.340 N 
HETATM   16  H5  UNL     1      25.891   2.098  49.825  1.00  0.00     0.167 HD
BRANCH  15  17
HETATM   17  C8  UNL     1      25.814   4.163  49.735  1.00  0.00     0.034 A 
HETATM   18  C9  UNL     1      24.589   4.737  49.517  1.00  0.00     0.029 A 
HETATM   19  C10 UNL     1      24.653   5.905  48.808  1.00  0.00     0.003 A 
HETATM   20  C11 UNL     1      25.784   6.520  48.322  1.00  0.00     0.008 A 
HETATM   21  C12 UNL     1      27.028   5.916  48.558  1.00  0.00    -0.042 A 
HETATM   22  C14 UNL     1      26.998   4.727  49.276  1.00  0.00     0.037 A 
BRANCH  21  23
HETATM   23  C13 UNL     1      28.272   6.522  48.064  1.00  0.00     0.153 C 
HETATM   24 CL1  UNL     1      29.587   5.296  48.068  1.00  0.00    -0.126 Cl
ENDBRANCH  21  23
ENDBRANCH  15  17
ENDBRANCH   8  15
BRANCH  14  25
HETATM   25  O2  UNL     1      22.676  -1.043  54.176  1.00  0.00    -0.353 OA
HETATM   26  C19 UNL     1      21.604  -0.598  54.932  1.00  0.00     0.210 C 
ENDBRANCH  14  25
ENDBRANCH   4   5
ENDBRANCH   3   4
TORSDOF 6
ENDMDL
