MODEL 1
REMARK VINA RESULT:      -8.2      0.000      0.000
REMARK  6 active torsions:
REMARK  status: ('A' for Active; 'I' for Inactive)
REMARK       I    between atoms: C2_2  and  N1_4 
REMARK    1  A    between atoms: N2_7  and  C5_8 
REMARK    2  A    between atoms: C7_10  and  N3_11 
REMARK    3  A    between atoms: N3_11  and  C8_12 
REMARK    4  A    between atoms: C13_18  and  N5_19 
REMARK    5  A    between atoms: C14_20  and  C15_21 
REMARK    6  A    between atoms: C18_25  and  N6_26 
ROOT
HETATM    1  C8  UNL     1      20.271  -0.134  52.540  1.00  0.00     0.123 C 
HETATM    2  N4  UNL     1      19.900  -0.530  53.728  1.00  0.00    -0.272 NA
HETATM    3  C9  UNL     1      20.727   0.216  54.761  1.00  0.00     0.159 C 
HETATM    4  C10 UNL     1      22.082  -0.488  54.778  1.00  0.00     0.047 A 
HETATM    5  C11 UNL     1      21.840  -1.641  53.810  1.00  0.00     0.081 A 
HETATM    6  C12 UNL     1      21.716  -0.201  52.965  1.00  0.00    -0.001 A 
HETATM    7  C13 UNL     1      22.940  -0.325  53.525  1.00  0.00     0.090 A 
ENDROOT
BRANCH   1   8
HETATM    8  N3  UNL     1      19.852   0.300  51.249  1.00  0.00    -0.370 N 
HETATM    9  H12 UNL     1      18.951  -0.037  50.857  1.00  0.00     0.161 HD
BRANCH   8  10
HETATM   10  C7  UNL     1      20.892   1.206  50.805  1.00  0.00     0.087 C 
HETATM   11  C6  UNL     1      20.467   2.678  50.914  1.00  0.00     0.061 C 
HETATM   12  C5  UNL     1      21.554   2.876  49.868  1.00  0.00     0.227 C 
HETATM   13  C19 UNL     1      21.027   1.495  49.349  1.00  0.00     0.061 C 
BRANCH  12  14
HETATM   14  N2  UNL     1      21.339   3.879  48.856  1.00  0.00     0.096 N 
HETATM   15  C4  UNL     1      21.033   5.139  49.481  1.00  0.00     0.292 C 
HETATM   16  C3  UNL     1      21.887   6.233  48.859  1.00  0.00     0.156 C 
HETATM   17  N1  UNL     1      23.264   6.016  49.260  1.00  0.00    -0.349 N 
HETATM   18  C2  UNL     1      24.295   6.670  50.004  1.00  0.00     0.215 C 
HETATM   19  C21 UNL     1      23.663   4.741  48.717  1.00  0.00     0.156 C 
HETATM   20  C1  UNL     1      23.864   7.992  50.621  1.00  0.00     0.117 C 
HETATM   21  O1  UNL     1      25.529   6.560  50.376  1.00  0.00    -0.274 OA
HETATM   22  C20 UNL     1      22.522   3.945  48.063  1.00  0.00     0.292 C 
ENDBRANCH  12  14
ENDBRANCH   8  10
ENDBRANCH   1   8
BRANCH   7  23
HETATM   23  N5  UNL     1      24.251  -0.324  52.952  1.00  0.00    -0.282 NA
HETATM   24  C14 UNL     1      25.286  -0.424  53.786  1.00  0.00     0.154 C 
BRANCH  24  25
HETATM   25  C15 UNL     1      26.433  -0.399  52.856  1.00  0.00     0.142 C 
HETATM   26  F1  UNL     1      26.911  -0.526  51.568  1.00  0.00    -0.204 F 
HETATM   27  C16 UNL     1      27.610  -0.102  53.493  1.00  0.00     0.016 A 
HETATM   28  C17 UNL     1      27.837   0.197  54.911  1.00  0.00     0.088 A 
HETATM   29  C18 UNL     1      28.939   0.199  54.091  1.00  0.00     0.022 A 
BRANCH  29  30
HETATM   30  N6  UNL     1      30.144   0.249  53.443  1.00  0.00    -0.401 N 
HETATM   31  H20 UNL     1      31.039  -0.017  53.934  1.00  0.00     0.156 HD
HETATM   32  H21 UNL     1      30.857   0.403  52.637  1.00  0.00     0.156 HD
ENDBRANCH  29  30
ENDBRANCH  24  25
ENDBRANCH   7  23
TORSDOF 6
ENDMDL
MODEL 2
REMARK VINA RESULT:      -8.0      3.513      7.692
REMARK  6 active torsions:
REMARK  status: ('A' for Active; 'I' for Inactive)
REMARK       I    between atoms: C2_2  and  N1_4 
REMARK    1  A    between atoms: N2_7  and  C5_8 
REMARK    2  A    between atoms: C7_10  and  N3_11 
REMARK    3  A    between atoms: N3_11  and  C8_12 
REMARK    4  A    between atoms: C13_18  and  N5_19 
REMARK    5  A    between atoms: C14_20  and  C15_21 
REMARK    6  A    between atoms: C18_25  and  N6_26 
ROOT
HETATM    1  C8  UNL     1      22.515   4.315  50.974  1.00  0.00     0.123 C 
HETATM    2  N4  UNL     1      22.019   5.468  51.335  1.00  0.00    -0.272 NA
HETATM    3  C9  UNL     1      22.197   6.445  50.185  1.00  0.00     0.159 C 
HETATM    4  C10 UNL     1      23.660   6.878  50.246  1.00  0.00     0.047 A 
HETATM    5  C11 UNL     1      24.137   6.166  51.507  1.00  0.00     0.081 A 
HETATM    6  C12 UNL     1      23.709   5.011  50.373  1.00  0.00    -0.001 A 
HETATM    7  C13 UNL     1      24.693   5.807  49.900  1.00  0.00     0.090 A 
ENDROOT
BRANCH   1   8
HETATM    8  N3  UNL     1      22.322   2.903  50.925  1.00  0.00    -0.370 N 
HETATM    9  H12 UNL     1      21.782   2.481  50.145  1.00  0.00     0.161 HD
BRANCH   8  10
HETATM   10  C7  UNL     1      23.029   2.391  52.082  1.00  0.00     0.087 C 
HETATM   11  C6  UNL     1      24.418   1.842  51.720  1.00  0.00     0.061 C 
HETATM   12  C5  UNL     1      24.242   1.064  53.016  1.00  0.00     0.227 C 
HETATM   13  C19 UNL     1      22.751   1.001  52.543  1.00  0.00     0.061 C 
BRANCH  12  14
HETATM   14  N2  UNL     1      24.780  -0.271  53.077  1.00  0.00     0.096 N 
HETATM   15  C4  UNL     1      25.958  -0.357  52.253  1.00  0.00     0.292 C 
HETATM   16  C3  UNL     1      27.076  -1.027  53.036  1.00  0.00     0.156 C 
HETATM   17  N1  UNL     1      27.500  -0.119  54.086  1.00  0.00    -0.349 N 
HETATM   18  C2  UNL     1      28.663   0.606  54.491  1.00  0.00     0.215 C 
HETATM   19  C21 UNL     1      26.366   0.074  54.956  1.00  0.00     0.156 C 
HETATM   20  C1  UNL     1      29.847   0.445  53.549  1.00  0.00     0.117 C 
HETATM   21  O1  UNL     1      29.122   1.396  55.406  1.00  0.00    -0.274 OA
HETATM   22  C20 UNL     1      25.060  -0.556  54.445  1.00  0.00     0.292 C 
ENDBRANCH  12  14
ENDBRANCH   8  10
ENDBRANCH   1   8
BRANCH   7  23
HETATM   23  N5  UNL     1      26.008   5.509  49.421  1.00  0.00    -0.282 NA
HETATM   24  C14 UNL     1      26.551   6.358  48.549  1.00  0.00     0.154 C 
BRANCH  24  25
HETATM   25  C15 UNL     1      27.871   5.742  48.302  1.00  0.00     0.142 C 
HETATM   26  F1  UNL     1      28.653   4.606  48.257  1.00  0.00    -0.204 F 
HETATM   27  C16 UNL     1      28.810   6.664  47.920  1.00  0.00     0.016 A 
HETATM   28  C17 UNL     1      28.651   8.108  47.720  1.00  0.00     0.088 A 
HETATM   29  C18 UNL     1      29.903   7.586  47.511  1.00  0.00     0.022 A 
BRANCH  29  30
HETATM   30  N6  UNL     1      31.208   7.258  47.257  1.00  0.00    -0.401 N 
HETATM   31  H20 UNL     1      31.456   6.422  46.663  1.00  0.00     0.156 HD
HETATM   32  H21 UNL     1      32.293   7.325  47.276  1.00  0.00     0.156 HD
ENDBRANCH  29  30
ENDBRANCH  24  25
ENDBRANCH   7  23
TORSDOF 6
ENDMDL
MODEL 3
REMARK VINA RESULT:      -8.0      2.254      4.938
REMARK  6 active torsions:
REMARK  status: ('A' for Active; 'I' for Inactive)
REMARK       I    between atoms: C2_2  and  N1_4 
REMARK    1  A    between atoms: N2_7  and  C5_8 
REMARK    2  A    between atoms: C7_10  and  N3_11 
REMARK    3  A    between atoms: N3_11  and  C8_12 
REMARK    4  A    between atoms: C13_18  and  N5_19 
REMARK    5  A    between atoms: C14_20  and  C15_21 
REMARK    6  A    between atoms: C18_25  and  N6_26 
ROOT
HETATM    1  C8  UNL     1      24.777  -0.221  53.803  1.00  0.00     0.123 C 
HETATM    2  N4  UNL     1      25.737  -0.935  54.327  1.00  0.00    -0.272 NA
HETATM    3  C9  UNL     1      26.893  -0.009  54.661  1.00  0.00     0.159 C 
HETATM    4  C10 UNL     1      27.599   0.253  53.333  1.00  0.00     0.047 A 
HETATM    5  C11 UNL     1      26.815  -0.650  52.387  1.00  0.00     0.081 A 
HETATM    6  C12 UNL     1      25.784   0.532  52.972  1.00  0.00    -0.001 A 
HETATM    7  C13 UNL     1      26.825   1.086  52.313  1.00  0.00     0.090 A 
ENDROOT
BRANCH   1   8
HETATM    8  N3  UNL     1      23.380   0.062  53.790  1.00  0.00    -0.370 N 
HETATM    9  H12 UNL     1      22.818  -0.065  54.655  1.00  0.00     0.161 HD
BRANCH   8  10
HETATM   10  C7  UNL     1      23.105   0.523  52.444  1.00  0.00     0.087 C 
HETATM   11  C6  UNL     1      22.352   1.862  52.429  1.00  0.00     0.061 C 
HETATM   12  C5  UNL     1      21.942   1.403  51.038  1.00  0.00     0.227 C 
HETATM   13  C19 UNL     1      21.907  -0.002  51.730  1.00  0.00     0.061 C 
BRANCH  12  14
HETATM   14  N2  UNL     1      20.618   1.742  50.581  1.00  0.00     0.096 N 
HETATM   15  C4  UNL     1      20.365   3.139  50.824  1.00  0.00     0.292 C 
HETATM   16  C3  UNL     1      19.797   3.776  49.565  1.00  0.00     0.156 C 
HETATM   17  N1  UNL     1      20.849   3.822  48.567  1.00  0.00    -0.349 N 
HETATM   18  C2  UNL     1      21.594   4.784  47.817  1.00  0.00     0.215 C 
HETATM   19  C21 UNL     1      21.214   2.456  48.279  1.00  0.00     0.156 C 
HETATM   20  C1  UNL     1      21.248   6.227  48.153  1.00  0.00     0.117 C 
HETATM   21  O1  UNL     1      22.507   4.904  46.909  1.00  0.00    -0.274 OA
HETATM   22  C20 UNL     1      20.549   1.416  49.195  1.00  0.00     0.292 C 
ENDBRANCH  12  14
ENDBRANCH   8  10
ENDBRANCH   1   8
BRANCH   7  23
HETATM   23  N5  UNL     1      26.877   1.963  51.183  1.00  0.00    -0.282 NA
HETATM   24  C14 UNL     1      26.038   2.999  51.171  1.00  0.00     0.154 C 
BRANCH  24  25
HETATM   25  C15 UNL     1      26.382   3.656  49.894  1.00  0.00     0.142 C 
HETATM   26  F1  UNL     1      27.166   3.693  48.759  1.00  0.00    -0.204 F 
HETATM   27  C16 UNL     1      25.582   4.738  49.636  1.00  0.00     0.016 A 
HETATM   28  C17 UNL     1      24.472   5.270  50.434  1.00  0.00     0.088 A 
HETATM   29  C18 UNL     1      24.776   5.935  49.271  1.00  0.00     0.022 A 
BRANCH  29  30
HETATM   30  N6  UNL     1      24.924   6.723  48.162  1.00  0.00    -0.401 N 
HETATM   31  H20 UNL     1      25.431   6.372  47.306  1.00  0.00     0.156 HD
HETATM   32  H21 UNL     1      24.834   7.593  47.516  1.00  0.00     0.156 HD
ENDBRANCH  29  30
ENDBRANCH  24  25
ENDBRANCH   7  23
TORSDOF 6
ENDMDL
MODEL 4
REMARK VINA RESULT:      -7.9      4.357      5.770
REMARK  6 active torsions:
REMARK  status: ('A' for Active; 'I' for Inactive)
REMARK       I    between atoms: C2_2  and  N1_4 
REMARK    1  A    between atoms: N2_7  and  C5_8 
REMARK    2  A    between atoms: C7_10  and  N3_11 
REMARK    3  A    between atoms: N3_11  and  C8_12 
REMARK    4  A    between atoms: C13_18  and  N5_19 
REMARK    5  A    between atoms: C14_20  and  C15_21 
REMARK    6  A    between atoms: C18_25  and  N6_26 
ROOT
HETATM    1  C8  UNL     1      20.311  -0.158  52.531  1.00  0.00     0.123 C 
HETATM    2  N4  UNL     1      19.941  -0.535  53.726  1.00  0.00    -0.272 NA
HETATM    3  C9  UNL     1      20.764   0.234  54.745  1.00  0.00     0.159 C 
HETATM    4  C10 UNL     1      22.124  -0.461  54.775  1.00  0.00     0.047 A 
HETATM    5  C11 UNL     1      21.888  -1.632  53.828  1.00  0.00     0.081 A 
HETATM    6  C12 UNL     1      21.756  -0.209  52.957  1.00  0.00    -0.001 A 
HETATM    7  C13 UNL     1      22.980  -0.316  53.519  1.00  0.00     0.090 A 
ENDROOT
BRANCH   1   8
HETATM    8  N3  UNL     1      19.889   0.251  51.232  1.00  0.00    -0.370 N 
HETATM    9  H12 UNL     1      20.317  -0.181  50.390  1.00  0.00     0.161 HD
BRANCH   8  10
HETATM   10  C7  UNL     1      18.854   1.236  51.469  1.00  0.00     0.087 C 
HETATM   11  C6  UNL     1      17.457   0.603  51.562  1.00  0.00     0.061 C 
HETATM   12  C5  UNL     1      17.000   2.009  51.203  1.00  0.00     0.227 C 
HETATM   13  C19 UNL     1      18.287   1.985  50.311  1.00  0.00     0.061 C 
BRANCH  12  14
HETATM   14  N2  UNL     1      15.839   2.144  50.360  1.00  0.00     0.096 N 
HETATM   15  C4  UNL     1      14.743   1.399  50.923  1.00  0.00     0.292 C 
HETATM   16  C3  UNL     1      13.498   2.272  50.946  1.00  0.00     0.156 C 
HETATM   17  N1  UNL     1      13.697   3.319  51.931  1.00  0.00    -0.349 N 
HETATM   18  C2  UNL     1      13.131   3.776  53.161  1.00  0.00     0.215 C 
HETATM   19  C21 UNL     1      14.817   4.109  51.482  1.00  0.00     0.156 C 
HETATM   20  C1  UNL     1      11.980   2.916  53.665  1.00  0.00     0.117 C 
HETATM   21  O1  UNL     1      13.229   4.695  54.066  1.00  0.00    -0.274 OA
HETATM   22  C20 UNL     1      15.547   3.535  50.256  1.00  0.00     0.292 C 
ENDBRANCH  12  14
ENDBRANCH   8  10
ENDBRANCH   1   8
BRANCH   7  23
HETATM   23  N5  UNL     1      24.292  -0.318  52.946  1.00  0.00    -0.282 NA
HETATM   24  C14 UNL     1      25.322  -0.500  53.771  1.00  0.00     0.154 C 
BRANCH  24  25
HETATM   25  C15 UNL     1      26.471  -0.451  52.843  1.00  0.00     0.142 C 
HETATM   26  F1  UNL     1      26.953  -0.568  51.556  1.00  0.00    -0.204 F 
HETATM   27  C16 UNL     1      27.639  -0.129  53.482  1.00  0.00     0.016 A 
HETATM   28  C17 UNL     1      27.857   0.175  54.900  1.00  0.00     0.088 A 
HETATM   29  C18 UNL     1      28.960   0.200  54.082  1.00  0.00     0.022 A 
BRANCH  29  30
HETATM   30  N6  UNL     1      30.165   0.276  53.437  1.00  0.00    -0.401 N 
HETATM   31  H20 UNL     1      30.219   0.480  52.404  1.00  0.00     0.156 HD
HETATM   32  H21 UNL     1      31.243   0.264  53.296  1.00  0.00     0.156 HD
ENDBRANCH  29  30
ENDBRANCH  24  25
ENDBRANCH   7  23
TORSDOF 6
ENDMDL
MODEL 5
REMARK VINA RESULT:      -7.9      2.737      5.834
REMARK  6 active torsions:
REMARK  status: ('A' for Active; 'I' for Inactive)
REMARK       I    between atoms: C2_2  and  N1_4 
REMARK    1  A    between atoms: N2_7  and  C5_8 
REMARK    2  A    between atoms: C7_10  and  N3_11 
REMARK    3  A    between atoms: N3_11  and  C8_12 
REMARK    4  A    between atoms: C13_18  and  N5_19 
REMARK    5  A    between atoms: C14_20  and  C15_21 
REMARK    6  A    between atoms: C18_25  and  N6_26 
ROOT
HETATM    1  C8  UNL     1      26.971   1.632  52.305  1.00  0.00     0.123 C 
HETATM    2  N4  UNL     1      27.763   0.704  52.770  1.00  0.00    -0.272 NA
HETATM    3  C9  UNL     1      27.166  -0.651  52.431  1.00  0.00     0.159 C 
HETATM    4  C10 UNL     1      26.052  -0.868  53.453  1.00  0.00     0.047 A 
HETATM    5  C11 UNL     1      26.208   0.361  54.341  1.00  0.00     0.081 A 
HETATM    6  C12 UNL     1      25.773   0.865  52.805  1.00  0.00    -0.001 A 
HETATM    7  C13 UNL     1      24.834   0.044  53.324  1.00  0.00     0.090 A 
ENDROOT
BRANCH   1   8
HETATM    8  N3  UNL     1      26.873   2.858  51.584  1.00  0.00    -0.370 N 
HETATM    9  H12 UNL     1      27.692   3.494  51.532  1.00  0.00     0.161 HD
BRANCH   8  10
HETATM   10  C7  UNL     1      25.528   2.866  51.044  1.00  0.00     0.087 C 
HETATM   11  C6  UNL     1      25.457   3.546  49.668  1.00  0.00     0.061 C 
HETATM   12  C5  UNL     1      23.992   3.719  50.037  1.00  0.00     0.227 C 
HETATM   13  C19 UNL     1      24.584   3.938  51.470  1.00  0.00     0.061 C 
BRANCH  12  14
HETATM   14  N2  UNL     1      23.328   4.924  49.606  1.00  0.00     0.096 N 
HETATM   15  C4  UNL     1      22.985   4.816  48.212  1.00  0.00     0.292 C 
HETATM   16  C3  UNL     1      21.534   5.227  48.014  1.00  0.00     0.156 C 
HETATM   17  N1  UNL     1      20.690   4.214  48.619  1.00  0.00    -0.349 N 
HETATM   18  C2  UNL     1      19.691   3.264  48.240  1.00  0.00     0.215 C 
HETATM   19  C21 UNL     1      20.989   4.206  50.029  1.00  0.00     0.156 C 
HETATM   20  C1  UNL     1      19.408   3.233  46.745  1.00  0.00     0.117 C 
HETATM   21  O1  UNL     1      18.889   2.365  48.709  1.00  0.00    -0.274 OA
HETATM   22  C20 UNL     1      22.178   5.095  50.430  1.00  0.00     0.292 C 
ENDBRANCH  12  14
ENDBRANCH   8  10
ENDBRANCH   1   8
BRANCH   7  23
HETATM   23  N5  UNL     1      23.437   0.234  53.572  1.00  0.00    -0.282 NA
HETATM   24  C14 UNL     1      22.623  -0.789  53.315  1.00  0.00     0.154 C 
BRANCH  24  25
HETATM   25  C15 UNL     1      21.306  -0.236  53.691  1.00  0.00     0.142 C 
HETATM   26  F1  UNL     1      20.395   0.073  54.680  1.00  0.00    -0.204 F 
HETATM   27  C16 UNL     1      20.605   0.218  52.604  1.00  0.00     0.016 A 
HETATM   28  C17 UNL     1      21.006   0.233  51.193  1.00  0.00     0.088 A 
HETATM   29  C18 UNL     1      19.760   0.726  51.491  1.00  0.00     0.022 A 
BRANCH  29  30
HETATM   30  N6  UNL     1      18.500   1.254  51.585  1.00  0.00    -0.401 N 
HETATM   31  H20 UNL     1      17.798   1.132  50.807  1.00  0.00     0.156 HD
HETATM   32  H21 UNL     1      17.650   1.782  52.010  1.00  0.00     0.156 HD
ENDBRANCH  29  30
ENDBRANCH  24  25
ENDBRANCH   7  23
TORSDOF 6
ENDMDL
MODEL 6
REMARK VINA RESULT:      -7.9      1.431      1.587
REMARK  6 active torsions:
REMARK  status: ('A' for Active; 'I' for Inactive)
REMARK       I    between atoms: C2_2  and  N1_4 
REMARK    1  A    between atoms: N2_7  and  C5_8 
REMARK    2  A    between atoms: C7_10  and  N3_11 
REMARK    3  A    between atoms: N3_11  and  C8_12 
REMARK    4  A    between atoms: C13_18  and  N5_19 
REMARK    5  A    between atoms: C14_20  and  C15_21 
REMARK    6  A    between atoms: C18_25  and  N6_26 
ROOT
HETATM    1  C8  UNL     1      20.537   1.045  53.064  1.00  0.00     0.123 C 
HETATM    2  N4  UNL     1      20.263  -0.147  53.522  1.00  0.00    -0.272 NA
HETATM    3  C9  UNL     1      21.154  -0.414  54.723  1.00  0.00     0.159 C 
HETATM    4  C10 UNL     1      22.518  -0.778  54.141  1.00  0.00     0.047 A 
HETATM    5  C11 UNL     1      22.222  -0.779  52.646  1.00  0.00     0.081 A 
HETATM    6  C12 UNL     1      22.010   0.776  53.230  1.00  0.00    -0.001 A 
HETATM    7  C13 UNL     1      23.275   0.351  53.445  1.00  0.00     0.090 A 
ENDROOT
BRANCH   1   8
HETATM    8  N3  UNL     1      20.013   2.287  52.598  1.00  0.00    -0.370 N 
HETATM    9  H12 UNL     1      19.075   2.602  52.911  1.00  0.00     0.161 HD
BRANCH   8  10
HETATM   10  C7  UNL     1      21.053   2.835  51.751  1.00  0.00     0.087 C 
HETATM   11  C6  UNL     1      21.331   4.315  52.054  1.00  0.00     0.061 C 
HETATM   12  C5  UNL     1      21.887   4.308  50.638  1.00  0.00     0.227 C 
HETATM   13  C19 UNL     1      20.695   3.323  50.388  1.00  0.00     0.061 C 
BRANCH  12  14
HETATM   14  N2  UNL     1      21.702   5.491  49.836  1.00  0.00     0.096 N 
HETATM   15  C4  UNL     1      22.311   6.620  50.492  1.00  0.00     0.292 C 
HETATM   16  C3  UNL     1      23.169   7.382  49.493  1.00  0.00     0.156 C 
HETATM   17  N1  UNL     1      24.317   6.560  49.163  1.00  0.00    -0.349 N 
HETATM   18  C2  UNL     1      25.742   6.589  49.273  1.00  0.00     0.215 C 
HETATM   19  C21 UNL     1      23.811   5.366  48.533  1.00  0.00     0.156 C 
HETATM   20  C1  UNL     1      26.279   7.824  49.982  1.00  0.00     0.117 C 
HETATM   21  O1  UNL     1      26.815   5.926  48.986  1.00  0.00    -0.274 OA
HETATM   22  C20 UNL     1      22.279   5.236  48.559  1.00  0.00     0.292 C 
ENDBRANCH  12  14
ENDBRANCH   8  10
ENDBRANCH   1   8
BRANCH   7  23
HETATM   23  N5  UNL     1      24.539   0.884  53.037  1.00  0.00    -0.282 NA
HETATM   24  C14 UNL     1      25.512   0.016  52.762  1.00  0.00     0.154 C 
BRANCH  24  25
HETATM   25  C15 UNL     1      26.623   0.911  52.381  1.00  0.00     0.142 C 
HETATM   26  F1  UNL     1      27.182   1.771  51.457  1.00  0.00    -0.204 F 
HETATM   27  C16 UNL     1      27.584   0.988  53.354  1.00  0.00     0.016 A 
HETATM   28  C17 UNL     1      27.617   0.334  54.667  1.00  0.00     0.088 A 
HETATM   29  C18 UNL     1      28.688   1.130  54.342  1.00  0.00     0.022 A 
BRANCH  29  30
HETATM   30  N6  UNL     1      29.829   1.873  54.204  1.00  0.00    -0.401 N 
HETATM   31  H20 UNL     1      30.677   1.688  54.804  1.00  0.00     0.156 HD
HETATM   32  H21 UNL     1      30.508   2.627  53.814  1.00  0.00     0.156 HD
ENDBRANCH  29  30
ENDBRANCH  24  25
ENDBRANCH   7  23
TORSDOF 6
ENDMDL
MODEL 7
REMARK VINA RESULT:      -7.8      3.282      4.903
REMARK  6 active torsions:
REMARK  status: ('A' for Active; 'I' for Inactive)
REMARK       I    between atoms: C2_2  and  N1_4 
REMARK    1  A    between atoms: N2_7  and  C5_8 
REMARK    2  A    between atoms: C7_10  and  N3_11 
REMARK    3  A    between atoms: N3_11  and  C8_12 
REMARK    4  A    between atoms: C13_18  and  N5_19 
REMARK    5  A    between atoms: C14_20  and  C15_21 
REMARK    6  A    between atoms: C18_25  and  N6_26 
ROOT
HETATM    1  C8  UNL     1      22.538   4.606  51.469  1.00  0.00     0.123 C 
HETATM    2  N4  UNL     1      21.715   3.644  51.152  1.00  0.00    -0.272 NA
HETATM    3  C9  UNL     1      21.781   2.582  52.237  1.00  0.00     0.159 C 
HETATM    4  C10 UNL     1      23.058   1.795  51.954  1.00  0.00     0.047 A 
HETATM    5  C11 UNL     1      23.535   2.440  50.658  1.00  0.00     0.081 A 
HETATM    6  C12 UNL     1      23.577   3.592  51.873  1.00  0.00    -0.001 A 
HETATM    7  C13 UNL     1      24.372   2.542  52.179  1.00  0.00     0.090 A 
ENDROOT
BRANCH   1   8
HETATM    8  N3  UNL     1      22.730   6.014  51.584  1.00  0.00    -0.370 N 
HETATM    9  H12 UNL     1      21.999   6.602  52.029  1.00  0.00     0.161 HD
BRANCH   8  10
HETATM   10  C7  UNL     1      24.040   6.259  51.014  1.00  0.00     0.087 C 
HETATM   11  C6  UNL     1      24.366   7.758  50.926  1.00  0.00     0.061 C 
HETATM   12  C5  UNL     1      25.341   7.293  49.856  1.00  0.00     0.227 C 
HETATM   13  C19 UNL     1      24.193   6.279  49.531  1.00  0.00     0.061 C 
BRANCH  12  14
HETATM   14  N2  UNL     1      25.553   8.153  48.719  1.00  0.00     0.096 N 
HETATM   15  C4  UNL     1      26.195   9.369  49.145  1.00  0.00     0.292 C 
HETATM   16  C3  UNL     1      27.374   9.666  48.230  1.00  0.00     0.156 C 
HETATM   17  N1  UNL     1      28.401   8.671  48.478  1.00  0.00    -0.349 N 
HETATM   18  C2  UNL     1      29.748   8.595  48.951  1.00  0.00     0.215 C 
HETATM   19  C21 UNL     1      27.839   7.391  48.123  1.00  0.00     0.156 C 
HETATM   20  C1  UNL     1      30.328   9.936  49.374  1.00  0.00     0.117 C 
HETATM   21  O1  UNL     1      30.720   7.771  49.170  1.00  0.00    -0.274 OA
HETATM   22  C20 UNL     1      26.342   7.430  47.777  1.00  0.00     0.292 C 
ENDBRANCH  12  14
ENDBRANCH   8  10
ENDBRANCH   1   8
BRANCH   7  23
HETATM   23  N5  UNL     1      25.770   2.463  52.471  1.00  0.00    -0.282 NA
HETATM   24  C14 UNL     1      26.121   2.042  53.686  1.00  0.00     0.154 C 
BRANCH  24  25
HETATM   25  C15 UNL     1      27.595   2.083  53.612  1.00  0.00     0.142 C 
HETATM   26  F1  UNL     1      28.753   2.831  53.554  1.00  0.00    -0.204 F 
HETATM   27  C16 UNL     1      28.149   0.830  53.609  1.00  0.00     0.016 A 
HETATM   28  C17 UNL     1      27.478  -0.471  53.688  1.00  0.00     0.088 A 
HETATM   29  C18 UNL     1      28.847  -0.484  53.587  1.00  0.00     0.022 A 
BRANCH  29  30
HETATM   30  N6  UNL     1      30.195  -0.702  53.492  1.00  0.00    -0.401 N 
HETATM   31  H20 UNL     1      30.636  -1.009  52.585  1.00  0.00     0.156 HD
HETATM   32  H21 UNL     1      31.237  -0.761  53.797  1.00  0.00     0.156 HD
ENDBRANCH  29  30
ENDBRANCH  24  25
ENDBRANCH   7  23
TORSDOF 6
ENDMDL
MODEL 8
REMARK VINA RESULT:      -7.5      5.068      7.548
REMARK  6 active torsions:
REMARK  status: ('A' for Active; 'I' for Inactive)
REMARK       I    between atoms: C2_2  and  N1_4 
REMARK    1  A    between atoms: N2_7  and  C5_8 
REMARK    2  A    between atoms: C7_10  and  N3_11 
REMARK    3  A    between atoms: N3_11  and  C8_12 
REMARK    4  A    between atoms: C13_18  and  N5_19 
REMARK    5  A    between atoms: C14_20  and  C15_21 
REMARK    6  A    between atoms: C18_25  and  N6_26 
ROOT
HETATM    1  C8  UNL     1      26.401   5.060  49.226  1.00  0.00     0.123 C 
HETATM    2  N4  UNL     1      25.148   5.430  49.220  1.00  0.00    -0.272 NA
HETATM    3  C9  UNL     1      24.592   5.259  50.623  1.00  0.00     0.159 C 
HETATM    4  C10 UNL     1      24.314   3.764  50.768  1.00  0.00     0.047 A 
HETATM    5  C11 UNL     1      24.651   3.254  49.371  1.00  0.00     0.081 A 
HETATM    6  C12 UNL     1      26.047   3.861  50.068  1.00  0.00    -0.001 A 
HETATM    7  C13 UNL     1      25.539   2.853  50.811  1.00  0.00     0.090 A 
ENDROOT
BRANCH   1   8
HETATM    8  N3  UNL     1      27.733   5.372  48.824  1.00  0.00    -0.370 N 
HETATM    9  H12 UNL     1      28.473   4.646  48.877  1.00  0.00     0.161 HD
BRANCH   8  10
HETATM   10  C7  UNL     1      27.675   6.751  48.382  1.00  0.00     0.087 C 
HETATM   11  C6  UNL     1      29.047   7.439  48.441  1.00  0.00     0.061 C 
HETATM   12  C5  UNL     1      28.203   8.704  48.484  1.00  0.00     0.227 C 
HETATM   13  C19 UNL     1      27.257   7.805  49.350  1.00  0.00     0.061 C 
BRANCH  12  14
HETATM   14  N2  UNL     1      28.679   9.804  49.284  1.00  0.00     0.096 N 
HETATM   15  C4  UNL     1      30.112   9.731  49.403  1.00  0.00     0.292 C 
HETATM   16  C3  UNL     1      30.715  11.094  49.100  1.00  0.00     0.156 C 
HETATM   17  N1  UNL     1      30.537  11.363  47.686  1.00  0.00    -0.349 N 
HETATM   18  C2  UNL     1      31.325  11.585  46.514  1.00  0.00     0.215 C 
HETATM   19  C21 UNL     1      29.116  11.413  47.444  1.00  0.00     0.156 C 
HETATM   20  C1  UNL     1      32.824  11.484  46.753  1.00  0.00     0.117 C 
HETATM   21  O1  UNL     1      31.246  11.854  45.252  1.00  0.00    -0.274 OA
HETATM   22  C20 UNL     1      28.253  11.008  48.651  1.00  0.00     0.292 C 
ENDBRANCH  12  14
ENDBRANCH   8  10
ENDBRANCH   1   8
BRANCH   7  23
HETATM   23  N5  UNL     1      26.101   1.607  51.233  1.00  0.00    -0.282 NA
HETATM   24  C14 UNL     1      25.934   1.257  52.508  1.00  0.00     0.154 C 
BRANCH  24  25
HETATM   25  C15 UNL     1      26.622  -0.049  52.562  1.00  0.00     0.142 C 
HETATM   26  F1  UNL     1      26.603  -1.403  52.301  1.00  0.00    -0.204 F 
HETATM   27  C16 UNL     1      27.880   0.050  53.096  1.00  0.00     0.016 A 
HETATM   28  C17 UNL     1      28.585   1.245  53.571  1.00  0.00     0.088 A 
HETATM   29  C18 UNL     1      29.251   0.049  53.672  1.00  0.00     0.022 A 
BRANCH  29  30
HETATM   30  N6  UNL     1      30.070  -1.033  53.853  1.00  0.00    -0.401 N 
HETATM   31  H20 UNL     1      30.176  -1.485  54.801  1.00  0.00     0.156 HD
HETATM   32  H21 UNL     1      30.767  -1.831  53.608  1.00  0.00     0.156 HD
ENDBRANCH  29  30
ENDBRANCH  24  25
ENDBRANCH   7  23
TORSDOF 6
ENDMDL
MODEL 9
REMARK VINA RESULT:      -7.3      3.206      5.753
REMARK  6 active torsions:
REMARK  status: ('A' for Active; 'I' for Inactive)
REMARK       I    between atoms: C2_2  and  N1_4 
REMARK    1  A    between atoms: N2_7  and  C5_8 
REMARK    2  A    between atoms: C7_10  and  N3_11 
REMARK    3  A    between atoms: N3_11  and  C8_12 
REMARK    4  A    between atoms: C13_18  and  N5_19 
REMARK    5  A    between atoms: C14_20  and  C15_21 
REMARK    6  A    between atoms: C18_25  and  N6_26 
ROOT
HETATM    1  C8  UNL     1      23.214  -0.103  53.818  1.00  0.00     0.123 C 
HETATM    2  N4  UNL     1      22.823  -0.932  54.747  1.00  0.00    -0.272 NA
HETATM    3  C9  UNL     1      21.842  -1.915  54.130  1.00  0.00     0.159 C 
HETATM    4  C10 UNL     1      20.521  -1.156  54.029  1.00  0.00     0.047 A 
HETATM    5  C11 UNL     1      20.873   0.163  54.706  1.00  0.00     0.081 A 
HETATM    6  C12 UNL     1      21.797   0.014  53.318  1.00  0.00    -0.001 A 
HETATM    7  C13 UNL     1      20.479  -0.009  53.022  1.00  0.00     0.090 A 
ENDROOT
BRANCH   1   8
HETATM    8  N3  UNL     1      24.319   0.561  53.207  1.00  0.00    -0.370 N 
HETATM    9  H12 UNL     1      25.269   0.145  53.265  1.00  0.00     0.161 HD
BRANCH   8  10
HETATM   10  C7  UNL     1      23.748   1.739  52.586  1.00  0.00     0.087 C 
HETATM   11  C6  UNL     1      24.329   2.000  51.188  1.00  0.00     0.061 C 
HETATM   12  C5  UNL     1      23.857   3.420  51.460  1.00  0.00     0.227 C 
HETATM   13  C19 UNL     1      24.312   3.078  52.920  1.00  0.00     0.061 C 
BRANCH  12  14
HETATM   14  N2  UNL     1      24.659   4.504  50.953  1.00  0.00     0.096 N 
HETATM   15  C4  UNL     1      24.852   4.342  49.535  1.00  0.00     0.292 C 
HETATM   16  C3  UNL     1      24.554   5.657  48.831  1.00  0.00     0.156 C 
HETATM   17  N1  UNL     1      23.127   5.906  48.922  1.00  0.00    -0.349 N 
HETATM   18  C2  UNL     1      21.993   6.051  48.064  1.00  0.00     0.215 C 
HETATM   19  C21 UNL     1      22.814   6.041  50.323  1.00  0.00     0.156 C 
HETATM   20  C1  UNL     1      22.309   5.859  46.588  1.00  0.00     0.117 C 
HETATM   21  O1  UNL     1      20.723   6.296  48.064  1.00  0.00    -0.274 OA
HETATM   22  C20 UNL     1      23.983   5.719  51.268  1.00  0.00     0.292 C 
ENDBRANCH  12  14
ENDBRANCH   8  10
ENDBRANCH   1   8
BRANCH   7  23
HETATM   23  N5  UNL     1      19.682   0.820  52.170  1.00  0.00    -0.282 NA
HETATM   24  C14 UNL     1      19.100   0.241  51.120  1.00  0.00     0.154 C 
BRANCH  24  25
HETATM   25  C15 UNL     1      18.380   1.375  50.504  1.00  0.00     0.142 C 
HETATM   26  F1  UNL     1      17.263   2.184  50.470  1.00  0.00    -0.204 F 
HETATM   27  C16 UNL     1      19.099   1.960  49.496  1.00  0.00     0.016 A 
HETATM   28  C17 UNL     1      20.438   1.616  49.003  1.00  0.00     0.088 A 
HETATM   29  C18 UNL     1      19.793   2.655  48.379  1.00  0.00     0.022 A 
BRANCH  29  30
HETATM   30  N6  UNL     1      19.320   3.705  47.638  1.00  0.00    -0.401 N 
HETATM   31  H20 UNL     1      18.920   3.557  46.674  1.00  0.00     0.156 HD
HETATM   32  H21 UNL     1      19.054   4.728  47.382  1.00  0.00     0.156 HD
ENDBRANCH  29  30
ENDBRANCH  24  25
ENDBRANCH   7  23
TORSDOF 6
ENDMDL
