MODEL 1
REMARK VINA RESULT:      -9.3      0.000      0.000
REMARK  4 active torsions:
REMARK  status: ('A' for Active; 'I' for Inactive)
REMARK    1  A    between atoms: C13_15  and  C14_16 
REMARK    2  A    between atoms: C15_17  and  C16_18 
REMARK    3  A    between atoms: N2_24  and  C21_25 
REMARK    4  A    between atoms: C21_25  and  C22_26 
ROOT
HETATM    1  C1  UNL     1      24.828  -0.743  54.321  1.00  0.00     0.050 C 
HETATM    2  C2  UNL     1      23.716  -0.017  53.752  1.00  0.00    -0.038 C 
HETATM    3  C3  UNL     1      24.342   0.980  53.163  1.00  0.00     0.024 C 
HETATM    4  C4  UNL     1      23.484   1.999  52.422  1.00  0.00     0.064 A 
HETATM    5  C5  UNL     1      24.158   1.763  51.091  1.00  0.00     0.037 A 
HETATM    6  C6  UNL     1      22.855   1.403  51.382  1.00  0.00     0.005 A 
HETATM    7  C7  UNL     1      21.497   0.997  51.596  1.00  0.00     0.053 C 
HETATM    8  C8  UNL     1      20.574   2.086  51.969  1.00  0.00     0.133 C 
HETATM    9  N1  UNL     1      19.418   1.217  52.419  1.00  0.00    -0.356 N 
HETATM   10  C9  UNL     1      19.972  -0.031  52.981  1.00  0.00     0.248 C 
HETATM   11  O1  UNL     1      19.573  -1.129  53.460  1.00  0.00    -0.268 OA
HETATM   12  C10 UNL     1      21.385   0.195  52.909  1.00  0.00     0.017 C 
HETATM   13  C11 UNL     1      22.278  -0.265  53.828  1.00  0.00     0.022 C 
HETATM   14  C12 UNL     1      25.526   2.157  51.536  1.00  0.00     0.023 C 
HETATM   15  C13 UNL     1      26.529   2.790  51.003  1.00  0.00     0.026 C 
HETATM   16  N2  UNL     1      25.593   1.602  52.898  1.00  0.00    -0.352 N 
HETATM   17  H8  UNL     1      18.355   1.268  52.435  1.00  0.00     0.162 HD
ENDROOT
BRANCH  15  18
HETATM   18  C14 UNL     1      26.540   3.326  49.682  1.00  0.00     0.000 C 
HETATM   19  C15 UNL     1      26.070   4.490  49.276  1.00  0.00     0.005 C 
BRANCH  19  20
HETATM   20  C16 UNL     1      25.405   5.617  49.920  1.00  0.00     0.144 C 
HETATM   21  C17 UNL     1      23.918   5.397  50.167  1.00  0.00     0.036 C 
HETATM   22  C18 UNL     1      23.483   6.460  51.143  1.00  0.00     0.005 C 
HETATM   23  C19 UNL     1      23.948   7.840  50.787  1.00  0.00     0.026 C 
HETATM   24  C20 UNL     1      25.296   7.860  50.121  1.00  0.00     0.168 C 
HETATM   25  O2  UNL     1      25.483   6.825  49.234  1.00  0.00    -0.382 OA
ENDBRANCH  19  20
ENDBRANCH  15  18
BRANCH  16  26
HETATM   26  C21 UNL     1      26.554   1.469  53.933  1.00  0.00     0.133 C 
BRANCH  26  27
HETATM   27  C22 UNL     1      27.908   1.218  53.212  1.00  0.00    -0.004 C 
HETATM   28  C23 UNL     1      28.417  -0.174  53.458  1.00  0.00     0.011 C 
HETATM   29  C24 UNL     1      28.967   2.158  53.772  1.00  0.00     0.011 C 
ENDBRANCH  26  27
ENDBRANCH  16  26
TORSDOF 4
ENDMDL
MODEL 2
REMARK VINA RESULT:      -9.0      2.472      4.828
REMARK  4 active torsions:
REMARK  status: ('A' for Active; 'I' for Inactive)
REMARK    1  A    between atoms: C13_15  and  C14_16 
REMARK    2  A    between atoms: C15_17  and  C16_18 
REMARK    3  A    between atoms: N2_24  and  C21_25 
REMARK    4  A    between atoms: C21_25  and  C22_26 
ROOT
HETATM    1  C1  UNL     1      22.509   2.590  52.441  1.00  0.00     0.050 C 
HETATM    2  C2  UNL     1      23.674   1.736  52.426  1.00  0.00    -0.038 C 
HETATM    3  C3  UNL     1      24.292   2.174  51.350  1.00  0.00     0.024 C 
HETATM    4  C4  UNL     1      25.612   1.504  50.985  1.00  0.00     0.064 A 
HETATM    5  C5  UNL     1      26.411   2.783  51.063  1.00  0.00     0.037 A 
HETATM    6  C6  UNL     1      26.529   1.733  51.953  1.00  0.00     0.005 A 
HETATM    7  C7  UNL     1      26.718   0.693  52.923  1.00  0.00     0.053 C 
HETATM    8  C8  UNL     1      27.134  -0.608  52.365  1.00  0.00     0.133 C 
HETATM    9  N1  UNL     1      26.881  -1.442  53.603  1.00  0.00    -0.356 N 
HETATM   10  C9  UNL     1      25.748  -0.843  54.338  1.00  0.00     0.248 C 
HETATM   11  O1  UNL     1      25.102  -1.010  55.410  1.00  0.00    -0.268 OA
HETATM   12  C10 UNL     1      25.354   0.234  53.478  1.00  0.00     0.017 C 
HETATM   13  C11 UNL     1      24.067   0.647  53.316  1.00  0.00     0.022 C 
HETATM   14  C12 UNL     1      25.651   3.507  50.004  1.00  0.00     0.023 C 
HETATM   15  C13 UNL     1      25.949   4.344  49.054  1.00  0.00     0.026 C 
HETATM   16  N2  UNL     1      24.265   3.078  50.253  1.00  0.00    -0.352 N 
HETATM   17  H8  UNL     1      27.289  -2.310  54.064  1.00  0.00     0.162 HD
ENDROOT
BRANCH  15  18
HETATM   18  C14 UNL     1      27.265   4.821  48.778  1.00  0.00     0.000 C 
HETATM   19  C15 UNL     1      27.651   6.068  48.592  1.00  0.00     0.005 C 
BRANCH  19  20
HETATM   20  C16 UNL     1      26.986   7.366  48.585  1.00  0.00     0.144 C 
HETATM   21  C17 UNL     1      26.915   8.015  47.208  1.00  0.00     0.036 C 
HETATM   22  C18 UNL     1      25.902   9.126  47.309  1.00  0.00     0.005 C 
HETATM   23  C19 UNL     1      26.088  10.013  48.504  1.00  0.00     0.026 C 
HETATM   24  C20 UNL     1      26.605   9.281  49.711  1.00  0.00     0.168 C 
HETATM   25  O2  UNL     1      27.554   8.331  49.411  1.00  0.00    -0.382 OA
ENDBRANCH  19  20
ENDBRANCH  15  18
BRANCH  16  26
HETATM   26  C21 UNL     1      22.968   3.373  49.757  1.00  0.00     0.133 C 
BRANCH  26  27
HETATM   27  C22 UNL     1      22.734   2.375  48.589  1.00  0.00    -0.004 C 
HETATM   28  C23 UNL     1      22.231   3.073  47.357  1.00  0.00     0.011 C 
HETATM   29  C24 UNL     1      21.651   1.378  48.979  1.00  0.00     0.011 C 
ENDBRANCH  26  27
ENDBRANCH  16  26
TORSDOF 4
ENDMDL
MODEL 3
REMARK VINA RESULT:      -9.0      2.200      5.265
REMARK  4 active torsions:
REMARK  status: ('A' for Active; 'I' for Inactive)
REMARK    1  A    between atoms: C13_15  and  C14_16 
REMARK    2  A    between atoms: C15_17  and  C16_18 
REMARK    3  A    between atoms: N2_24  and  C21_25 
REMARK    4  A    between atoms: C21_25  and  C22_26 
ROOT
HETATM    1  C1  UNL     1      22.837  -1.015  53.696  1.00  0.00     0.050 C 
HETATM    2  C2  UNL     1      24.013  -0.219  53.437  1.00  0.00    -0.038 C 
HETATM    3  C3  UNL     1      23.514   0.723  52.664  1.00  0.00     0.024 C 
HETATM    4  C4  UNL     1      24.475   1.797  52.166  1.00  0.00     0.064 A 
HETATM    5  C5  UNL     1      23.704   2.933  52.794  1.00  0.00     0.037 A 
HETATM    6  C6  UNL     1      24.951   2.510  53.213  1.00  0.00     0.005 A 
HETATM    7  C7  UNL     1      26.242   2.138  53.714  1.00  0.00     0.053 C 
HETATM    8  C8  UNL     1      27.337   2.215  52.727  1.00  0.00     0.133 C 
HETATM    9  N1  UNL     1      28.371   1.446  53.523  1.00  0.00    -0.356 N 
HETATM   10  C9  UNL     1      27.667   0.443  54.346  1.00  0.00     0.248 C 
HETATM   11  O1  UNL     1      27.921  -0.435  55.217  1.00  0.00    -0.268 OA
HETATM   12  C10 UNL     1      26.301   0.614  53.944  1.00  0.00     0.017 C 
HETATM   13  C11 UNL     1      25.399  -0.402  53.861  1.00  0.00     0.022 C 
HETATM   14  C12 UNL     1      22.436   2.696  52.046  1.00  0.00     0.023 C 
HETATM   15  C13 UNL     1      21.513   3.445  51.520  1.00  0.00     0.026 C 
HETATM   16  N2  UNL     1      22.359   1.226  52.005  1.00  0.00    -0.352 N 
HETATM   17  H8  UNL     1      29.429   1.440  53.639  1.00  0.00     0.162 HD
ENDROOT
BRANCH  15  18
HETATM   18  C14 UNL     1      21.514   4.871  51.550  1.00  0.00     0.000 C 
HETATM   19  C15 UNL     1      22.464   5.689  51.141  1.00  0.00     0.005 C 
BRANCH  19  20
HETATM   20  C16 UNL     1      23.786   5.523  50.549  1.00  0.00     0.144 C 
HETATM   21  C17 UNL     1      24.364   6.804  49.960  1.00  0.00     0.036 C 
HETATM   22  C18 UNL     1      25.832   6.550  49.739  1.00  0.00     0.005 C 
HETATM   23  C19 UNL     1      26.129   5.253  49.047  1.00  0.00     0.026 C 
HETATM   24  C20 UNL     1      25.166   4.156  49.405  1.00  0.00     0.168 C 
HETATM   25  O2  UNL     1      23.864   4.586  49.523  1.00  0.00    -0.382 OA
ENDBRANCH  19  20
ENDBRANCH  15  18
BRANCH  16  26
HETATM   26  C21 UNL     1      21.444   0.233  51.568  1.00  0.00     0.133 C 
BRANCH  26  27
HETATM   27  C22 UNL     1      20.052   0.695  52.083  1.00  0.00    -0.004 C 
HETATM   28  C23 UNL     1      19.512  -0.237  53.131  1.00  0.00     0.011 C 
HETATM   29  C24 UNL     1      19.049   0.668  50.938  1.00  0.00     0.011 C 
ENDBRANCH  26  27
ENDBRANCH  16  26
TORSDOF 4
ENDMDL
MODEL 4
REMARK VINA RESULT:      -8.9      2.728      5.723
REMARK  4 active torsions:
REMARK  status: ('A' for Active; 'I' for Inactive)
REMARK    1  A    between atoms: C13_15  and  C14_16 
REMARK    2  A    between atoms: C15_17  and  C16_18 
REMARK    3  A    between atoms: N2_24  and  C21_25 
REMARK    4  A    between atoms: C21_25  and  C22_26 
ROOT
HETATM    1  C1  UNL     1      20.190   2.148  49.827  1.00  0.00     0.050 C 
HETATM    2  C2  UNL     1      20.203   1.139  50.861  1.00  0.00    -0.038 C 
HETATM    3  C3  UNL     1      21.478   1.127  51.184  1.00  0.00     0.024 C 
HETATM    4  C4  UNL     1      21.908   0.162  52.284  1.00  0.00     0.064 A 
HETATM    5  C5  UNL     1      22.452   1.250  53.179  1.00  0.00     0.037 A 
HETATM    6  C6  UNL     1      21.321   0.505  53.454  1.00  0.00     0.005 A 
HETATM    7  C7  UNL     1      20.138  -0.219  53.819  1.00  0.00     0.053 C 
HETATM    8  C8  UNL     1      20.317  -1.678  53.947  1.00  0.00     0.133 C 
HETATM    9  N1  UNL     1      18.850  -2.052  53.984  1.00  0.00    -0.356 N 
HETATM   10  C9  UNL     1      18.105  -1.078  53.162  1.00  0.00     0.248 C 
HETATM   11  O1  UNL     1      16.916  -0.807  52.834  1.00  0.00    -0.268 OA
HETATM   12  C10 UNL     1      19.151  -0.252  52.634  1.00  0.00     0.017 C 
HETATM   13  C11 UNL     1      19.125   0.311  51.395  1.00  0.00     0.022 C 
HETATM   14  C12 UNL     1      23.475   1.749  52.215  1.00  0.00     0.023 C 
HETATM   15  C13 UNL     1      24.690   2.203  52.303  1.00  0.00     0.026 C 
HETATM   16  N2  UNL     1      22.772   1.658  50.925  1.00  0.00    -0.352 N 
HETATM   17  H8  UNL     1      18.241  -2.803  54.429  1.00  0.00     0.162 HD
ENDROOT
BRANCH  15  18
HETATM   18  C14 UNL     1      25.417   2.343  53.522  1.00  0.00     0.000 C 
HETATM   19  C15 UNL     1      26.377   1.568  53.986  1.00  0.00     0.005 C 
BRANCH  19  20
HETATM   20  C16 UNL     1      27.047   0.360  53.518  1.00  0.00     0.144 C 
HETATM   21  C17 UNL     1      26.125  -0.845  53.386  1.00  0.00     0.036 C 
HETATM   22  C18 UNL     1      26.866  -1.865  52.561  1.00  0.00     0.005 C 
HETATM   23  C19 UNL     1      28.279  -2.097  53.006  1.00  0.00     0.026 C 
HETATM   24  C20 UNL     1      28.942  -0.861  53.547  1.00  0.00     0.168 C 
HETATM   25  O2  UNL     1      28.104  -0.078  54.309  1.00  0.00    -0.382 OA
ENDBRANCH  19  20
ENDBRANCH  15  18
BRANCH  16  26
HETATM   26  C21 UNL     1      23.009   2.012  49.572  1.00  0.00     0.133 C 
BRANCH  26  27
HETATM   27  C22 UNL     1      23.432   3.507  49.601  1.00  0.00    -0.004 C 
HETATM   28  C23 UNL     1      22.760   4.294  48.511  1.00  0.00     0.011 C 
HETATM   29  C24 UNL     1      24.928   3.619  49.341  1.00  0.00     0.011 C 
ENDBRANCH  26  27
ENDBRANCH  16  26
TORSDOF 4
ENDMDL
MODEL 5
REMARK VINA RESULT:      -8.7      2.713      4.651
REMARK  4 active torsions:
REMARK  status: ('A' for Active; 'I' for Inactive)
REMARK    1  A    between atoms: C13_15  and  C14_16 
REMARK    2  A    between atoms: C15_17  and  C16_18 
REMARK    3  A    between atoms: N2_24  and  C21_25 
REMARK    4  A    between atoms: C21_25  and  C22_26 
ROOT
HETATM    1  C1  UNL     1      25.869   0.911  52.027  1.00  0.00     0.050 C 
HETATM    2  C2  UNL     1      24.501   0.822  52.481  1.00  0.00    -0.038 C 
HETATM    3  C3  UNL     1      23.889   1.564  51.582  1.00  0.00     0.024 C 
HETATM    4  C4  UNL     1      22.379   1.719  51.719  1.00  0.00     0.064 A 
HETATM    5  C5  UNL     1      22.085   1.134  50.358  1.00  0.00     0.037 A 
HETATM    6  C6  UNL     1      21.776   0.518  51.555  1.00  0.00     0.005 A 
HETATM    7  C7  UNL     1      21.419  -0.194  52.748  1.00  0.00     0.053 C 
HETATM    8  C8  UNL     1      20.498   0.526  53.649  1.00  0.00     0.133 C 
HETATM    9  N1  UNL     1      20.667  -0.370  54.858  1.00  0.00    -0.356 N 
HETATM   10  C9  UNL     1      22.044  -0.902  54.848  1.00  0.00     0.248 C 
HETATM   11  O1  UNL     1      22.772  -1.696  55.507  1.00  0.00    -0.268 OA
HETATM   12  C10 UNL     1      22.623  -0.248  53.712  1.00  0.00     0.017 C 
HETATM   13  C11 UNL     1      23.925   0.143  53.639  1.00  0.00     0.022 C 
HETATM   14  C12 UNL     1      22.848   2.154  49.581  1.00  0.00     0.023 C 
HETATM   15  C13 UNL     1      22.689   2.767  48.446  1.00  0.00     0.026 C 
HETATM   16  N2  UNL     1      24.029   2.385  50.429  1.00  0.00    -0.352 N 
HETATM   17  H8  UNL     1      20.076  -0.703  55.678  1.00  0.00     0.162 HD
ENDROOT
BRANCH  15  18
HETATM   18  C14 UNL     1      21.585   2.568  47.565  1.00  0.00     0.000 C 
HETATM   19  C15 UNL     1      20.306   2.772  47.812  1.00  0.00     0.005 C 
BRANCH  19  20
HETATM   20  C16 UNL     1      19.536   3.235  48.960  1.00  0.00     0.144 C 
HETATM   21  C17 UNL     1      18.745   2.136  49.658  1.00  0.00     0.036 C 
HETATM   22  C18 UNL     1      18.327   2.690  50.995  1.00  0.00     0.005 C 
HETATM   23  C19 UNL     1      17.726   4.062  50.925  1.00  0.00     0.026 C 
HETATM   24  C20 UNL     1      18.331   4.921  49.850  1.00  0.00     0.168 C 
HETATM   25  O2  UNL     1      18.605   4.234  48.689  1.00  0.00    -0.382 OA
ENDBRANCH  19  20
ENDBRANCH  15  18
BRANCH  16  26
HETATM   26  C21 UNL     1      25.242   3.119  50.365  1.00  0.00     0.133 C 
BRANCH  26  27
HETATM   27  C22 UNL     1      24.849   4.524  49.831  1.00  0.00    -0.004 C 
HETATM   28  C23 UNL     1      26.050   5.289  49.350  1.00  0.00     0.011 C 
HETATM   29  C24 UNL     1      24.249   5.350  50.961  1.00  0.00     0.011 C 
ENDBRANCH  26  27
ENDBRANCH  16  26
TORSDOF 4
ENDMDL
MODEL 6
REMARK VINA RESULT:      -8.7      2.727      6.602
REMARK  4 active torsions:
REMARK  status: ('A' for Active; 'I' for Inactive)
REMARK    1  A    between atoms: C13_15  and  C14_16 
REMARK    2  A    between atoms: C15_17  and  C16_18 
REMARK    3  A    between atoms: N2_24  and  C21_25 
REMARK    4  A    between atoms: C21_25  and  C22_26 
ROOT
HETATM    1  C1  UNL     1      26.396   2.883  50.228  1.00  0.00     0.050 C 
HETATM    2  C2  UNL     1      26.429   2.191  51.496  1.00  0.00    -0.038 C 
HETATM    3  C3  UNL     1      25.146   2.119  51.777  1.00  0.00     0.024 C 
HETATM    4  C4  UNL     1      24.756   1.429  53.080  1.00  0.00     0.064 A 
HETATM    5  C5  UNL     1      23.911   0.378  52.399  1.00  0.00     0.037 A 
HETATM    6  C6  UNL     1      25.112   0.124  53.034  1.00  0.00     0.005 A 
HETATM    7  C7  UNL     1      26.347  -0.231  53.670  1.00  0.00     0.053 C 
HETATM    8  C8  UNL     1      26.420   0.089  55.109  1.00  0.00     0.133 C 
HETATM    9  N1  UNL     1      27.912  -0.105  55.277  1.00  0.00    -0.356 N 
HETATM   10  C9  UNL     1      28.571   0.264  54.008  1.00  0.00     0.248 C 
HETATM   11  O1  UNL     1      29.724   0.285  53.495  1.00  0.00    -0.268 OA
HETATM   12  C10 UNL     1      27.472   0.719  53.208  1.00  0.00     0.017 C 
HETATM   13  C11 UNL     1      27.559   1.726  52.297  1.00  0.00     0.022 C 
HETATM   14  C12 UNL     1      22.951   1.331  51.772  1.00  0.00     0.023 C 
HETATM   15  C13 UNL     1      21.673   1.339  51.532  1.00  0.00     0.026 C 
HETATM   16  N2  UNL     1      23.823   2.447  51.370  1.00  0.00    -0.352 N 
HETATM   17  H8  UNL     1      28.583  -0.424  56.040  1.00  0.00     0.162 HD
ENDROOT
BRANCH  15  18
HETATM   18  C14 UNL     1      20.779   0.281  51.868  1.00  0.00     0.000 C 
HETATM   19  C15 UNL     1      19.468   0.253  51.729  1.00  0.00     0.005 C 
BRANCH  19  20
HETATM   20  C16 UNL     1      18.462   1.183  51.229  1.00  0.00     0.144 C 
HETATM   21  C17 UNL     1      18.468   1.344  49.714  1.00  0.00     0.036 C 
HETATM   22  C18 UNL     1      17.172   2.019  49.349  1.00  0.00     0.005 C 
HETATM   23  C19 UNL     1      16.854   3.220  50.188  1.00  0.00     0.026 C 
HETATM   24  C20 UNL     1      17.322   3.091  51.611  1.00  0.00     0.168 C 
HETATM   25  O2  UNL     1      18.549   2.479  51.730  1.00  0.00    -0.382 OA
ENDBRANCH  19  20
ENDBRANCH  15  18
BRANCH  16  26
HETATM   26  C21 UNL     1      23.707   3.668  50.655  1.00  0.00     0.133 C 
BRANCH  26  27
HETATM   27  C22 UNL     1      23.500   4.764  51.737  1.00  0.00    -0.004 C 
HETATM   28  C23 UNL     1      22.041   5.008  52.006  1.00  0.00     0.011 C 
HETATM   29  C24 UNL     1      24.063   6.087  51.237  1.00  0.00     0.011 C 
ENDBRANCH  26  27
ENDBRANCH  16  26
TORSDOF 4
ENDMDL
MODEL 7
REMARK VINA RESULT:      -8.0      3.025      3.968
REMARK  4 active torsions:
REMARK  status: ('A' for Active; 'I' for Inactive)
REMARK    1  A    between atoms: C13_15  and  C14_16 
REMARK    2  A    between atoms: C15_17  and  C16_18 
REMARK    3  A    between atoms: N2_24  and  C21_25 
REMARK    4  A    between atoms: C21_25  and  C22_26 
ROOT
HETATM    1  C1  UNL     1      25.291   1.345  52.610  1.00  0.00     0.050 C 
HETATM    2  C2  UNL     1      23.885   1.030  52.711  1.00  0.00    -0.038 C 
HETATM    3  C3  UNL     1      23.391   1.777  51.746  1.00  0.00     0.024 C 
HETATM    4  C4  UNL     1      21.884   1.718  51.522  1.00  0.00     0.064 A 
HETATM    5  C5  UNL     1      22.003   1.247  50.092  1.00  0.00     0.037 A 
HETATM    6  C6  UNL     1      21.524   0.472  51.131  1.00  0.00     0.005 A 
HETATM    7  C7  UNL     1      21.016  -0.402  52.148  1.00  0.00     0.053 C 
HETATM    8  C8  UNL     1      19.813   0.092  52.847  1.00  0.00     0.133 C 
HETATM    9  N1  UNL     1      19.834  -0.897  53.994  1.00  0.00    -0.356 N 
HETATM   10  C9  UNL     1      21.241  -1.241  54.281  1.00  0.00     0.248 C 
HETATM   11  O1  UNL     1      21.910  -1.998  55.037  1.00  0.00    -0.268 OA
HETATM   12  C10 UNL     1      21.959  -0.400  53.369  1.00  0.00     0.017 C 
HETATM   13  C11 UNL     1      23.168   0.163  53.642  1.00  0.00     0.022 C 
HETATM   14  C12 UNL     1      22.760   2.434  49.600  1.00  0.00     0.023 C 
HETATM   15  C13 UNL     1      22.775   3.138  48.506  1.00  0.00     0.026 C 
HETATM   16  N2  UNL     1      23.665   2.726  50.723  1.00  0.00    -0.352 N 
HETATM   17  H8  UNL     1      19.128  -1.389  54.621  1.00  0.00     0.162 HD
ENDROOT
BRANCH  15  18
HETATM   18  C14 UNL     1      21.947   2.891  47.372  1.00  0.00     0.000 C 
HETATM   19  C15 UNL     1      21.651   3.719  46.390  1.00  0.00     0.005 C 
BRANCH  19  20
HETATM   20  C16 UNL     1      21.996   5.098  46.062  1.00  0.00     0.144 C 
HETATM   21  C17 UNL     1      21.284   6.134  46.922  1.00  0.00     0.036 C 
HETATM   22  C18 UNL     1      22.012   7.437  46.716  1.00  0.00     0.005 C 
HETATM   23  C19 UNL     1      22.274   7.767  45.277  1.00  0.00     0.026 C 
HETATM   24  C20 UNL     1      22.535   6.554  44.427  1.00  0.00     0.168 C 
HETATM   25  O2  UNL     1      21.738   5.479  44.748  1.00  0.00    -0.382 OA
ENDBRANCH  19  20
ENDBRANCH  15  18
BRANCH  16  26
HETATM   26  C21 UNL     1      24.734   3.615  51.008  1.00  0.00     0.133 C 
BRANCH  26  27
HETATM   27  C22 UNL     1      25.445   3.859  49.648  1.00  0.00    -0.004 C 
HETATM   28  C23 UNL     1      26.783   3.176  49.592  1.00  0.00     0.011 C 
HETATM   29  C24 UNL     1      25.724   5.346  49.478  1.00  0.00     0.011 C 
ENDBRANCH  26  27
ENDBRANCH  16  26
TORSDOF 4
ENDMDL
MODEL 8
REMARK VINA RESULT:      -7.9      5.113      9.924
REMARK  4 active torsions:
REMARK  status: ('A' for Active; 'I' for Inactive)
REMARK    1  A    between atoms: C13_15  and  C14_16 
REMARK    2  A    between atoms: C15_17  and  C16_18 
REMARK    3  A    between atoms: N2_24  and  C21_25 
REMARK    4  A    between atoms: C21_25  and  C22_26 
ROOT
HETATM    1  C1  UNL     1      28.917   8.403  45.583  1.00  0.00     0.050 C 
HETATM    2  C2  UNL     1      29.921   7.752  46.393  1.00  0.00    -0.038 C 
HETATM    3  C3  UNL     1      29.174   7.207  47.329  1.00  0.00     0.024 C 
HETATM    4  C4  UNL     1      29.888   6.401  48.408  1.00  0.00     0.064 A 
HETATM    5  C5  UNL     1      29.141   5.124  48.104  1.00  0.00     0.037 A 
HETATM    6  C6  UNL     1      30.487   5.320  47.856  1.00  0.00     0.005 A 
HETATM    7  C7  UNL     1      31.886   5.435  47.564  1.00  0.00     0.053 C 
HETATM    8  C8  UNL     1      32.741   5.736  48.729  1.00  0.00     0.133 C 
HETATM    9  N1  UNL     1      33.994   6.103  47.962  1.00  0.00    -0.356 N 
HETATM   10  C9  UNL     1      33.588   6.709  46.678  1.00  0.00     0.248 C 
HETATM   11  O1  UNL     1      34.109   7.161  45.621  1.00  0.00    -0.268 OA
HETATM   12  C10 UNL     1      32.158   6.740  46.787  1.00  0.00     0.017 C 
HETATM   13  C11 UNL     1      31.376   7.723  46.264  1.00  0.00     0.022 C 
HETATM   14  C12 UNL     1      27.782   5.666  48.389  1.00  0.00     0.023 C 
HETATM   15  C13 UNL     1      26.694   5.207  48.933  1.00  0.00     0.026 C 
HETATM   16  N2  UNL     1      27.860   7.032  47.844  1.00  0.00    -0.352 N 
HETATM   17  H8  UNL     1      35.047   6.041  48.101  1.00  0.00     0.162 HD
ENDROOT
BRANCH  15  18
HETATM   18  C14 UNL     1      26.543   3.888  49.454  1.00  0.00     0.000 C 
HETATM   19  C15 UNL     1      25.541   3.408  50.165  1.00  0.00     0.005 C 
BRANCH  19  20
HETATM   20  C16 UNL     1      24.288   3.947  50.679  1.00  0.00     0.144 C 
HETATM   21  C17 UNL     1      24.127   3.804  52.188  1.00  0.00     0.036 C 
HETATM   22  C18 UNL     1      22.996   4.716  52.587  1.00  0.00     0.005 C 
HETATM   23  C19 UNL     1      21.775   4.585  51.728  1.00  0.00     0.026 C 
HETATM   24  C20 UNL     1      22.091   4.275  50.291  1.00  0.00     0.168 C 
HETATM   25  O2  UNL     1      23.133   3.389  50.138  1.00  0.00    -0.382 OA
ENDBRANCH  19  20
ENDBRANCH  15  18
BRANCH  16  26
HETATM   26  C21 UNL     1      26.990   8.135  47.643  1.00  0.00     0.133 C 
BRANCH  26  27
HETATM   27  C22 UNL     1      27.368   9.167  48.741  1.00  0.00    -0.004 C 
HETATM   28  C23 UNL     1      26.793   8.790  50.077  1.00  0.00     0.011 C 
HETATM   29  C24 UNL     1      26.771  10.524  48.393  1.00  0.00     0.011 C 
ENDBRANCH  26  27
ENDBRANCH  16  26
TORSDOF 4
ENDMDL
MODEL 9
REMARK VINA RESULT:      -7.8      2.489      5.985
REMARK  4 active torsions:
REMARK  status: ('A' for Active; 'I' for Inactive)
REMARK    1  A    between atoms: C13_15  and  C14_16 
REMARK    2  A    between atoms: C15_17  and  C16_18 
REMARK    3  A    between atoms: N2_24  and  C21_25 
REMARK    4  A    between atoms: C21_25  and  C22_26 
ROOT
HETATM    1  C1  UNL     1      26.991   4.022  49.327  1.00  0.00     0.050 C 
HETATM    2  C2  UNL     1      26.277   3.296  50.352  1.00  0.00    -0.038 C 
HETATM    3  C3  UNL     1      25.051   3.739  50.165  1.00  0.00     0.024 C 
HETATM    4  C4  UNL     1      23.965   3.186  51.081  1.00  0.00     0.064 A 
HETATM    5  C5  UNL     1      23.142   2.622  49.947  1.00  0.00     0.037 A 
HETATM    6  C6  UNL     1      23.822   1.856  50.875  1.00  0.00     0.005 A 
HETATM    7  C7  UNL     1      24.495   0.985  51.794  1.00  0.00     0.053 C 
HETATM    8  C8  UNL     1      24.105   1.152  53.208  1.00  0.00     0.133 C 
HETATM    9  N1  UNL     1      25.236   0.352  53.818  1.00  0.00    -0.356 N 
HETATM   10  C9  UNL     1      26.424   0.500  52.954  1.00  0.00     0.248 C 
HETATM   11  O1  UNL     1      27.611   0.079  52.872  1.00  0.00    -0.268 OA
HETATM   12  C10 UNL     1      25.967   1.417  51.951  1.00  0.00     0.017 C 
HETATM   13  C11 UNL     1      26.756   2.357  51.362  1.00  0.00     0.022 C 
HETATM   14  C12 UNL     1      22.912   3.924  49.257  1.00  0.00     0.023 C 
HETATM   15  C13 UNL     1      21.924   4.471  48.613  1.00  0.00     0.026 C 
HETATM   16  N2  UNL     1      24.205   4.607  49.421  1.00  0.00    -0.352 N 
HETATM   17  H8  UNL     1      25.393  -0.264  54.673  1.00  0.00     0.162 HD
ENDROOT
BRANCH  15  18
HETATM   18  C14 UNL     1      20.658   3.853  48.394  1.00  0.00     0.000 C 
HETATM   19  C15 UNL     1      20.021   3.010  49.183  1.00  0.00     0.005 C 
BRANCH  19  20
HETATM   20  C16 UNL     1      20.294   2.401  50.479  1.00  0.00     0.144 C 
HETATM   21  C17 UNL     1      19.822   0.958  50.595  1.00  0.00     0.036 C 
HETATM   22  C18 UNL     1      20.495   0.382  51.814  1.00  0.00     0.005 C 
HETATM   23  C19 UNL     1      20.408   1.257  53.028  1.00  0.00     0.026 C 
HETATM   24  C20 UNL     1      20.443   2.725  52.706  1.00  0.00     0.168 C 
HETATM   25  O2  UNL     1      19.733   3.054  51.573  1.00  0.00    -0.382 OA
ENDBRANCH  19  20
ENDBRANCH  15  18
BRANCH  16  26
HETATM   26  C21 UNL     1      24.820   5.811  48.991  1.00  0.00     0.133 C 
BRANCH  26  27
HETATM   27  C22 UNL     1      24.909   6.708  50.257  1.00  0.00    -0.004 C 
HETATM   28  C23 UNL     1      23.649   7.500  50.465  1.00  0.00     0.011 C 
HETATM   29  C24 UNL     1      26.025   7.729  50.083  1.00  0.00     0.011 C 
ENDBRANCH  26  27
ENDBRANCH  16  26
TORSDOF 4
ENDMDL
