MODEL 1
REMARK VINA RESULT:      -7.9      0.000      0.000
REMARK  6 active torsions:
REMARK  status: ('A' for Active; 'I' for Inactive)
REMARK    1  A    between atoms: C2_2  and  C4_4 
REMARK    2  A    between atoms: C4_4  and  C5_5 
REMARK    3  A    between atoms: C7_7  and  C8_8 
REMARK    4  A    between atoms: C8_8  and  C10_11 
REMARK       I    between atoms: C10_11  and  N2_12 
REMARK    5  A    between atoms: C12_15  and  C13_16 
REMARK    6  A    between atoms: C17_20  and  O2_21 
ROOT
HETATM    1  C8  UNL     1      27.319  -0.542  52.700  1.00  0.00     0.217 C 
HETATM    2  C9  UNL     1      27.935  -0.256  54.009  1.00  0.00     0.078 C 
HETATM    3  N1  UNL     1      28.414  -0.035  55.036  1.00  0.00    -0.196 NA
ENDROOT
BRANCH   1   4
HETATM    4  C7  UNL     1      26.019   0.168  52.581  1.00  0.00    -0.030 A 
HETATM    5  C6  UNL     1      24.850  -0.075  53.261  1.00  0.00     0.019 A 
HETATM    6  C5  UNL     1      23.732   0.688  53.032  1.00  0.00    -0.024 A 
HETATM    7  C17 UNL     1      23.789   1.706  52.109  1.00  0.00     0.079 A 
HETATM    8  C12 UNL     1      24.943   1.994  51.394  1.00  0.00    -0.016 A 
HETATM    9  C11 UNL     1      26.072   1.207  51.642  1.00  0.00     0.019 A 
BRANCH   6  10
HETATM   10  C4  UNL     1      22.528   0.342  53.817  1.00  0.00     0.045 C 
BRANCH  10  11
HETATM   11  C2  UNL     1      21.632  -0.669  53.187  1.00  0.00    -0.018 C 
HETATM   12  C1  UNL     1      21.203  -1.628  54.306  1.00  0.00     0.010 C 
HETATM   13  C3  UNL     1      20.350  -0.071  52.655  1.00  0.00     0.010 C 
ENDBRANCH  10  11
ENDBRANCH   6  10
BRANCH   7  14
HETATM   14  O2  UNL     1      22.669   2.470  51.879  1.00  0.00    -0.360 OA
HETATM   15  H24 UNL     1      22.725   3.470  51.745  1.00  0.00     0.217 HD
ENDBRANCH   7  14
BRANCH   8  16
HETATM   16  C13 UNL     1      24.944   3.109  50.406  1.00  0.00    -0.021 C 
HETATM   17  C14 UNL     1      24.680   4.453  51.050  1.00  0.00     0.019 C 
HETATM   18  C15 UNL     1      23.965   2.895  49.280  1.00  0.00     0.019 C 
HETATM   19  C16 UNL     1      26.324   3.202  49.784  1.00  0.00     0.019 C 
ENDBRANCH   8  16
ENDBRANCH   1   4
BRANCH   1  20
HETATM   20  C10 UNL     1      27.184  -1.987  52.433  1.00  0.00     0.237 C 
HETATM   21  N2  UNL     1      27.937  -2.959  53.141  1.00  0.00    -0.369 N 
HETATM   22  H12 UNL     1      28.655  -3.653  52.862  1.00  0.00     0.159 HD
HETATM   23  H13 UNL     1      27.728  -2.986  54.169  1.00  0.00     0.159 HD
HETATM   24  O1  UNL     1      26.502  -2.703  51.654  1.00  0.00    -0.272 OA
ENDBRANCH   1  20
TORSDOF 6
ENDMDL
MODEL 2
REMARK VINA RESULT:      -7.7      2.074      4.909
REMARK  6 active torsions:
REMARK  status: ('A' for Active; 'I' for Inactive)
REMARK    1  A    between atoms: C2_2  and  C4_4 
REMARK    2  A    between atoms: C4_4  and  C5_5 
REMARK    3  A    between atoms: C7_7  and  C8_8 
REMARK    4  A    between atoms: C8_8  and  C10_11 
REMARK       I    between atoms: C10_11  and  N2_12 
REMARK    5  A    between atoms: C12_15  and  C13_16 
REMARK    6  A    between atoms: C17_20  and  O2_21 
ROOT
HETATM    1  C8  UNL     1      27.143   0.752  53.591  1.00  0.00     0.217 C 
HETATM    2  C9  UNL     1      27.376  -0.674  53.298  1.00  0.00     0.078 C 
HETATM    3  N1  UNL     1      27.561  -1.790  53.064  1.00  0.00    -0.196 NA
ENDROOT
BRANCH   1   4
HETATM    4  C7  UNL     1      26.296   1.361  52.532  1.00  0.00    -0.030 A 
HETATM    5  C6  UNL     1      26.696   2.038  51.405  1.00  0.00     0.019 A 
HETATM    6  C5  UNL     1      25.773   2.534  50.519  1.00  0.00    -0.024 A 
HETATM    7  C17 UNL     1      24.433   2.349  50.767  1.00  0.00     0.079 A 
HETATM    8  C12 UNL     1      23.974   1.673  51.890  1.00  0.00    -0.016 A 
HETATM    9  C11 UNL     1      24.929   1.174  52.781  1.00  0.00     0.019 A 
BRANCH   6  10
HETATM   10  C4  UNL     1      26.311   3.246  49.341  1.00  0.00     0.045 C 
BRANCH  10  11
HETATM   11  C2  UNL     1      26.621   4.687  49.560  1.00  0.00    -0.018 C 
HETATM   12  C1  UNL     1      27.781   5.032  48.615  1.00  0.00     0.010 C 
HETATM   13  C3  UNL     1      25.488   5.603  49.159  1.00  0.00     0.010 C 
ENDBRANCH  10  11
ENDBRANCH   6  10
BRANCH   7  14
HETATM   14  O2  UNL     1      23.509   2.846  49.880  1.00  0.00    -0.360 OA
HETATM   15  H24 UNL     1      23.760   3.097  48.933  1.00  0.00     0.217 HD
ENDBRANCH   7  14
BRANCH   8  16
HETATM   16  C13 UNL     1      22.510   1.505  52.106  1.00  0.00    -0.021 C 
HETATM   17  C14 UNL     1      21.844   0.738  50.984  1.00  0.00     0.019 C 
HETATM   18  C15 UNL     1      21.793   2.815  52.309  1.00  0.00     0.019 C 
HETATM   19  C16 UNL     1      22.299   0.683  53.364  1.00  0.00     0.019 C 
ENDBRANCH   8  16
ENDBRANCH   1   4
BRANCH   1  20
HETATM   20  C10 UNL     1      28.394   1.507  53.798  1.00  0.00     0.237 C 
HETATM   21  N2  UNL     1      29.668   0.942  53.534  1.00  0.00    -0.369 N 
HETATM   22  H12 UNL     1      30.490   0.718  54.125  1.00  0.00     0.159 HD
HETATM   23  H13 UNL     1      29.818   0.695  52.525  1.00  0.00     0.159 HD
HETATM   24  O1  UNL     1      28.698   2.663  54.194  1.00  0.00    -0.272 OA
ENDBRANCH   1  20
TORSDOF 6
ENDMDL
MODEL 3
REMARK VINA RESULT:      -7.7      1.279      1.659
REMARK  6 active torsions:
REMARK  status: ('A' for Active; 'I' for Inactive)
REMARK    1  A    between atoms: C2_2  and  C4_4 
REMARK    2  A    between atoms: C4_4  and  C5_5 
REMARK    3  A    between atoms: C7_7  and  C8_8 
REMARK    4  A    between atoms: C8_8  and  C10_11 
REMARK       I    between atoms: C10_11  and  N2_12 
REMARK    5  A    between atoms: C12_15  and  C13_16 
REMARK    6  A    between atoms: C17_20  and  O2_21 
ROOT
HETATM    1  C8  UNL     1      27.532   0.645  52.700  1.00  0.00     0.217 C 
HETATM    2  C9  UNL     1      28.135   1.830  53.337  1.00  0.00     0.078 C 
HETATM    3  N1  UNL     1      28.604   2.758  53.840  1.00  0.00    -0.196 NA
ENDROOT
BRANCH   1   4
HETATM    4  C7  UNL     1      26.114   0.919  52.347  1.00  0.00    -0.030 A 
HETATM    5  C6  UNL     1      24.991   0.226  52.731  1.00  0.00     0.019 A 
HETATM    6  C5  UNL     1      23.745   0.623  52.316  1.00  0.00    -0.024 A 
HETATM    7  C17 UNL     1      23.624   1.728  51.507  1.00  0.00     0.079 A 
HETATM    8  C12 UNL     1      24.725   2.464  51.089  1.00  0.00    -0.016 A 
HETATM    9  C11 UNL     1      25.987   2.045  51.523  1.00  0.00     0.019 A 
BRANCH   6  10
HETATM   10  C4  UNL     1      22.605  -0.192  52.787  1.00  0.00     0.045 C 
BRANCH  10  11
HETATM   11  C2  UNL     1      22.264  -0.028  54.229  1.00  0.00    -0.018 C 
HETATM   12  C1  UNL     1      20.782   0.368  54.284  1.00  0.00     0.010 C 
HETATM   13  C3  UNL     1      22.366  -1.318  55.010  1.00  0.00     0.010 C 
ENDBRANCH  10  11
ENDBRANCH   6  10
BRANCH   7  14
HETATM   14  O2  UNL     1      22.376   2.125  51.091  1.00  0.00    -0.360 OA
HETATM   15  H24 UNL     1      22.184   3.080  50.818  1.00  0.00     0.217 HD
ENDBRANCH   7  14
BRANCH   8  16
HETATM   16  C13 UNL     1      24.532   3.651  50.210  1.00  0.00    -0.021 C 
HETATM   17  C14 UNL     1      23.918   4.822  50.946  1.00  0.00     0.019 C 
HETATM   18  C15 UNL     1      23.709   3.346  48.985  1.00  0.00     0.019 C 
HETATM   19  C16 UNL     1      25.892   4.120  49.728  1.00  0.00     0.019 C 
ENDBRANCH   8  16
ENDBRANCH   1   4
BRANCH   1  20
HETATM   20  C10 UNL     1      27.670  -0.577  53.515  1.00  0.00     0.237 C 
HETATM   21  N2  UNL     1      27.905  -0.529  54.914  1.00  0.00    -0.369 N 
HETATM   22  H12 UNL     1      28.688  -0.838  55.520  1.00  0.00     0.159 HD
HETATM   23  H13 UNL     1      27.124  -0.086  55.456  1.00  0.00     0.159 HD
HETATM   24  O1  UNL     1      27.636  -1.817  53.299  1.00  0.00    -0.272 OA
ENDBRANCH   1  20
TORSDOF 6
ENDMDL
MODEL 4
REMARK VINA RESULT:      -7.5      1.095      4.289
REMARK  6 active torsions:
REMARK  status: ('A' for Active; 'I' for Inactive)
REMARK    1  A    between atoms: C2_2  and  C4_4 
REMARK    2  A    between atoms: C4_4  and  C5_5 
REMARK    3  A    between atoms: C7_7  and  C8_8 
REMARK    4  A    between atoms: C8_8  and  C10_11 
REMARK       I    between atoms: C10_11  and  N2_12 
REMARK    5  A    between atoms: C12_15  and  C13_16 
REMARK    6  A    between atoms: C17_20  and  O2_21 
ROOT
HETATM    1  C8  UNL     1      27.093  -0.542  52.799  1.00  0.00     0.217 C 
HETATM    2  C9  UNL     1      27.611  -0.245  54.148  1.00  0.00     0.078 C 
HETATM    3  N1  UNL     1      28.013  -0.016  55.206  1.00  0.00    -0.196 NA
ENDROOT
BRANCH   1   4
HETATM    4  C7  UNL     1      25.731   0.030  52.637  1.00  0.00    -0.030 A 
HETATM    5  C6  UNL     1      25.324   1.038  51.796  1.00  0.00     0.019 A 
HETATM    6  C5  UNL     1      24.013   1.443  51.768  1.00  0.00    -0.024 A 
HETATM    7  C17 UNL     1      23.100   0.830  52.593  1.00  0.00     0.079 A 
HETATM    8  C12 UNL     1      23.457  -0.192  53.462  1.00  0.00    -0.016 A 
HETATM    9  C11 UNL     1      24.797  -0.592  53.476  1.00  0.00     0.019 A 
BRANCH   6  10
HETATM   10  C4  UNL     1      23.683   2.534  50.827  1.00  0.00     0.045 C 
BRANCH  10  11
HETATM   11  C2  UNL     1      24.410   3.815  51.064  1.00  0.00    -0.018 C 
HETATM   12  C1  UNL     1      24.602   4.469  49.689  1.00  0.00     0.010 C 
HETATM   13  C3  UNL     1      23.607   4.807  51.874  1.00  0.00     0.010 C 
ENDBRANCH  10  11
ENDBRANCH   6  10
BRANCH   7  14
HETATM   14  O2  UNL     1      21.788   1.236  52.565  1.00  0.00    -0.360 OA
HETATM   15  H24 UNL     1      21.145   0.912  51.855  1.00  0.00     0.217 HD
ENDBRANCH   7  14
BRANCH   8  16
HETATM   16  C13 UNL     1      22.424  -0.818  54.334  1.00  0.00    -0.021 C 
HETATM   17  C14 UNL     1      21.679  -1.936  53.638  1.00  0.00     0.019 C 
HETATM   18  C15 UNL     1      21.432   0.180  54.876  1.00  0.00     0.019 C 
HETATM   19  C16 UNL     1      23.116  -1.449  55.527  1.00  0.00     0.019 C 
ENDBRANCH   8  16
ENDBRANCH   1   4
BRANCH   1  20
HETATM   20  C10 UNL     1      27.129  -1.981  52.475  1.00  0.00     0.237 C 
HETATM   21  N2  UNL     1      27.985  -2.886  53.153  1.00  0.00    -0.369 N 
HETATM   22  H12 UNL     1      28.780  -3.481  52.855  1.00  0.00     0.159 HD
HETATM   23  H13 UNL     1      27.774  -2.978  54.177  1.00  0.00     0.159 HD
HETATM   24  O1  UNL     1      26.539  -2.739  51.661  1.00  0.00    -0.272 OA
ENDBRANCH   1  20
TORSDOF 6
ENDMDL
MODEL 5
REMARK VINA RESULT:      -7.3      1.776      4.702
REMARK  6 active torsions:
REMARK  status: ('A' for Active; 'I' for Inactive)
REMARK    1  A    between atoms: C2_2  and  C4_4 
REMARK    2  A    between atoms: C4_4  and  C5_5 
REMARK    3  A    between atoms: C7_7  and  C8_8 
REMARK    4  A    between atoms: C8_8  and  C10_11 
REMARK       I    between atoms: C10_11  and  N2_12 
REMARK    5  A    between atoms: C12_15  and  C13_16 
REMARK    6  A    between atoms: C17_20  and  O2_21 
ROOT
HETATM    1  C8  UNL     1      27.343   0.348  54.122  1.00  0.00     0.217 C 
HETATM    2  C9  UNL     1      27.736  -0.935  53.510  1.00  0.00     0.078 C 
HETATM    3  N1  UNL     1      28.043  -1.937  53.026  1.00  0.00    -0.196 NA
ENDROOT
BRANCH   1   4
HETATM    4  C7  UNL     1      26.046   0.808  53.560  1.00  0.00    -0.030 A 
HETATM    5  C6  UNL     1      25.812   1.858  52.706  1.00  0.00     0.019 A 
HETATM    6  C5  UNL     1      24.541   2.144  52.275  1.00  0.00    -0.024 A 
HETATM    7  C17 UNL     1      23.493   1.365  52.706  1.00  0.00     0.079 A 
HETATM    8  C12 UNL     1      23.672   0.293  53.569  1.00  0.00    -0.016 A 
HETATM    9  C11 UNL     1      24.975   0.017  53.997  1.00  0.00     0.019 A 
BRANCH   6  10
HETATM   10  C4  UNL     1      24.402   3.295  51.358  1.00  0.00     0.045 C 
BRANCH  10  11
HETATM   11  C2  UNL     1      24.885   3.057  49.968  1.00  0.00    -0.018 C 
HETATM   12  C1  UNL     1      23.717   3.409  49.035  1.00  0.00     0.010 C 
HETATM   13  C3  UNL     1      26.012   3.981  49.569  1.00  0.00     0.010 C 
ENDBRANCH  10  11
ENDBRANCH   6  10
BRANCH   7  14
HETATM   14  O2  UNL     1      22.220   1.651  52.274  1.00  0.00    -0.360 OA
HETATM   15  H24 UNL     1      21.478   1.884  52.921  1.00  0.00     0.217 HD
ENDBRANCH   7  14
BRANCH   8  16
HETATM   16  C13 UNL     1      22.498  -0.513  54.003  1.00  0.00    -0.021 C 
HETATM   17  C14 UNL     1      22.062  -1.514  52.954  1.00  0.00     0.019 C 
HETATM   18  C15 UNL     1      21.318   0.337  54.401  1.00  0.00     0.019 C 
HETATM   19  C16 UNL     1      22.893  -1.324  55.223  1.00  0.00     0.019 C 
ENDBRANCH   8  16
ENDBRANCH   1   4
BRANCH   1  20
HETATM   20  C10 UNL     1      28.390   1.381  54.009  1.00  0.00     0.237 C 
HETATM   21  N2  UNL     1      29.668   1.104  53.458  1.00  0.00    -0.369 N 
HETATM   22  H12 UNL     1      30.632   1.118  53.840  1.00  0.00     0.159 HD
HETATM   23  H13 UNL     1      29.638   0.823  52.448  1.00  0.00     0.159 HD
HETATM   24  O1  UNL     1      28.491   2.603  54.298  1.00  0.00    -0.272 OA
ENDBRANCH   1  20
TORSDOF 6
ENDMDL
MODEL 6
REMARK VINA RESULT:      -7.2      2.759      5.036
REMARK  6 active torsions:
REMARK  status: ('A' for Active; 'I' for Inactive)
REMARK    1  A    between atoms: C2_2  and  C4_4 
REMARK    2  A    between atoms: C4_4  and  C5_5 
REMARK    3  A    between atoms: C7_7  and  C8_8 
REMARK    4  A    between atoms: C8_8  and  C10_11 
REMARK       I    between atoms: C10_11  and  N2_12 
REMARK    5  A    between atoms: C12_15  and  C13_16 
REMARK    6  A    between atoms: C17_20  and  O2_21 
ROOT
HETATM    1  C8  UNL     1      22.457  -0.792  53.544  1.00  0.00     0.217 C 
HETATM    2  C9  UNL     1      22.853  -1.283  54.877  1.00  0.00     0.078 C 
HETATM    3  N1  UNL     1      23.163  -1.663  55.922  1.00  0.00    -0.196 NA
ENDROOT
BRANCH   1   4
HETATM    4  C7  UNL     1      23.437   0.214  53.057  1.00  0.00    -0.030 A 
HETATM    5  C6  UNL     1      24.795   0.075  52.903  1.00  0.00     0.019 A 
HETATM    6  C5  UNL     1      25.559   1.112  52.430  1.00  0.00    -0.024 A 
HETATM    7  C17 UNL     1      24.952   2.303  52.107  1.00  0.00     0.079 A 
HETATM    8  C12 UNL     1      23.584   2.498  52.242  1.00  0.00    -0.016 A 
HETATM    9  C11 UNL     1      22.822   1.429  52.725  1.00  0.00     0.019 A 
BRANCH   6  10
HETATM   10  C4  UNL     1      27.009   0.856  52.304  1.00  0.00     0.045 C 
BRANCH  10  11
HETATM   11  C2  UNL     1      27.797   1.053  53.554  1.00  0.00    -0.018 C 
HETATM   12  C1  UNL     1      28.892  -0.023  53.553  1.00  0.00     0.010 C 
HETATM   13  C3  UNL     1      28.530   2.374  53.587  1.00  0.00     0.010 C 
ENDBRANCH  10  11
ENDBRANCH   6  10
BRANCH   7  14
HETATM   14  O2  UNL     1      25.717   3.342  51.633  1.00  0.00    -0.360 OA
HETATM   15  H24 UNL     1      25.681   3.632  50.665  1.00  0.00     0.217 HD
ENDBRANCH   7  14
BRANCH   8  16
HETATM   16  C13 UNL     1      22.983   3.811  51.878  1.00  0.00    -0.021 C 
HETATM   17  C14 UNL     1      23.199   4.162  50.422  1.00  0.00     0.019 C 
HETATM   18  C15 UNL     1      23.478   4.942  52.742  1.00  0.00     0.019 C 
HETATM   19  C16 UNL     1      21.481   3.725  52.074  1.00  0.00     0.019 C 
ENDBRANCH   8  16
ENDBRANCH   1   4
BRANCH   1  20
HETATM   20  C10 UNL     1      21.075  -0.275  53.511  1.00  0.00     0.237 C 
HETATM   21  N2  UNL     1      20.387   0.115  54.689  1.00  0.00    -0.369 N 
HETATM   22  H12 UNL     1      19.536  -0.231  55.171  1.00  0.00     0.159 HD
HETATM   23  H13 UNL     1      20.829   0.927  55.185  1.00  0.00     0.159 HD
HETATM   24  O1  UNL     1      20.214  -0.049  52.620  1.00  0.00    -0.272 OA
ENDBRANCH   1  20
TORSDOF 6
ENDMDL
MODEL 7
REMARK VINA RESULT:      -7.2      1.700      4.711
REMARK  6 active torsions:
REMARK  status: ('A' for Active; 'I' for Inactive)
REMARK    1  A    between atoms: C2_2  and  C4_4 
REMARK    2  A    between atoms: C4_4  and  C5_5 
REMARK    3  A    between atoms: C7_7  and  C8_8 
REMARK    4  A    between atoms: C8_8  and  C10_11 
REMARK       I    between atoms: C10_11  and  N2_12 
REMARK    5  A    between atoms: C12_15  and  C13_16 
REMARK    6  A    between atoms: C17_20  and  O2_21 
ROOT
HETATM    1  C8  UNL     1      27.428   0.774  52.737  1.00  0.00     0.217 C 
HETATM    2  C9  UNL     1      28.172   1.784  53.513  1.00  0.00     0.078 C 
HETATM    3  N1  UNL     1      28.750   2.576  54.123  1.00  0.00    -0.196 NA
ENDROOT
BRANCH   1   4
HETATM    4  C7  UNL     1      26.341   1.425  51.959  1.00  0.00    -0.030 A 
HETATM    5  C6  UNL     1      26.452   2.337  50.938  1.00  0.00     0.019 A 
HETATM    6  C5  UNL     1      25.335   2.837  50.317  1.00  0.00    -0.024 A 
HETATM    7  C17 UNL     1      24.092   2.416  50.728  1.00  0.00     0.079 A 
HETATM    8  C12 UNL     1      23.922   1.497  51.754  1.00  0.00    -0.016 A 
HETATM    9  C11 UNL     1      25.072   0.998  52.374  1.00  0.00     0.019 A 
BRANCH   6  10
HETATM   10  C4  UNL     1      25.568   3.812  49.231  1.00  0.00     0.045 C 
BRANCH  10  11
HETATM   11  C2  UNL     1      26.435   4.968  49.595  1.00  0.00    -0.018 C 
HETATM   12  C1  UNL     1      27.615   4.954  48.614  1.00  0.00     0.010 C 
HETATM   13  C3  UNL     1      25.756   6.303  49.390  1.00  0.00     0.010 C 
ENDBRANCH  10  11
ENDBRANCH   6  10
BRANCH   7  14
HETATM   14  O2  UNL     1      22.973   2.917  50.107  1.00  0.00    -0.360 OA
HETATM   15  H24 UNL     1      22.210   2.319  49.818  1.00  0.00     0.217 HD
ENDBRANCH   7  14
BRANCH   8  16
HETATM   16  C13 UNL     1      22.550   1.081  52.156  1.00  0.00    -0.021 C 
HETATM   17  C14 UNL     1      22.555   0.126  53.330  1.00  0.00     0.019 C 
HETATM   18  C15 UNL     1      21.766   0.472  51.022  1.00  0.00     0.019 C 
HETATM   19  C16 UNL     1      21.787   2.310  52.614  1.00  0.00     0.019 C 
ENDBRANCH   8  16
ENDBRANCH   1   4
BRANCH   1  20
HETATM   20  C10 UNL     1      26.923  -0.332  53.572  1.00  0.00     0.237 C 
HETATM   21  N2  UNL     1      26.733  -0.195  54.972  1.00  0.00    -0.369 N 
HETATM   22  H12 UNL     1      27.159  -0.651  55.801  1.00  0.00     0.159 HD
HETATM   23  H13 UNL     1      26.009   0.518  55.230  1.00  0.00     0.159 HD
HETATM   24  O1  UNL     1      26.562  -1.522  53.375  1.00  0.00    -0.272 OA
ENDBRANCH   1  20
TORSDOF 6
ENDMDL
MODEL 8
REMARK VINA RESULT:      -7.0      2.917      5.771
REMARK  6 active torsions:
REMARK  status: ('A' for Active; 'I' for Inactive)
REMARK    1  A    between atoms: C2_2  and  C4_4 
REMARK    2  A    between atoms: C4_4  and  C5_5 
REMARK    3  A    between atoms: C7_7  and  C8_8 
REMARK    4  A    between atoms: C8_8  and  C10_11 
REMARK       I    between atoms: C10_11  and  N2_12 
REMARK    5  A    between atoms: C12_15  and  C13_16 
REMARK    6  A    between atoms: C17_20  and  O2_21 
ROOT
HETATM    1  C8  UNL     1      24.398   2.752  50.515  1.00  0.00     0.217 C 
HETATM    2  C9  UNL     1      23.403   3.801  50.807  1.00  0.00     0.078 C 
HETATM    3  N1  UNL     1      22.627   4.624  51.039  1.00  0.00    -0.196 NA
ENDROOT
BRANCH   1   4
HETATM    4  C7  UNL     1      24.471   1.788  51.643  1.00  0.00    -0.030 A 
HETATM    5  C6  UNL     1      25.574   1.407  52.369  1.00  0.00     0.019 A 
HETATM    6  C5  UNL     1      25.463   0.501  53.393  1.00  0.00    -0.024 A 
HETATM    7  C17 UNL     1      24.230  -0.029  53.693  1.00  0.00     0.079 A 
HETATM    8  C12 UNL     1      23.083   0.320  52.992  1.00  0.00    -0.016 A 
HETATM    9  C11 UNL     1      23.216   1.245  51.952  1.00  0.00     0.019 A 
BRANCH   6  10
HETATM   10  C4  UNL     1      26.711   0.161  54.108  1.00  0.00     0.045 C 
BRANCH  10  11
HETATM   11  C2  UNL     1      27.942   0.166  53.267  1.00  0.00    -0.018 C 
HETATM   12  C1  UNL     1      28.890   1.201  53.889  1.00  0.00     0.010 C 
HETATM   13  C3  UNL     1      28.691  -1.146  53.311  1.00  0.00     0.010 C 
ENDBRANCH  10  11
ENDBRANCH   6  10
BRANCH   7  14
HETATM   14  O2  UNL     1      24.118  -0.937  54.718  1.00  0.00    -0.360 OA
HETATM   15  H24 UNL     1      23.973  -1.923  54.544  1.00  0.00     0.217 HD
ENDBRANCH   7  14
BRANCH   8  16
HETATM   16  C13 UNL     1      21.775  -0.289  53.361  1.00  0.00    -0.021 C 
HETATM   17  C14 UNL     1      21.209   0.287  54.641  1.00  0.00     0.019 C 
HETATM   18  C15 UNL     1      21.840  -1.791  53.477  1.00  0.00     0.019 C 
HETATM   19  C16 UNL     1      20.769   0.030  52.272  1.00  0.00     0.019 C 
ENDBRANCH   8  16
ENDBRANCH   1   4
BRANCH   1  20
HETATM   20  C10 UNL     1      25.724   3.300  50.171  1.00  0.00     0.237 C 
HETATM   21  N2  UNL     1      26.054   4.664  50.376  1.00  0.00    -0.369 N 
HETATM   22  H12 UNL     1      26.307   5.445  49.742  1.00  0.00     0.159 HD
HETATM   23  H13 UNL     1      26.040   4.953  51.385  1.00  0.00     0.159 HD
HETATM   24  O1  UNL     1      26.792   2.845  49.682  1.00  0.00    -0.272 OA
ENDBRANCH   1  20
TORSDOF 6
ENDMDL
MODEL 9
REMARK VINA RESULT:      -7.0      2.913      6.308
REMARK  6 active torsions:
REMARK  status: ('A' for Active; 'I' for Inactive)
REMARK    1  A    between atoms: C2_2  and  C4_4 
REMARK    2  A    between atoms: C4_4  and  C5_5 
REMARK    3  A    between atoms: C7_7  and  C8_8 
REMARK    4  A    between atoms: C8_8  and  C10_11 
REMARK       I    between atoms: C10_11  and  N2_12 
REMARK    5  A    between atoms: C12_15  and  C13_16 
REMARK    6  A    between atoms: C17_20  and  O2_21 
ROOT
HETATM    1  C8  UNL     1      23.639   3.261  51.217  1.00  0.00     0.217 C 
HETATM    2  C9  UNL     1      22.731   2.791  50.154  1.00  0.00     0.078 C 
HETATM    3  N1  UNL     1      22.017   2.421  49.326  1.00  0.00    -0.196 NA
ENDROOT
BRANCH   1   4
HETATM    4  C7  UNL     1      24.233   2.101  51.932  1.00  0.00    -0.030 A 
HETATM    5  C6  UNL     1      25.554   1.728  51.999  1.00  0.00     0.019 A 
HETATM    6  C5  UNL     1      25.936   0.622  52.716  1.00  0.00    -0.024 A 
HETATM    7  C17 UNL     1      24.981  -0.118  53.373  1.00  0.00     0.079 A 
HETATM    8  C12 UNL     1      23.633   0.214  53.339  1.00  0.00    -0.016 A 
HETATM    9  C11 UNL     1      23.264   1.345  52.604  1.00  0.00     0.019 A 
BRANCH   6  10
HETATM   10  C4  UNL     1      27.381   0.309  52.721  1.00  0.00     0.045 C 
BRANCH  10  11
HETATM   11  C2  UNL     1      28.137   0.842  53.890  1.00  0.00    -0.018 C 
HETATM   12  C1  UNL     1      29.367  -0.062  54.062  1.00  0.00     0.010 C 
HETATM   13  C3  UNL     1      28.687   2.230  53.655  1.00  0.00     0.010 C 
ENDBRANCH  10  11
ENDBRANCH   6  10
BRANCH   7  14
HETATM   14  O2  UNL     1      25.364  -1.226  54.091  1.00  0.00    -0.360 OA
HETATM   15  H24 UNL     1      24.978  -2.142  53.903  1.00  0.00     0.217 HD
ENDBRANCH   7  14
BRANCH   8  16
HETATM   16  C13 UNL     1      22.645  -0.626  54.070  1.00  0.00    -0.021 C 
HETATM   17  C14 UNL     1      23.151  -1.069  55.425  1.00  0.00     0.019 C 
HETATM   18  C15 UNL     1      22.206  -1.834  53.282  1.00  0.00     0.019 C 
HETATM   19  C16 UNL     1      21.404   0.207  54.333  1.00  0.00     0.019 C 
ENDBRANCH   8  16
ENDBRANCH   1   4
BRANCH   1  20
HETATM   20  C10 UNL     1      22.992   4.208  52.146  1.00  0.00     0.237 C 
HETATM   21  N2  UNL     1      23.739   5.015  53.042  1.00  0.00    -0.369 N 
HETATM   22  H12 UNL     1      23.797   5.076  54.075  1.00  0.00     0.159 HD
HETATM   23  H13 UNL     1      24.373   5.700  52.562  1.00  0.00     0.159 HD
HETATM   24  O1  UNL     1      21.810   4.553  52.408  1.00  0.00    -0.272 OA
ENDBRANCH   1  20
TORSDOF 6
ENDMDL
