MODEL 1
REMARK VINA RESULT:      -9.7      0.000      0.000
REMARK  4 active torsions:
REMARK  status: ('A' for Active; 'I' for Inactive)
REMARK    1  A    between atoms: N1_1  and  C1_2 
REMARK    2  A    between atoms: C3_4  and  N2_5 
REMARK    3  A    between atoms: N2_5  and  C4_6 
REMARK    4  A    between atoms: C15_19  and  O1_20 
ROOT
HETATM    1  C1  UNL     1      24.870   3.888  49.654  1.00  0.00     0.141 A 
HETATM    2  C2  UNL     1      24.955   3.081  50.681  1.00  0.00     0.103 A 
HETATM    3  C3  UNL     1      25.398   2.349  51.800  1.00  0.00     0.148 A 
HETATM    4  N3  UNL     1      24.672   1.473  52.511  1.00  0.00    -0.210 NA
HETATM    5  C10 UNL     1      23.395   1.192  52.214  1.00  0.00     0.164 A 
HETATM    6  C11 UNL     1      22.557   0.269  52.948  1.00  0.00     0.015 A 
HETATM    7  C12 UNL     1      21.248   0.067  52.575  1.00  0.00     0.015 A 
HETATM    8  C13 UNL     1      20.472  -0.828  53.326  1.00  0.00     0.004 A 
HETATM    9  C14 UNL     1      21.060  -1.470  54.410  1.00  0.00     0.036 A 
HETATM   10  C15 UNL     1      22.378  -1.282  54.804  1.00  0.00     0.066 A 
HETATM   11  C16 UNL     1      23.104  -0.385  54.028  1.00  0.00     0.051 A 
HETATM   12  N4  UNL     1      22.894   1.850  51.156  1.00  0.00    -0.208 NA
HETATM   13  C17 UNL     1      23.615   2.728  50.441  1.00  0.00     0.171 A 
HETATM   14  N5  UNL     1      23.502   3.529  49.407  1.00  0.00    -0.210 NA
ENDROOT
BRANCH   3  15
HETATM   15  N2  UNL     1      26.774   2.662  52.118  1.00  0.00    -0.340 N 
HETATM   16  H3  UNL     1      27.183   3.592  51.872  1.00  0.00     0.167 HD
BRANCH  15  17
HETATM   17  C4  UNL     1      27.577   1.681  52.781  1.00  0.00     0.035 A 
HETATM   18  C5  UNL     1      28.607   1.994  53.636  1.00  0.00     0.029 A 
HETATM   19  C6  UNL     1      29.338   1.002  54.214  1.00  0.00     0.004 A 
HETATM   20  C7  UNL     1      29.078  -0.351  53.967  1.00  0.00     0.024 A 
HETATM   21  C8  UNL     1      28.045  -0.727  53.108  1.00  0.00     0.036 A 
HETATM   22 CL1  UNL     1      27.644  -2.384  52.734  1.00  0.00    -0.084 Cl
HETATM   23  C9  UNL     1      27.338   0.343  52.553  1.00  0.00     0.053 A 
ENDBRANCH  15  17
ENDBRANCH   3  15
BRANCH   1  24
HETATM   24  N1  UNL     1      25.860   4.765  49.092  1.00  0.00    -0.383 N 
HETATM   25  H1  UNL     1      26.772   5.103  49.492  1.00  0.00     0.157 HD
HETATM   26  H2  UNL     1      25.648   5.131  48.128  1.00  0.00     0.157 HD
ENDBRANCH   1  24
BRANCH  10  27
HETATM   27  O1  UNL     1      22.961  -1.923  55.887  1.00  0.00    -0.361 OA
HETATM   28  H11 UNL     1      22.362  -2.614  56.368  1.00  0.00     0.217 HD
ENDBRANCH  10  27
TORSDOF 4
ENDMDL
MODEL 2
REMARK VINA RESULT:      -9.6      3.221      6.746
REMARK  4 active torsions:
REMARK  status: ('A' for Active; 'I' for Inactive)
REMARK    1  A    between atoms: N1_1  and  C1_2 
REMARK    2  A    between atoms: C3_4  and  N2_5 
REMARK    3  A    between atoms: N2_5  and  C4_6 
REMARK    4  A    between atoms: C15_19  and  O1_20 
ROOT
HETATM    1  C1  UNL     1      21.213  -1.027  54.205  1.00  0.00     0.141 A 
HETATM    2  C2  UNL     1      22.114  -0.181  53.774  1.00  0.00     0.103 A 
HETATM    3  C3  UNL     1      22.783   0.889  53.148  1.00  0.00     0.148 A 
HETATM    4  N3  UNL     1      24.098   1.145  53.209  1.00  0.00    -0.210 NA
HETATM    5  C10 UNL     1      24.947   0.373  53.903  1.00  0.00     0.164 A 
HETATM    6  C11 UNL     1      26.371   0.603  54.019  1.00  0.00     0.015 A 
HETATM    7  C12 UNL     1      27.154  -0.237  54.775  1.00  0.00     0.015 A 
HETATM    8  C13 UNL     1      28.528   0.034  54.867  1.00  0.00     0.004 A 
HETATM    9  C14 UNL     1      29.033   1.138  54.189  1.00  0.00     0.036 A 
HETATM   10  C15 UNL     1      28.262   1.999  53.420  1.00  0.00     0.066 A 
HETATM   11  C16 UNL     1      26.908   1.686  53.361  1.00  0.00     0.051 A 
HETATM   12  N4  UNL     1      24.388  -0.673  54.532  1.00  0.00    -0.208 NA
HETATM   13  C17 UNL     1      23.072  -0.934  54.475  1.00  0.00     0.171 A 
HETATM   14  N5  UNL     1      22.190  -1.797  54.921  1.00  0.00    -0.210 NA
ENDROOT
BRANCH   3  15
HETATM   15  N2  UNL     1      21.860   1.721  52.407  1.00  0.00    -0.340 N 
HETATM   16  H3  UNL     1      21.054   2.184  52.885  1.00  0.00     0.167 HD
BRANCH  15  17
HETATM   17  C4  UNL     1      22.062   1.907  51.004  1.00  0.00     0.035 A 
HETATM   18  C5  UNL     1      21.523   1.085  50.042  1.00  0.00     0.029 A 
HETATM   19  C6  UNL     1      21.778   1.317  48.726  1.00  0.00     0.004 A 
HETATM   20  C7  UNL     1      22.582   2.381  48.302  1.00  0.00     0.024 A 
HETATM   21  C8  UNL     1      23.155   3.248  49.234  1.00  0.00     0.036 A 
HETATM   22 CL1  UNL     1      24.175   4.600  48.808  1.00  0.00    -0.084 Cl
HETATM   23  C9  UNL     1      22.851   2.948  50.564  1.00  0.00     0.053 A 
ENDBRANCH  15  17
ENDBRANCH   3  15
BRANCH   1  24
HETATM   24  N1  UNL     1      19.795  -1.052  53.977  1.00  0.00    -0.383 N 
HETATM   25  H1  UNL     1      19.052  -0.354  54.240  1.00  0.00     0.157 HD
HETATM   26  H2  UNL     1      19.432  -1.898  53.465  1.00  0.00     0.157 HD
ENDBRANCH   1  24
BRANCH  10  27
HETATM   27  O1  UNL     1      28.770   3.099  52.746  1.00  0.00    -0.361 OA
HETATM   28  H11 UNL     1      28.545   3.144  51.738  1.00  0.00     0.217 HD
ENDBRANCH  10  27
TORSDOF 4
ENDMDL
MODEL 3
REMARK VINA RESULT:      -9.3      3.068      6.292
REMARK  4 active torsions:
REMARK  status: ('A' for Active; 'I' for Inactive)
REMARK    1  A    between atoms: N1_1  and  C1_2 
REMARK    2  A    between atoms: C3_4  and  N2_5 
REMARK    3  A    between atoms: N2_5  and  C4_6 
REMARK    4  A    between atoms: C15_19  and  O1_20 
ROOT
HETATM    1  C1  UNL     1      22.930   3.745  52.438  1.00  0.00     0.141 A 
HETATM    2  C2  UNL     1      23.432   2.544  52.305  1.00  0.00     0.103 A 
HETATM    3  C3  UNL     1      23.640   1.186  51.991  1.00  0.00     0.148 A 
HETATM    4  N3  UNL     1      24.742   0.470  52.265  1.00  0.00    -0.210 NA
HETATM    5  C10 UNL     1      25.803   0.999  52.891  1.00  0.00     0.164 A 
HETATM    6  C11 UNL     1      27.023   0.285  53.202  1.00  0.00     0.015 A 
HETATM    7  C12 UNL     1      28.065   0.926  53.829  1.00  0.00     0.015 A 
HETATM    8  C13 UNL     1      29.232   0.195  54.098  1.00  0.00     0.004 A 
HETATM    9  C14 UNL     1      29.280  -1.142  53.718  1.00  0.00     0.036 A 
HETATM   10  C15 UNL     1      28.240  -1.810  53.085  1.00  0.00     0.066 A 
HETATM   11  C16 UNL     1      27.107  -1.040  52.842  1.00  0.00     0.051 A 
HETATM   12  N4  UNL     1      25.685   2.294  53.226  1.00  0.00    -0.208 NA
HETATM   13  C17 UNL     1      24.586   3.015  52.955  1.00  0.00     0.171 A 
HETATM   14  N5  UNL     1      24.107   4.228  53.103  1.00  0.00    -0.210 NA
ENDROOT
BRANCH   3  15
HETATM   15  N2  UNL     1      22.494   0.624  51.310  1.00  0.00    -0.340 N 
HETATM   16  H3  UNL     1      22.453   0.595  50.266  1.00  0.00     0.167 HD
BRANCH  15  17
HETATM   17  C4  UNL     1      21.410   0.102  52.083  1.00  0.00     0.035 A 
HETATM   18  C5  UNL     1      21.579  -0.567  53.273  1.00  0.00     0.029 A 
HETATM   19  C6  UNL     1      20.497  -1.051  53.942  1.00  0.00     0.004 A 
HETATM   20  C7  UNL     1      19.193  -0.892  53.457  1.00  0.00     0.024 A 
HETATM   21  C8  UNL     1      18.963  -0.222  52.256  1.00  0.00     0.036 A 
HETATM   22 CL1  UNL     1      17.378   0.024  51.566  1.00  0.00    -0.084 Cl
HETATM   23  C9  UNL     1      20.119   0.247  51.626  1.00  0.00     0.053 A 
ENDBRANCH  15  17
ENDBRANCH   3  15
BRANCH   1  24
HETATM   24  N1  UNL     1      21.657   4.259  52.018  1.00  0.00    -0.383 N 
HETATM   25  H1  UNL     1      20.768   4.401  52.564  1.00  0.00     0.157 HD
HETATM   26  H2  UNL     1      21.592   4.542  51.005  1.00  0.00     0.157 HD
ENDBRANCH   1  24
BRANCH  10  27
HETATM   27  O1  UNL     1      28.292  -3.142  52.708  1.00  0.00    -0.361 OA
HETATM   28  H11 UNL     1      27.780  -3.798  53.322  1.00  0.00     0.217 HD
ENDBRANCH  10  27
TORSDOF 4
ENDMDL
MODEL 4
REMARK VINA RESULT:      -9.3      2.781      5.021
REMARK  4 active torsions:
REMARK  status: ('A' for Active; 'I' for Inactive)
REMARK    1  A    between atoms: N1_1  and  C1_2 
REMARK    2  A    between atoms: C3_4  and  N2_5 
REMARK    3  A    between atoms: N2_5  and  C4_6 
REMARK    4  A    between atoms: C15_19  and  O1_20 
ROOT
HETATM    1  C1  UNL     1      28.335   0.519  53.835  1.00  0.00     0.141 A 
HETATM    2  C2  UNL     1      27.216   0.697  53.180  1.00  0.00     0.103 A 
HETATM    3  C3  UNL     1      26.241   1.061  52.230  1.00  0.00     0.148 A 
HETATM    4  N3  UNL     1      24.928   0.794  52.301  1.00  0.00    -0.210 NA
HETATM    5  C10 UNL     1      24.387   0.124  53.328  1.00  0.00     0.164 A 
HETATM    6  C11 UNL     1      22.984  -0.206  53.456  1.00  0.00     0.015 A 
HETATM    7  C12 UNL     1      22.532  -0.919  54.542  1.00  0.00     0.015 A 
HETATM    8  C13 UNL     1      21.165  -1.227  54.615  1.00  0.00     0.004 A 
HETATM    9  C14 UNL     1      20.332  -0.796  53.587  1.00  0.00     0.036 A 
HETATM   10  C15 UNL     1      20.766  -0.075  52.483  1.00  0.00     0.066 A 
HETATM   11  C16 UNL     1      22.129   0.203  52.459  1.00  0.00     0.051 A 
HETATM   12  N4  UNL     1      25.252  -0.261  54.281  1.00  0.00    -0.208 NA
HETATM   13  C17 UNL     1      26.567   0.003  54.216  1.00  0.00     0.171 A 
HETATM   14  N5  UNL     1      27.674  -0.188  54.894  1.00  0.00    -0.210 NA
ENDROOT
BRANCH   3  15
HETATM   15  N2  UNL     1      26.833   1.778  51.121  1.00  0.00    -0.340 N 
HETATM   16  H3  UNL     1      27.785   1.528  50.769  1.00  0.00     0.167 HD
BRANCH  15  17
HETATM   17  C4  UNL     1      26.098   2.839  50.505  1.00  0.00     0.035 A 
HETATM   18  C5  UNL     1      24.725   2.923  50.524  1.00  0.00     0.029 A 
HETATM   19  C6  UNL     1      24.097   3.955  49.897  1.00  0.00     0.004 A 
HETATM   20  C7  UNL     1      24.806   4.953  49.220  1.00  0.00     0.024 A 
HETATM   21  C8  UNL     1      26.200   4.919  49.169  1.00  0.00     0.036 A 
HETATM   22 CL1  UNL     1      27.174   6.113  48.348  1.00  0.00    -0.084 Cl
HETATM   23  C9  UNL     1      26.775   3.833  49.833  1.00  0.00     0.053 A 
ENDBRANCH  15  17
ENDBRANCH   3  15
BRANCH   1  24
HETATM   24  N1  UNL     1      29.670   0.929  53.497  1.00  0.00    -0.383 N 
HETATM   25  H1  UNL     1      30.145   0.990  52.560  1.00  0.00     0.157 HD
HETATM   26  H2  UNL     1      30.277   1.213  54.310  1.00  0.00     0.157 HD
ENDBRANCH   1  24
BRANCH  10  27
HETATM   27  O1  UNL     1      19.933   0.352  51.461  1.00  0.00    -0.361 OA
HETATM   28  H11 UNL     1      19.268  -0.356  51.106  1.00  0.00     0.217 HD
ENDBRANCH  10  27
TORSDOF 4
ENDMDL
MODEL 5
REMARK VINA RESULT:      -9.2      2.864      5.346
REMARK  4 active torsions:
REMARK  status: ('A' for Active; 'I' for Inactive)
REMARK    1  A    between atoms: N1_1  and  C1_2 
REMARK    2  A    between atoms: C3_4  and  N2_5 
REMARK    3  A    between atoms: N2_5  and  C4_6 
REMARK    4  A    between atoms: C15_19  and  O1_20 
ROOT
HETATM    1  C1  UNL     1      22.167  -0.848  53.757  1.00  0.00     0.141 A 
HETATM    2  C2  UNL     1      23.263  -0.241  53.377  1.00  0.00     0.103 A 
HETATM    3  C3  UNL     1      24.600   0.173  53.214  1.00  0.00     0.148 A 
HETATM    4  N3  UNL     1      25.035   1.134  52.385  1.00  0.00    -0.210 NA
HETATM    5  C10 UNL     1      24.205   1.829  51.594  1.00  0.00     0.164 A 
HETATM    6  C11 UNL     1      24.613   2.866  50.672  1.00  0.00     0.015 A 
HETATM    7  C12 UNL     1      23.684   3.506  49.885  1.00  0.00     0.015 A 
HETATM    8  C13 UNL     1      24.130   4.496  48.997  1.00  0.00     0.004 A 
HETATM    9  C14 UNL     1      25.490   4.785  48.953  1.00  0.00     0.036 A 
HETATM   10  C15 UNL     1      26.445   4.153  49.738  1.00  0.00     0.066 A 
HETATM   11  C16 UNL     1      25.951   3.181  50.601  1.00  0.00     0.051 A 
HETATM   12  N4  UNL     1      22.908   1.495  51.690  1.00  0.00    -0.208 NA
HETATM   13  C17 UNL     1      22.466   0.534  52.516  1.00  0.00     0.171 A 
HETATM   14  N5  UNL     1      21.352  -0.057  52.880  1.00  0.00    -0.210 NA
ENDROOT
BRANCH   3  15
HETATM   15  N2  UNL     1      25.490  -0.585  54.066  1.00  0.00    -0.340 N 
HETATM   16  H3  UNL     1      25.114  -1.184  54.836  1.00  0.00     0.167 HD
BRANCH  15  17
HETATM   17  C4  UNL     1      26.900  -0.510  53.842  1.00  0.00     0.035 A 
HETATM   18  C5  UNL     1      27.619  -1.483  53.187  1.00  0.00     0.029 A 
HETATM   19  C6  UNL     1      28.964  -1.348  53.031  1.00  0.00     0.004 A 
HETATM   20  C7  UNL     1      29.660  -0.236  53.519  1.00  0.00     0.024 A 
HETATM   21  C8  UNL     1      28.982   0.782  54.191  1.00  0.00     0.036 A 
HETATM   22 CL1  UNL     1      29.758   2.205  54.840  1.00  0.00    -0.084 Cl
HETATM   23  C9  UNL     1      27.605   0.575  54.314  1.00  0.00     0.053 A 
ENDBRANCH  15  17
ENDBRANCH   3  15
BRANCH   1  24
HETATM   24  N1  UNL     1      21.990  -1.910  54.709  1.00  0.00    -0.383 N 
HETATM   25  H1  UNL     1      22.589  -2.753  54.905  1.00  0.00     0.157 HD
HETATM   26  H2  UNL     1      21.128  -1.842  55.310  1.00  0.00     0.157 HD
ENDBRANCH   1  24
BRANCH  10  27
HETATM   27  O1  UNL     1      27.800   4.443  49.691  1.00  0.00    -0.361 OA
HETATM   28  H11 UNL     1      28.074   5.351  50.102  1.00  0.00     0.217 HD
ENDBRANCH  10  27
TORSDOF 4
ENDMDL
MODEL 6
REMARK VINA RESULT:      -8.7      6.883     10.232
REMARK  4 active torsions:
REMARK  status: ('A' for Active; 'I' for Inactive)
REMARK    1  A    between atoms: N1_1  and  C1_2 
REMARK    2  A    between atoms: C3_4  and  N2_5 
REMARK    3  A    between atoms: N2_5  and  C4_6 
REMARK    4  A    between atoms: C15_19  and  O1_20 
ROOT
HETATM    1  C1  UNL     1      29.530   9.603  49.334  1.00  0.00     0.141 A 
HETATM    2  C2  UNL     1      29.676   8.393  48.855  1.00  0.00     0.103 A 
HETATM    3  C3  UNL     1      29.465   7.130  48.267  1.00  0.00     0.148 A 
HETATM    4  N3  UNL     1      30.393   6.180  48.077  1.00  0.00    -0.210 NA
HETATM    5  C10 UNL     1      31.672   6.344  48.443  1.00  0.00     0.164 A 
HETATM    6  C11 UNL     1      32.720   5.365  48.253  1.00  0.00     0.015 A 
HETATM    7  C12 UNL     1      34.010   5.639  48.645  1.00  0.00     0.015 A 
HETATM    8  C13 UNL     1      34.994   4.663  48.429  1.00  0.00     0.004 A 
HETATM    9  C14 UNL     1      34.620   3.465  47.829  1.00  0.00     0.036 A 
HETATM   10  C15 UNL     1      33.326   3.166  47.427  1.00  0.00     0.066 A 
HETATM   11  C16 UNL     1      32.389   4.167  47.664  1.00  0.00     0.051 A 
HETATM   12  N4  UNL     1      31.958   7.525  49.014  1.00  0.00    -0.208 NA
HETATM   13  C17 UNL     1      31.035   8.480  49.207  1.00  0.00     0.171 A 
HETATM   14  N5  UNL     1      30.917   9.692  49.695  1.00  0.00    -0.210 NA
ENDROOT
BRANCH   3  15
HETATM   15  N2  UNL     1      28.084   6.963  47.869  1.00  0.00    -0.340 N 
HETATM   16  H3  UNL     1      27.706   7.457  47.028  1.00  0.00     0.167 HD
BRANCH  15  17
HETATM   17  C4  UNL     1      27.234   6.109  48.639  1.00  0.00     0.035 A 
HETATM   18  C5  UNL     1      27.389   4.744  48.706  1.00  0.00     0.029 A 
HETATM   19  C6  UNL     1      26.527   3.996  49.446  1.00  0.00     0.004 A 
HETATM   20  C7  UNL     1      25.467   4.571  50.157  1.00  0.00     0.024 A 
HETATM   21  C8  UNL     1      25.263   5.951  50.126  1.00  0.00     0.036 A 
HETATM   22 CL1  UNL     1      23.971   6.764  50.974  1.00  0.00    -0.084 Cl
HETATM   23  C9  UNL     1      26.185   6.654  49.346  1.00  0.00     0.053 A 
ENDBRANCH  15  17
ENDBRANCH   3  15
BRANCH   1  24
HETATM   24  N1  UNL     1      28.355  10.427  49.402  1.00  0.00    -0.383 N 
HETATM   25  H1  UNL     1      28.082  11.268  48.832  1.00  0.00     0.157 HD
HETATM   26  H2  UNL     1      27.651  10.153  50.135  1.00  0.00     0.157 HD
ENDBRANCH   1  24
BRANCH  10  27
HETATM   27  O1  UNL     1      32.958   1.971  46.829  1.00  0.00    -0.361 OA
HETATM   28  H11 UNL     1      32.885   1.995  45.798  1.00  0.00     0.217 HD
ENDBRANCH  10  27
TORSDOF 4
ENDMDL
MODEL 7
REMARK VINA RESULT:      -8.6      3.338      6.415
REMARK  4 active torsions:
REMARK  status: ('A' for Active; 'I' for Inactive)
REMARK    1  A    between atoms: N1_1  and  C1_2 
REMARK    2  A    between atoms: C3_4  and  N2_5 
REMARK    3  A    between atoms: N2_5  and  C4_6 
REMARK    4  A    between atoms: C15_19  and  O1_20 
ROOT
HETATM    1  C1  UNL     1      21.097   0.402  52.828  1.00  0.00     0.141 A 
HETATM    2  C2  UNL     1      22.193   1.098  52.660  1.00  0.00     0.103 A 
HETATM    3  C3  UNL     1      23.136   2.082  52.301  1.00  0.00     0.148 A 
HETATM    4  N3  UNL     1      24.447   2.062  52.585  1.00  0.00    -0.210 NA
HETATM    5  C10 UNL     1      25.018   1.061  53.270  1.00  0.00     0.164 A 
HETATM    6  C11 UNL     1      26.420   0.988  53.619  1.00  0.00     0.015 A 
HETATM    7  C12 UNL     1      26.904  -0.074  54.345  1.00  0.00     0.015 A 
HETATM    8  C13 UNL     1      28.269  -0.094  54.670  1.00  0.00     0.004 A 
HETATM    9  C14 UNL     1      29.068   0.961  54.242  1.00  0.00     0.036 A 
HETATM   10  C15 UNL     1      28.602   2.043  53.508  1.00  0.00     0.066 A 
HETATM   11  C16 UNL     1      27.243   2.014  53.212  1.00  0.00     0.051 A 
HETATM   12  N4  UNL     1      24.184   0.078  53.650  1.00  0.00    -0.208 NA
HETATM   13  C17 UNL     1      22.872   0.092  53.369  1.00  0.00     0.171 A 
HETATM   14  N5  UNL     1      21.789  -0.626  53.552  1.00  0.00    -0.210 NA
ENDROOT
BRANCH   3  15
HETATM   15  N2  UNL     1      22.512   3.162  51.568  1.00  0.00    -0.340 N 
HETATM   16  H3  UNL     1      21.478   3.310  51.611  1.00  0.00     0.167 HD
BRANCH  15  17
HETATM   17  C4  UNL     1      23.328   4.034  50.782  1.00  0.00     0.035 A 
HETATM   18  C5  UNL     1      24.171   3.595  49.788  1.00  0.00     0.029 A 
HETATM   19  C6  UNL     1      24.931   4.486  49.096  1.00  0.00     0.004 A 
HETATM   20  C7  UNL     1      24.889   5.860  49.360  1.00  0.00     0.024 A 
HETATM   21  C8  UNL     1      24.052   6.362  50.358  1.00  0.00     0.036 A 
HETATM   22 CL1  UNL     1      23.930   8.055  50.766  1.00  0.00    -0.084 Cl
HETATM   23  C9  UNL     1      23.303   5.390  51.025  1.00  0.00     0.053 A 
ENDBRANCH  15  17
ENDBRANCH   3  15
BRANCH   1  24
HETATM   24  N1  UNL     1      19.756   0.686  52.400  1.00  0.00    -0.383 N 
HETATM   25  H1  UNL     1      18.991   1.228  52.878  1.00  0.00     0.157 HD
HETATM   26  H2  UNL     1      19.486   0.294  51.460  1.00  0.00     0.157 HD
ENDBRANCH   1  24
BRANCH  10  27
HETATM   27  O1  UNL     1      29.401   3.094  53.084  1.00  0.00    -0.361 OA
HETATM   28  H11 UNL     1      29.009   3.669  52.320  1.00  0.00     0.217 HD
ENDBRANCH  10  27
TORSDOF 4
ENDMDL
MODEL 8
REMARK VINA RESULT:      -8.5      3.200      5.097
REMARK  4 active torsions:
REMARK  status: ('A' for Active; 'I' for Inactive)
REMARK    1  A    between atoms: N1_1  and  C1_2 
REMARK    2  A    between atoms: C3_4  and  N2_5 
REMARK    3  A    between atoms: N2_5  and  C4_6 
REMARK    4  A    between atoms: C15_19  and  O1_20 
ROOT
HETATM    1  C1  UNL     1      26.476  -0.385  54.663  1.00  0.00     0.141 A 
HETATM    2  C2  UNL     1      25.650   0.034  53.738  1.00  0.00     0.103 A 
HETATM    3  C3  UNL     1      25.078   0.622  52.592  1.00  0.00     0.148 A 
HETATM    4  N3  UNL     1      23.778   0.610  52.261  1.00  0.00    -0.210 NA
HETATM    5  C10 UNL     1      22.850   0.012  53.022  1.00  0.00     0.164 A 
HETATM    6  C11 UNL     1      21.438  -0.047  52.713  1.00  0.00     0.015 A 
HETATM    7  C12 UNL     1      20.568  -0.707  53.550  1.00  0.00     0.015 A 
HETATM    8  C13 UNL     1      19.209  -0.748  53.202  1.00  0.00     0.004 A 
HETATM    9  C14 UNL     1      18.806  -0.119  52.029  1.00  0.00     0.036 A 
HETATM   10  C15 UNL     1      19.665   0.553  51.170  1.00  0.00     0.066 A 
HETATM   11  C16 UNL     1      21.000   0.564  51.561  1.00  0.00     0.051 A 
HETATM   12  N4  UNL     1      23.314  -0.575  54.138  1.00  0.00    -0.208 NA
HETATM   13  C17 UNL     1      24.613  -0.567  54.474  1.00  0.00     0.171 A 
HETATM   14  N5  UNL     1      25.419  -0.998  55.415  1.00  0.00    -0.210 NA
ENDROOT
BRANCH   3  15
HETATM   15  N2  UNL     1      26.086   1.260  51.774  1.00  0.00    -0.340 N 
HETATM   16  H3  UNL     1      27.033   0.832  51.661  1.00  0.00     0.167 HD
BRANCH  15  17
HETATM   17  C4  UNL     1      25.772   2.488  51.113  1.00  0.00     0.035 A 
HETATM   18  C5  UNL     1      26.472   2.970  50.031  1.00  0.00     0.029 A 
HETATM   19  C6  UNL     1      26.123   4.159  49.468  1.00  0.00     0.004 A 
HETATM   20  C7  UNL     1      25.060   4.927  49.956  1.00  0.00     0.024 A 
HETATM   21  C8  UNL     1      24.315   4.487  51.051  1.00  0.00     0.036 A 
HETATM   22 CL1  UNL     1      22.974   5.372  51.735  1.00  0.00    -0.084 Cl
HETATM   23  C9  UNL     1      24.729   3.260  51.576  1.00  0.00     0.053 A 
ENDBRANCH  15  17
ENDBRANCH   3  15
BRANCH   1  24
HETATM   24  N1  UNL     1      27.901  -0.226  54.760  1.00  0.00    -0.383 N 
HETATM   25  H1  UNL     1      28.470   0.522  55.232  1.00  0.00     0.157 HD
HETATM   26  H2  UNL     1      28.474  -0.972  54.287  1.00  0.00     0.157 HD
ENDBRANCH   1  24
BRANCH  10  27
HETATM   27  O1  UNL     1      19.259   1.178  50.001  1.00  0.00    -0.361 OA
HETATM   28  H11 UNL     1      18.420   0.774  49.551  1.00  0.00     0.217 HD
ENDBRANCH  10  27
TORSDOF 4
ENDMDL
MODEL 9
REMARK VINA RESULT:      -8.5      3.729      5.699
REMARK  4 active torsions:
REMARK  status: ('A' for Active; 'I' for Inactive)
REMARK    1  A    between atoms: N1_1  and  C1_2 
REMARK    2  A    between atoms: C3_4  and  N2_5 
REMARK    3  A    between atoms: N2_5  and  C4_6 
REMARK    4  A    between atoms: C15_19  and  O1_20 
ROOT
HETATM    1  C1  UNL     1      23.909  -1.119  55.068  1.00  0.00     0.141 A 
HETATM    2  C2  UNL     1      23.340  -0.559  54.031  1.00  0.00     0.103 A 
HETATM    3  C3  UNL     1      23.081   0.159  52.846  1.00  0.00     0.148 A 
HETATM    4  N3  UNL     1      21.888   0.295  52.249  1.00  0.00    -0.210 NA
HETATM    5  C10 UNL     1      20.771  -0.262  52.739  1.00  0.00     0.164 A 
HETATM    6  C11 UNL     1      19.460  -0.162  52.136  1.00  0.00     0.015 A 
HETATM    7  C12 UNL     1      18.379  -0.791  52.708  1.00  0.00     0.015 A 
HETATM    8  C13 UNL     1      17.131  -0.676  52.079  1.00  0.00     0.004 A 
HETATM    9  C14 UNL     1      17.044   0.068  50.907  1.00  0.00     0.036 A 
HETATM   10  C15 UNL     1      18.121   0.712  50.312  1.00  0.00     0.066 A 
HETATM   11  C16 UNL     1      19.335   0.567  50.976  1.00  0.00     0.051 A 
HETATM   12  N4  UNL     1      20.932  -0.966  53.872  1.00  0.00    -0.208 NA
HETATM   13  C17 UNL     1      22.123  -1.107  54.475  1.00  0.00     0.171 A 
HETATM   14  N5  UNL     1      22.667  -1.678  55.523  1.00  0.00    -0.210 NA
ENDROOT
BRANCH   3  15
HETATM   15  N2  UNL     1      24.291   0.752  52.319  1.00  0.00    -0.340 N 
HETATM   16  H3  UNL     1      25.154   0.177  52.185  1.00  0.00     0.167 HD
BRANCH  15  17
HETATM   17  C4  UNL     1      24.295   2.140  51.977  1.00  0.00     0.035 A 
HETATM   18  C5  UNL     1      23.504   3.078  52.598  1.00  0.00     0.029 A 
HETATM   19  C6  UNL     1      23.551   4.379  52.202  1.00  0.00     0.004 A 
HETATM   20  C7  UNL     1      24.389   4.810  51.168  1.00  0.00     0.024 A 
HETATM   21  C8  UNL     1      25.214   3.902  50.503  1.00  0.00     0.036 A 
HETATM   22 CL1  UNL     1      26.291   4.339  49.199  1.00  0.00    -0.084 Cl
HETATM   23  C9  UNL     1      25.112   2.587  50.962  1.00  0.00     0.053 A 
ENDBRANCH  15  17
ENDBRANCH   3  15
BRANCH   1  24
HETATM   24  N1  UNL     1      25.286  -1.106  55.478  1.00  0.00    -0.383 N 
HETATM   25  H1  UNL     1      26.010  -1.869  55.448  1.00  0.00     0.157 HD
HETATM   26  H2  UNL     1      25.634  -0.193  55.870  1.00  0.00     0.157 HD
ENDBRANCH   1  24
BRANCH  10  27
HETATM   27  O1  UNL     1      18.030   1.452  49.144  1.00  0.00    -0.361 OA
HETATM   28  H11 UNL     1      18.659   1.153  48.379  1.00  0.00     0.217 HD
ENDBRANCH  10  27
TORSDOF 4
ENDMDL
