MODEL 1
REMARK VINA RESULT:      -7.7      0.000      0.000
REMARK  5 active torsions:
REMARK  status: ('A' for Active; 'I' for Inactive)
REMARK    1  A    between atoms: N1_2  and  C2_3 
REMARK    2  A    between atoms: C3_4  and  C4_5 
REMARK    3  A    between atoms: C5_6  and  C6_7 
REMARK    4  A    between atoms: C9_11  and  N3_12 
REMARK    5  A    between atoms: N3_12  and  C10_13 
ROOT
HETATM    1  C6  UNL     1      27.365   2.126  53.018  1.00  0.00     0.077 A 
HETATM    2  C7  UNL     1      26.125   2.068  53.558  1.00  0.00     0.052 A 
HETATM    3  C8  UNL     1      24.946   2.337  52.904  1.00  0.00     0.139 A 
HETATM    4  N2  UNL     1      25.135   2.679  51.619  1.00  0.00    -0.075 NA
HETATM    5  C9  UNL     1      26.318   2.760  51.007  1.00  0.00     0.727 A 
HETATM    6  N4  UNL     1      27.395   2.478  51.736  1.00  0.00    -0.063 NA
ENDROOT
BRANCH   5   7
HETATM    7  N3  UNL     1      26.498   3.125  49.646  1.00  0.00    -0.188 N 
HETATM    8  H9  UNL     1      26.438   2.358  48.934  1.00  0.00     0.184 HD
BRANCH   7   9
HETATM    9  C10 UNL     1      26.750   4.410  49.126  1.00  0.00     0.051 A 
HETATM   10  C11 UNL     1      27.931   4.897  48.641  1.00  0.00     0.030 A 
HETATM   11  C12 UNL     1      28.159   6.158  48.137  1.00  0.00     0.004 A 
HETATM   12  C13 UNL     1      27.109   7.043  48.104  1.00  0.00     0.024 A 
HETATM   13  C14 UNL     1      25.886   6.621  48.578  1.00  0.00     0.036 A 
HETATM   14 CL1  UNL     1      24.536   7.735  48.545  1.00  0.00    -0.084 Cl
HETATM   15  C15 UNL     1      25.724   5.347  49.069  1.00  0.00     0.053 A 
ENDBRANCH   7   9
ENDBRANCH   5   7
BRANCH   1  16
HETATM   16  C5  UNL     1      28.635   1.855  53.656  1.00  0.00     0.032 C 
HETATM   17  C4  UNL     1      29.365   0.779  53.792  1.00  0.00     0.004 C 
BRANCH  17  18
HETATM   18  C3  UNL     1      29.649  -0.622  53.600  1.00  0.00     0.019 C 
HETATM   19  C2  UNL     1      29.317  -1.854  53.386  1.00  0.00     0.110 C 
BRANCH  19  20
HETATM   20  N1  UNL     1      27.959  -1.448  53.348  1.00  0.00    -0.300 NA
HETATM   21  C1  UNL     1      27.059  -1.978  52.596  1.00  0.00     0.170 C 
ENDBRANCH  19  20
ENDBRANCH  17  18
ENDBRANCH   1  16
TORSDOF 5
ENDMDL
MODEL 2
REMARK VINA RESULT:      -7.2      4.130      7.236
REMARK  5 active torsions:
REMARK  status: ('A' for Active; 'I' for Inactive)
REMARK    1  A    between atoms: N1_2  and  C2_3 
REMARK    2  A    between atoms: C3_4  and  C4_5 
REMARK    3  A    between atoms: C5_6  and  C6_7 
REMARK    4  A    between atoms: C9_11  and  N3_12 
REMARK    5  A    between atoms: N3_12  and  C10_13 
ROOT
HETATM    1  C6  UNL     1      22.448  -0.590  53.846  1.00  0.00     0.077 A 
HETATM    2  C7  UNL     1      22.635  -1.058  55.103  1.00  0.00     0.052 A 
HETATM    3  C8  UNL     1      23.846  -1.354  55.683  1.00  0.00     0.139 A 
HETATM    4  N2  UNL     1      24.882  -1.130  54.858  1.00  0.00    -0.075 NA
HETATM    5  C9  UNL     1      24.789  -0.672  53.609  1.00  0.00     0.727 A 
HETATM    6  N4  UNL     1      23.567  -0.418  53.147  1.00  0.00    -0.063 NA
ENDROOT
BRANCH   5   7
HETATM    7  N3  UNL     1      25.898  -0.441  52.750  1.00  0.00    -0.188 N 
HETATM    8  H9  UNL     1      25.690  -0.249  51.742  1.00  0.00     0.184 HD
BRANCH   7   9
HETATM    9  C10 UNL     1      27.265  -0.439  53.094  1.00  0.00     0.051 A 
HETATM   10  C11 UNL     1      28.149  -1.478  53.005  1.00  0.00     0.030 A 
HETATM   11  C12 UNL     1      29.483  -1.458  53.347  1.00  0.00     0.004 A 
HETATM   12  C13 UNL     1      30.011  -0.285  53.830  1.00  0.00     0.024 A 
HETATM   13  C14 UNL     1      29.177   0.805  53.947  1.00  0.00     0.036 A 
HETATM   14 CL1  UNL     1      29.832   2.308  54.562  1.00  0.00    -0.084 Cl
HETATM   15  C15 UNL     1      27.853   0.720  53.589  1.00  0.00     0.053 A 
ENDBRANCH   7   9
ENDBRANCH   5   7
BRANCH   1  16
HETATM   16  C5  UNL     1      21.204  -0.264  53.187  1.00  0.00     0.032 C 
HETATM   17  C4  UNL     1      20.899   0.130  51.978  1.00  0.00     0.004 C 
BRANCH  17  18
HETATM   18  C3  UNL     1      21.220   0.504  50.622  1.00  0.00     0.019 C 
HETATM   19  C2  UNL     1      21.800   1.236  49.727  1.00  0.00     0.110 C 
BRANCH  19  20
HETATM   20  N1  UNL     1      22.356   2.016  50.772  1.00  0.00    -0.300 NA
HETATM   21  C1  UNL     1      23.594   2.362  50.847  1.00  0.00     0.170 C 
ENDBRANCH  19  20
ENDBRANCH  17  18
ENDBRANCH   1  16
TORSDOF 5
ENDMDL
MODEL 3
REMARK VINA RESULT:      -7.0      3.892      6.479
REMARK  5 active torsions:
REMARK  status: ('A' for Active; 'I' for Inactive)
REMARK    1  A    between atoms: N1_2  and  C2_3 
REMARK    2  A    between atoms: C3_4  and  C4_5 
REMARK    3  A    between atoms: C5_6  and  C6_7 
REMARK    4  A    between atoms: C9_11  and  N3_12 
REMARK    5  A    between atoms: N3_12  and  C10_13 
ROOT
HETATM    1  C6  UNL     1      26.058   0.225  52.196  1.00  0.00     0.077 A 
HETATM    2  C7  UNL     1      26.666   1.270  51.586  1.00  0.00     0.052 A 
HETATM    3  C8  UNL     1      26.106   2.502  51.347  1.00  0.00     0.139 A 
HETATM    4  N2  UNL     1      24.840   2.589  51.790  1.00  0.00    -0.075 NA
HETATM    5  C9  UNL     1      24.167   1.612  52.399  1.00  0.00     0.727 A 
HETATM    6  N4  UNL     1      24.806   0.459  52.580  1.00  0.00    -0.063 NA
ENDROOT
BRANCH   5   7
HETATM    7  N3  UNL     1      22.828   1.724  52.860  1.00  0.00    -0.188 N 
HETATM    8  H9  UNL     1      22.425   2.688  52.933  1.00  0.00     0.184 HD
BRANCH   7   9
HETATM    9  C10 UNL     1      21.959   0.680  53.238  1.00  0.00     0.051 A 
HETATM   10  C11 UNL     1      22.185  -0.300  54.165  1.00  0.00     0.030 A 
HETATM   11  C12 UNL     1      21.324  -1.313  54.521  1.00  0.00     0.004 A 
HETATM   12  C13 UNL     1      20.100  -1.373  53.898  1.00  0.00     0.024 A 
HETATM   13  C14 UNL     1      19.804  -0.418  52.951  1.00  0.00     0.036 A 
HETATM   14 CL1  UNL     1      18.250  -0.479  52.146  1.00  0.00    -0.084 Cl
HETATM   15  C15 UNL     1      20.709   0.569  52.640  1.00  0.00     0.053 A 
ENDBRANCH   7   9
ENDBRANCH   5   7
BRANCH   1  16
HETATM   16  C5  UNL     1      26.596  -1.089  52.473  1.00  0.00     0.032 C 
HETATM   17  C4  UNL     1      27.756  -1.518  52.894  1.00  0.00     0.004 C 
BRANCH  17  18
HETATM   18  C3  UNL     1      29.117  -1.337  53.337  1.00  0.00     0.019 C 
HETATM   19  C2  UNL     1      30.128  -0.625  53.716  1.00  0.00     0.110 C 
BRANCH  19  20
HETATM   20  N1  UNL     1      29.329   0.535  53.560  1.00  0.00    -0.300 NA
HETATM   21  C1  UNL     1      29.268   1.500  54.410  1.00  0.00     0.170 C 
ENDBRANCH  19  20
ENDBRANCH  17  18
ENDBRANCH   1  16
TORSDOF 5
ENDMDL
MODEL 4
REMARK VINA RESULT:      -7.0      3.866      6.970
REMARK  5 active torsions:
REMARK  status: ('A' for Active; 'I' for Inactive)
REMARK    1  A    between atoms: N1_2  and  C2_3 
REMARK    2  A    between atoms: C3_4  and  C4_5 
REMARK    3  A    between atoms: C5_6  and  C6_7 
REMARK    4  A    between atoms: C9_11  and  N3_12 
REMARK    5  A    between atoms: N3_12  and  C10_13 
ROOT
HETATM    1  C6  UNL     1      22.275  -0.030  52.729  1.00  0.00     0.077 A 
HETATM    2  C7  UNL     1      21.357  -0.533  53.588  1.00  0.00     0.052 A 
HETATM    3  C8  UNL     1      21.627  -1.151  54.786  1.00  0.00     0.139 A 
HETATM    4  N2  UNL     1      22.943  -1.220  55.048  1.00  0.00    -0.075 NA
HETATM    5  C9  UNL     1      23.912  -0.752  54.260  1.00  0.00     0.727 A 
HETATM    6  N4  UNL     1      23.538  -0.171  53.122  1.00  0.00    -0.063 NA
ENDROOT
BRANCH   5   7
HETATM    7  N3  UNL     1      25.299  -0.834  54.554  1.00  0.00    -0.188 N 
HETATM    8  H9  UNL     1      25.620  -1.656  55.119  1.00  0.00     0.184 HD
BRANCH   7   9
HETATM    9  C10 UNL     1      26.313   0.067  54.173  1.00  0.00     0.051 A 
HETATM   10  C11 UNL     1      26.194   1.409  53.942  1.00  0.00     0.030 A 
HETATM   11  C12 UNL     1      27.198   2.275  53.570  1.00  0.00     0.004 A 
HETATM   12  C13 UNL     1      28.464   1.768  53.405  1.00  0.00     0.024 A 
HETATM   13  C14 UNL     1      28.659   0.421  53.620  1.00  0.00     0.036 A 
HETATM   14 CL1  UNL     1      30.266  -0.243  53.414  1.00  0.00    -0.084 Cl
HETATM   15  C15 UNL     1      27.614  -0.391  53.990  1.00  0.00     0.053 A 
ENDBRANCH   7   9
ENDBRANCH   5   7
BRANCH   1  16
HETATM   16  C5  UNL     1      22.051   0.627  51.461  1.00  0.00     0.032 C 
HETATM   17  C4  UNL     1      22.696   1.548  50.794  1.00  0.00     0.004 C 
BRANCH  17  18
HETATM   18  C3  UNL     1      23.776   2.486  50.604  1.00  0.00     0.019 C 
HETATM   19  C2  UNL     1      24.526   3.479  50.957  1.00  0.00     0.110 C 
BRANCH  19  20
HETATM   20  N1  UNL     1      23.776   3.577  52.156  1.00  0.00    -0.300 NA
HETATM   21  C1  UNL     1      23.434   4.684  52.717  1.00  0.00     0.170 C 
ENDBRANCH  19  20
ENDBRANCH  17  18
ENDBRANCH   1  16
TORSDOF 5
ENDMDL
MODEL 5
REMARK VINA RESULT:      -6.9      3.711      6.518
REMARK  5 active torsions:
REMARK  status: ('A' for Active; 'I' for Inactive)
REMARK    1  A    between atoms: N1_2  and  C2_3 
REMARK    2  A    between atoms: C3_4  and  C4_5 
REMARK    3  A    between atoms: C5_6  and  C6_7 
REMARK    4  A    between atoms: C9_11  and  N3_12 
REMARK    5  A    between atoms: N3_12  and  C10_13 
ROOT
HETATM    1  C6  UNL     1      23.168   1.875  50.858  1.00  0.00     0.077 A 
HETATM    2  C7  UNL     1      23.489   2.693  49.828  1.00  0.00     0.052 A 
HETATM    3  C8  UNL     1      24.620   3.469  49.735  1.00  0.00     0.139 A 
HETATM    4  N2  UNL     1      25.422   3.344  50.805  1.00  0.00    -0.075 NA
HETATM    5  C9  UNL     1      25.184   2.563  51.861  1.00  0.00     0.727 A 
HETATM    6  N4  UNL     1      24.058   1.854  51.847  1.00  0.00    -0.063 NA
ENDROOT
BRANCH   5   7
HETATM    7  N3  UNL     1      26.046   2.444  52.984  1.00  0.00    -0.188 N 
HETATM    8  H9  UNL     1      25.906   3.124  53.769  1.00  0.00     0.184 HD
BRANCH   7   9
HETATM    9  C10 UNL     1      27.082   1.509  53.177  1.00  0.00     0.051 A 
HETATM   10  C11 UNL     1      28.344   1.746  53.646  1.00  0.00     0.030 A 
HETATM   11  C12 UNL     1      29.345   0.818  53.827  1.00  0.00     0.004 A 
HETATM   12  C13 UNL     1      29.079  -0.493  53.514  1.00  0.00     0.024 A 
HETATM   13  C14 UNL     1      27.826  -0.807  53.035  1.00  0.00     0.036 A 
HETATM   14 CL1  UNL     1      27.469  -2.472  52.629  1.00  0.00    -0.084 Cl
HETATM   15  C15 UNL     1      26.869   0.168  52.876  1.00  0.00     0.053 A 
ENDBRANCH   7   9
ENDBRANCH   5   7
BRANCH   1  16
HETATM   16  C5  UNL     1      21.998   1.040  51.009  1.00  0.00     0.032 C 
HETATM   17  C4  UNL     1      21.362   0.556  52.044  1.00  0.00     0.004 C 
BRANCH  17  18
HETATM   18  C3  UNL     1      21.155   0.364  53.459  1.00  0.00     0.019 C 
HETATM   19  C2  UNL     1      21.442  -0.138  54.615  1.00  0.00     0.110 C 
BRANCH  19  20
HETATM   20  N1  UNL     1      22.531  -0.818  54.014  1.00  0.00    -0.300 NA
HETATM   21  C1  UNL     1      23.717  -0.882  54.510  1.00  0.00     0.170 C 
ENDBRANCH  19  20
ENDBRANCH  17  18
ENDBRANCH   1  16
TORSDOF 5
ENDMDL
MODEL 6
REMARK VINA RESULT:      -6.9      3.388      7.163
REMARK  5 active torsions:
REMARK  status: ('A' for Active; 'I' for Inactive)
REMARK    1  A    between atoms: N1_2  and  C2_3 
REMARK    2  A    between atoms: C3_4  and  C4_5 
REMARK    3  A    between atoms: C5_6  and  C6_7 
REMARK    4  A    between atoms: C9_11  and  N3_12 
REMARK    5  A    between atoms: N3_12  and  C10_13 
ROOT
HETATM    1  C6  UNL     1      27.154   1.447  52.699  1.00  0.00     0.077 A 
HETATM    2  C7  UNL     1      28.299   1.444  53.422  1.00  0.00     0.052 A 
HETATM    3  C8  UNL     1      28.556   0.660  54.522  1.00  0.00     0.139 A 
HETATM    4  N2  UNL     1      27.525  -0.142  54.837  1.00  0.00    -0.075 NA
HETATM    5  C9  UNL     1      26.366  -0.203  54.181  1.00  0.00     0.727 A 
HETATM    6  N4  UNL     1      26.223   0.600  53.129  1.00  0.00    -0.063 NA
ENDROOT
BRANCH   5   7
HETATM    7  N3  UNL     1      25.287  -1.059  54.530  1.00  0.00    -0.188 N 
HETATM    8  H9  UNL     1      25.525  -1.955  55.016  1.00  0.00     0.184 HD
BRANCH   7   9
HETATM    9  C10 UNL     1      23.913  -0.848  54.298  1.00  0.00     0.051 A 
HETATM   10  C11 UNL     1      22.882  -1.018  55.180  1.00  0.00     0.030 A 
HETATM   11  C12 UNL     1      21.544  -0.807  54.935  1.00  0.00     0.004 A 
HETATM   12  C13 UNL     1      21.173  -0.380  53.683  1.00  0.00     0.024 A 
HETATM   13  C14 UNL     1      22.160  -0.187  52.741  1.00  0.00     0.036 A 
HETATM   14 CL1  UNL     1      21.705   0.356  51.140  1.00  0.00    -0.084 Cl
HETATM   15  C15 UNL     1      23.479  -0.416  53.049  1.00  0.00     0.053 A 
ENDBRANCH   7   9
ENDBRANCH   5   7
BRANCH   1  16
HETATM   16  C5  UNL     1      26.829   2.247  51.538  1.00  0.00     0.032 C 
HETATM   17  C4  UNL     1      25.711   2.713  51.047  1.00  0.00     0.004 C 
BRANCH  17  18
HETATM   18  C3  UNL     1      24.281   2.901  51.046  1.00  0.00     0.019 C 
HETATM   19  C2  UNL     1      23.202   3.591  51.226  1.00  0.00     0.110 C 
BRANCH  19  20
HETATM   20  N1  UNL     1      24.007   4.687  51.625  1.00  0.00    -0.300 NA
HETATM   21  C1  UNL     1      23.770   5.916  51.326  1.00  0.00     0.170 C 
ENDBRANCH  19  20
ENDBRANCH  17  18
ENDBRANCH   1  16
TORSDOF 5
ENDMDL
MODEL 7
REMARK VINA RESULT:      -6.9      3.100      7.002
REMARK  5 active torsions:
REMARK  status: ('A' for Active; 'I' for Inactive)
REMARK    1  A    between atoms: N1_2  and  C2_3 
REMARK    2  A    between atoms: C3_4  and  C4_5 
REMARK    3  A    between atoms: C5_6  and  C6_7 
REMARK    4  A    between atoms: C9_11  and  N3_12 
REMARK    5  A    between atoms: N3_12  and  C10_13 
ROOT
HETATM    1  C6  UNL     1      25.076   4.341  49.663  1.00  0.00     0.077 A 
HETATM    2  C7  UNL     1      24.001   3.630  49.248  1.00  0.00     0.052 A 
HETATM    3  C8  UNL     1      23.428   2.572  49.913  1.00  0.00     0.139 A 
HETATM    4  N2  UNL     1      24.053   2.288  51.068  1.00  0.00    -0.075 NA
HETATM    5  C9  UNL     1      25.114   2.935  51.550  1.00  0.00     0.727 A 
HETATM    6  N4  UNL     1      25.588   3.944  50.824  1.00  0.00    -0.063 NA
ENDROOT
BRANCH   5   7
HETATM    7  N3  UNL     1      25.762   2.620  52.775  1.00  0.00    -0.188 N 
HETATM    8  H9  UNL     1      25.452   3.142  53.628  1.00  0.00     0.184 HD
BRANCH   7   9
HETATM    9  C10 UNL     1      26.786   1.675  52.986  1.00  0.00     0.051 A 
HETATM   10  C11 UNL     1      28.053   1.905  53.445  1.00  0.00     0.030 A 
HETATM   11  C12 UNL     1      29.041   0.968  53.645  1.00  0.00     0.004 A 
HETATM   12  C13 UNL     1      28.755  -0.346  53.365  1.00  0.00     0.024 A 
HETATM   13  C14 UNL     1      27.497  -0.654  52.897  1.00  0.00     0.036 A 
HETATM   14 CL1  UNL     1      27.115  -2.323  52.533  1.00  0.00    -0.084 Cl
HETATM   15  C15 UNL     1      26.553   0.330  52.718  1.00  0.00     0.053 A 
ENDBRANCH   7   9
ENDBRANCH   5   7
BRANCH   1  16
HETATM   16  C5  UNL     1      25.719   5.458  49.007  1.00  0.00     0.032 C 
HETATM   17  C4  UNL     1      26.940   5.683  48.598  1.00  0.00     0.004 C 
BRANCH  17  18
HETATM   18  C3  UNL     1      28.325   5.324  48.406  1.00  0.00     0.019 C 
HETATM   19  C2  UNL     1      29.576   5.590  48.218  1.00  0.00     0.110 C 
BRANCH  19  20
HETATM   20  N1  UNL     1      29.252   6.970  48.230  1.00  0.00    -0.300 NA
HETATM   21  C1  UNL     1      30.049   7.905  48.613  1.00  0.00     0.170 C 
ENDBRANCH  19  20
ENDBRANCH  17  18
ENDBRANCH   1  16
TORSDOF 5
ENDMDL
MODEL 8
REMARK VINA RESULT:      -6.8      3.473      6.770
REMARK  5 active torsions:
REMARK  status: ('A' for Active; 'I' for Inactive)
REMARK    1  A    between atoms: N1_2  and  C2_3 
REMARK    2  A    between atoms: C3_4  and  C4_5 
REMARK    3  A    between atoms: C5_6  and  C6_7 
REMARK    4  A    between atoms: C9_11  and  N3_12 
REMARK    5  A    between atoms: N3_12  and  C10_13 
ROOT
HETATM    1  C6  UNL     1      22.962   1.481  51.273  1.00  0.00     0.077 A 
HETATM    2  C7  UNL     1      21.844   0.727  51.398  1.00  0.00     0.052 A 
HETATM    3  C8  UNL     1      21.647  -0.278  52.315  1.00  0.00     0.139 A 
HETATM    4  N2  UNL     1      22.708  -0.460  53.119  1.00  0.00    -0.075 NA
HETATM    5  C9  UNL     1      23.845   0.236  53.065  1.00  0.00     0.727 A 
HETATM    6  N4  UNL     1      23.929   1.186  52.138  1.00  0.00    -0.063 NA
ENDROOT
BRANCH   5   7
HETATM    7  N3  UNL     1      24.957   0.029  53.924  1.00  0.00    -0.188 N 
HETATM    8  H9  UNL     1      24.802  -0.566  54.773  1.00  0.00     0.184 HD
BRANCH   7   9
HETATM    9  C10 UNL     1      26.265   0.533  53.774  1.00  0.00     0.051 A 
HETATM   10  C11 UNL     1      26.652   1.842  53.706  1.00  0.00     0.030 A 
HETATM   11  C12 UNL     1      27.936   2.316  53.558  1.00  0.00     0.004 A 
HETATM   12  C13 UNL     1      28.959   1.402  53.468  1.00  0.00     0.024 A 
HETATM   13  C14 UNL     1      28.643   0.063  53.528  1.00  0.00     0.036 A 
HETATM   14 CL1  UNL     1      29.932  -1.116  53.414  1.00  0.00    -0.084 Cl
HETATM   15  C15 UNL     1      27.339  -0.346  53.677  1.00  0.00     0.053 A 
ENDBRANCH   7   9
ENDBRANCH   5   7
BRANCH   1  16
HETATM   16  C5  UNL     1      23.224   2.546  50.330  1.00  0.00     0.032 C 
HETATM   17  C4  UNL     1      24.318   3.078  49.851  1.00  0.00     0.004 C 
BRANCH  17  18
HETATM   18  C3  UNL     1      25.751   3.199  49.733  1.00  0.00     0.019 C 
HETATM   19  C2  UNL     1      26.845   3.851  49.507  1.00  0.00     0.110 C 
BRANCH  19  20
HETATM   20  N1  UNL     1      26.066   5.012  49.270  1.00  0.00    -0.300 NA
HETATM   21  C1  UNL     1      26.513   6.095  48.737  1.00  0.00     0.170 C 
ENDBRANCH  19  20
ENDBRANCH  17  18
ENDBRANCH   1  16
TORSDOF 5
ENDMDL
MODEL 9
REMARK VINA RESULT:      -6.7      1.584      2.179
REMARK  5 active torsions:
REMARK  status: ('A' for Active; 'I' for Inactive)
REMARK    1  A    between atoms: N1_2  and  C2_3 
REMARK    2  A    between atoms: C3_4  and  C4_5 
REMARK    3  A    between atoms: C5_6  and  C6_7 
REMARK    4  A    between atoms: C9_11  and  N3_12 
REMARK    5  A    between atoms: N3_12  and  C10_13 
ROOT
HETATM    1  C6  UNL     1      25.364   2.101  51.822  1.00  0.00     0.077 A 
HETATM    2  C7  UNL     1      24.489   2.618  52.718  1.00  0.00     0.052 A 
HETATM    3  C8  UNL     1      23.801   3.801  52.584  1.00  0.00     0.139 A 
HETATM    4  N2  UNL     1      24.081   4.434  51.433  1.00  0.00    -0.075 NA
HETATM    5  C9  UNL     1      24.926   3.998  50.498  1.00  0.00     0.727 A 
HETATM    6  N4  UNL     1      25.539   2.840  50.730  1.00  0.00    -0.063 NA
ENDROOT
BRANCH   5   7
HETATM    7  N3  UNL     1      25.209   4.683  49.286  1.00  0.00    -0.188 N 
HETATM    8  H9  UNL     1      24.459   4.691  48.554  1.00  0.00     0.184 HD
BRANCH   7   9
HETATM    9  C10 UNL     1      26.394   5.363  48.939  1.00  0.00     0.051 A 
HETATM   10  C11 UNL     1      27.608   4.819  48.625  1.00  0.00     0.030 A 
HETATM   11  C12 UNL     1      28.756   5.500  48.289  1.00  0.00     0.004 A 
HETATM   12  C13 UNL     1      28.709   6.873  48.258  1.00  0.00     0.024 A 
HETATM   13  C14 UNL     1      27.517   7.492  48.565  1.00  0.00     0.036 A 
HETATM   14 CL1  UNL     1      27.440   9.240  48.531  1.00  0.00    -0.084 Cl
HETATM   15  C15 UNL     1      26.405   6.753  48.892  1.00  0.00     0.053 A 
ENDBRANCH   7   9
ENDBRANCH   5   7
BRANCH   1  16
HETATM   16  C5  UNL     1      26.113   0.868  51.910  1.00  0.00     0.032 C 
HETATM   17  C4  UNL     1      26.870   0.335  52.833  1.00  0.00     0.004 C 
BRANCH  17  18
HETATM   18  C3  UNL     1      27.511   0.317  54.125  1.00  0.00     0.019 C 
HETATM   19  C2  UNL     1      28.518   0.140  54.918  1.00  0.00     0.110 C 
BRANCH  19  20
HETATM   20  N1  UNL     1      29.303  -0.211  53.791  1.00  0.00    -0.300 NA
HETATM   21  C1  UNL     1      30.008  -1.284  53.697  1.00  0.00     0.170 C 
ENDBRANCH  19  20
ENDBRANCH  17  18
ENDBRANCH   1  16
TORSDOF 5
ENDMDL
