MODEL 1
REMARK VINA RESULT:      -8.0      0.000      0.000
REMARK  4 active torsions:
REMARK  status: ('A' for Active; 'I' for Inactive)
REMARK    1  A    between atoms: C5_5  and  N1_6 
REMARK    2  A    between atoms: N1_6  and  C6_7 
REMARK    3  A    between atoms: C10_14  and  N5_15 
REMARK       I    between atoms: N5_15  and  C11_16 
REMARK    4  A    between atoms: C11_16  and  C12_18 
ROOT
HETATM    1  C6  UNL     1      25.608   0.710  53.863  1.00  0.00     0.142 A 
HETATM    2  N2  UNL     1      25.059  -0.397  54.388  1.00  0.00    -0.224 NA
HETATM    3  C7  UNL     1      23.849  -0.848  53.994  1.00  0.00     0.236 A 
HETATM    4  N3  UNL     1      23.215  -0.133  53.045  1.00  0.00    -0.240 NA
HETATM    5  C8  UNL     1      23.734   0.976  52.499  1.00  0.00     0.089 A 
HETATM    6  C9  UNL     1      23.056   1.679  51.533  1.00  0.00     0.151 A 
HETATM    7  N4  UNL     1      23.600   2.789  51.003  1.00  0.00    -0.241 NA
HETATM    8  C10 UNL     1      24.812   3.215  51.418  1.00  0.00     0.131 A 
HETATM    9  C14 UNL     1      25.555   2.580  52.371  1.00  0.00     0.068 A 
HETATM   10  C15 UNL     1      24.978   1.452  52.895  1.00  0.00     0.044 A 
ENDROOT
BRANCH   1  11
HETATM   11  N1  UNL     1      26.885   1.063  54.374  1.00  0.00    -0.340 N 
HETATM   12  H6  UNL     1      27.174   1.822  55.026  1.00  0.00     0.167 HD
BRANCH  11  13
HETATM   13  C5  UNL     1      28.042   0.326  54.000  1.00  0.00     0.039 A 
HETATM   14  C2  UNL     1      28.465  -0.916  53.355  1.00  0.00    -0.035 A 
HETATM   15  C1  UNL     1      27.673  -2.027  52.768  1.00  0.00     0.050 C 
HETATM   16  C3  UNL     1      29.758  -0.629  53.517  1.00  0.00     0.011 A 
HETATM   17  C4  UNL     1      29.330   0.610  54.159  1.00  0.00     0.030 A 
ENDBRANCH  11  13
ENDBRANCH   1  11
BRANCH   8  18
HETATM   18  N5  UNL     1      25.365   4.409  50.827  1.00  0.00    -0.308 N 
HETATM   19  C11 UNL     1      26.165   4.118  49.685  1.00  0.00     0.247 C 
HETATM   20  O1  UNL     1      26.311   2.928  49.316  1.00  0.00    -0.268 OA
HETATM   21  H9  UNL     1      25.208   5.380  51.180  1.00  0.00     0.170 HD
BRANCH  19  22
HETATM   22  C12 UNL     1      26.812   5.190  48.947  1.00  0.00     0.086 C 
HETATM   23  C13 UNL     1      28.058   5.114  48.546  1.00  0.00     0.090 C 
HETATM   24 CL1  UNL     1      28.910   6.373  47.647  1.00  0.00    -0.097 Cl
ENDBRANCH  19  22
ENDBRANCH   8  18
TORSDOF 4
ENDMDL
MODEL 2
REMARK VINA RESULT:      -7.7      2.121      2.237
REMARK  4 active torsions:
REMARK  status: ('A' for Active; 'I' for Inactive)
REMARK    1  A    between atoms: C5_5  and  N1_6 
REMARK    2  A    between atoms: N1_6  and  C6_7 
REMARK    3  A    between atoms: C10_14  and  N5_15 
REMARK       I    between atoms: N5_15  and  C11_16 
REMARK    4  A    between atoms: C11_16  and  C12_18 
ROOT
HETATM    1  C6  UNL     1      25.805   0.241  54.446  1.00  0.00     0.142 A 
HETATM    2  N2  UNL     1      25.506  -0.754  55.296  1.00  0.00    -0.224 NA
HETATM    3  C7  UNL     1      24.300  -1.359  55.290  1.00  0.00     0.236 A 
HETATM    4  N3  UNL     1      23.404  -0.917  54.387  1.00  0.00    -0.240 NA
HETATM    5  C8  UNL     1      23.668   0.074  53.524  1.00  0.00     0.089 A 
HETATM    6  C9  UNL     1      22.728   0.499  52.617  1.00  0.00     0.151 A 
HETATM    7  N4  UNL     1      23.019   1.495  51.762  1.00  0.00    -0.241 NA
HETATM    8  C10 UNL     1      24.235   2.081  51.793  1.00  0.00     0.131 A 
HETATM    9  C14 UNL     1      25.229   1.724  52.658  1.00  0.00     0.068 A 
HETATM   10  C15 UNL     1      24.906   0.706  53.519  1.00  0.00     0.044 A 
ENDROOT
BRANCH   1  11
HETATM   11  N1  UNL     1      27.112   0.782  54.568  1.00  0.00    -0.340 N 
HETATM   12  H6  UNL     1      27.447   1.671  54.994  1.00  0.00     0.167 HD
BRANCH  11  13
HETATM   13  C5  UNL     1      28.236   0.076  54.058  1.00  0.00     0.039 A 
HETATM   14  C2  UNL     1      28.609  -1.136  53.331  1.00  0.00    -0.035 A 
HETATM   15  C1  UNL     1      27.777  -2.238  52.782  1.00  0.00     0.050 C 
HETATM   16  C3  UNL     1      29.908  -0.835  53.378  1.00  0.00     0.011 A 
HETATM   17  C4  UNL     1      29.530   0.374  54.102  1.00  0.00     0.030 A 
ENDBRANCH  11  13
ENDBRANCH   1  11
BRANCH   8  18
HETATM   18  N5  UNL     1      24.513   3.147  50.861  1.00  0.00    -0.308 N 
HETATM   19  C11 UNL     1      24.113   4.416  51.368  1.00  0.00     0.247 C 
HETATM   20  O1  UNL     1      23.588   4.494  52.504  1.00  0.00    -0.268 OA
HETATM   21  H9  UNL     1      24.955   3.022  49.922  1.00  0.00     0.170 HD
BRANCH  19  22
HETATM   22  C12 UNL     1      24.309   5.619  50.576  1.00  0.00     0.086 C 
HETATM   23  C13 UNL     1      24.258   6.820  51.099  1.00  0.00     0.090 C 
HETATM   24 CL1  UNL     1      24.486   8.325  50.205  1.00  0.00    -0.097 Cl
ENDBRANCH  19  22
ENDBRANCH   8  18
TORSDOF 4
ENDMDL
MODEL 3
REMARK VINA RESULT:      -7.3      2.964      5.890
REMARK  4 active torsions:
REMARK  status: ('A' for Active; 'I' for Inactive)
REMARK    1  A    between atoms: C5_5  and  N1_6 
REMARK    2  A    between atoms: N1_6  and  C6_7 
REMARK    3  A    between atoms: C10_14  and  N5_15 
REMARK       I    between atoms: N5_15  and  C11_16 
REMARK    4  A    between atoms: C11_16  and  C12_18 
ROOT
HETATM    1  C6  UNL     1      23.148   3.796  52.193  1.00  0.00     0.142 A 
HETATM    2  N2  UNL     1      21.902   4.287  52.097  1.00  0.00    -0.224 NA
HETATM    3  C7  UNL     1      20.813   3.510  52.278  1.00  0.00     0.236 A 
HETATM    4  N3  UNL     1      21.034   2.212  52.560  1.00  0.00    -0.240 NA
HETATM    5  C8  UNL     1      22.264   1.688  52.663  1.00  0.00     0.089 A 
HETATM    6  C9  UNL     1      22.450   0.358  52.952  1.00  0.00     0.151 A 
HETATM    7  N4  UNL     1      23.694  -0.141  53.049  1.00  0.00    -0.241 NA
HETATM    8  C10 UNL     1      24.764   0.661  52.863  1.00  0.00     0.131 A 
HETATM    9  C14 UNL     1      24.674   1.992  52.573  1.00  0.00     0.068 A 
HETATM   10  C15 UNL     1      23.394   2.476  52.479  1.00  0.00     0.044 A 
ENDROOT
BRANCH   1  11
HETATM   11  N1  UNL     1      24.195   4.731  51.979  1.00  0.00    -0.340 N 
HETATM   12  H6  UNL     1      24.767   5.282  52.651  1.00  0.00     0.167 HD
BRANCH  11  13
HETATM   13  C5  UNL     1      24.620   5.048  50.659  1.00  0.00     0.039 A 
HETATM   14  C2  UNL     1      25.507   4.597  49.588  1.00  0.00    -0.035 A 
HETATM   15  C1  UNL     1      26.432   3.437  49.515  1.00  0.00     0.050 C 
HETATM   16  C3  UNL     1      25.145   5.600  48.786  1.00  0.00     0.011 A 
HETATM   17  C4  UNL     1      24.260   6.045  49.858  1.00  0.00     0.030 A 
ENDBRANCH  11  13
ENDBRANCH   1  11
BRANCH   8  18
HETATM   18  N5  UNL     1      26.084   0.091  52.976  1.00  0.00    -0.308 N 
HETATM   19  C11 UNL     1      26.732   0.480  54.183  1.00  0.00     0.247 C 
HETATM   20  O1  UNL     1      26.139   1.234  54.991  1.00  0.00    -0.268 OA
HETATM   21  H9  UNL     1      26.529  -0.535  52.267  1.00  0.00     0.170 HD
BRANCH  19  22
HETATM   22  C12 UNL     1      28.073   0.008  54.483  1.00  0.00     0.086 C 
HETATM   23  C13 UNL     1      28.811  -0.620  53.599  1.00  0.00     0.090 C 
HETATM   24 CL1  UNL     1      30.445  -1.223  53.888  1.00  0.00    -0.097 Cl
ENDBRANCH  19  22
ENDBRANCH   8  18
TORSDOF 4
ENDMDL
MODEL 4
REMARK VINA RESULT:      -7.2      4.042      5.867
REMARK  4 active torsions:
REMARK  status: ('A' for Active; 'I' for Inactive)
REMARK    1  A    between atoms: C5_5  and  N1_6 
REMARK    2  A    between atoms: N1_6  and  C6_7 
REMARK    3  A    between atoms: C10_14  and  N5_15 
REMARK       I    between atoms: N5_15  and  C11_16 
REMARK    4  A    between atoms: C11_16  and  C12_18 
ROOT
HETATM    1  C6  UNL     1      26.103   1.696  51.432  1.00  0.00     0.142 A 
HETATM    2  N2  UNL     1      26.851   2.515  50.676  1.00  0.00    -0.224 NA
HETATM    3  C7  UNL     1      26.375   3.688  50.210  1.00  0.00     0.236 A 
HETATM    4  N3  UNL     1      25.106   4.001  50.538  1.00  0.00    -0.240 NA
HETATM    5  C8  UNL     1      24.331   3.206  51.289  1.00  0.00     0.089 A 
HETATM    6  C9  UNL     1      23.041   3.560  51.603  1.00  0.00     0.151 A 
HETATM    7  N4  UNL     1      22.285   2.743  52.359  1.00  0.00    -0.241 NA
HETATM    8  C10 UNL     1      22.791   1.576  52.811  1.00  0.00     0.131 A 
HETATM    9  C14 UNL     1      24.059   1.146  52.549  1.00  0.00     0.068 A 
HETATM   10  C15 UNL     1      24.809   1.996  51.776  1.00  0.00     0.044 A 
ENDROOT
BRANCH   1  11
HETATM   11  N1  UNL     1      26.738   0.496  51.851  1.00  0.00    -0.340 N 
HETATM   12  H6  UNL     1      26.666  -0.477  51.489  1.00  0.00     0.167 HD
BRANCH  11  13
HETATM   13  C5  UNL     1      27.648   0.505  52.943  1.00  0.00     0.039 A 
HETATM   14  C2  UNL     1      28.672  -0.302  53.604  1.00  0.00    -0.035 A 
HETATM   15  C1  UNL     1      29.198  -1.655  53.288  1.00  0.00     0.050 C 
HETATM   16  C3  UNL     1      28.898   0.634  54.527  1.00  0.00     0.011 A 
HETATM   17  C4  UNL     1      27.876   1.436  53.863  1.00  0.00     0.030 A 
ENDBRANCH  11  13
ENDBRANCH   1  11
BRANCH   8  18
HETATM   18  N5  UNL     1      21.951   0.726  53.619  1.00  0.00    -0.308 N 
HETATM   19  C11 UNL     1      20.998   0.017  52.834  1.00  0.00     0.247 C 
HETATM   20  O1  UNL     1      20.971   0.181  51.591  1.00  0.00    -0.268 OA
HETATM   21  H9  UNL     1      22.020   0.629  54.657  1.00  0.00     0.170 HD
BRANCH  19  22
HETATM   22  C12 UNL     1      20.058  -0.895  53.465  1.00  0.00     0.086 C 
HETATM   23  C13 UNL     1      18.840  -1.072  53.012  1.00  0.00     0.090 C 
HETATM   24 CL1  UNL     1      17.644  -2.159  53.723  1.00  0.00    -0.097 Cl
ENDBRANCH  19  22
ENDBRANCH   8  18
TORSDOF 4
ENDMDL
MODEL 5
REMARK VINA RESULT:      -7.2      3.484      6.500
REMARK  4 active torsions:
REMARK  status: ('A' for Active; 'I' for Inactive)
REMARK    1  A    between atoms: C5_5  and  N1_6 
REMARK    2  A    between atoms: N1_6  and  C6_7 
REMARK    3  A    between atoms: C10_14  and  N5_15 
REMARK       I    between atoms: N5_15  and  C11_16 
REMARK    4  A    between atoms: C11_16  and  C12_18 
ROOT
HETATM    1  C6  UNL     1      21.125   1.978  51.444  1.00  0.00     0.142 A 
HETATM    2  N2  UNL     1      20.294   2.966  51.075  1.00  0.00    -0.224 NA
HETATM    3  C7  UNL     1      20.592   4.265  51.290  1.00  0.00     0.236 A 
HETATM    4  N3  UNL     1      21.766   4.526  51.896  1.00  0.00    -0.240 NA
HETATM    5  C8  UNL     1      22.619   3.564  52.278  1.00  0.00     0.089 A 
HETATM    6  C9  UNL     1      23.808   3.870  52.893  1.00  0.00     0.151 A 
HETATM    7  N4  UNL     1      24.645   2.885  53.266  1.00  0.00    -0.241 NA
HETATM    8  C10 UNL     1      24.319   1.596  53.037  1.00  0.00     0.131 A 
HETATM    9  C14 UNL     1      23.161   1.200  52.432  1.00  0.00     0.068 A 
HETATM   10  C15 UNL     1      22.325   2.223  52.062  1.00  0.00     0.044 A 
ENDROOT
BRANCH   1  11
HETATM   11  N1  UNL     1      20.680   0.661  51.153  1.00  0.00    -0.340 N 
HETATM   12  H6  UNL     1      20.878   0.036  50.345  1.00  0.00     0.167 HD
BRANCH  11  13
HETATM   13  C5  UNL     1      19.810  -0.021  52.048  1.00  0.00     0.039 A 
HETATM   14  C2  UNL     1      19.792  -0.754  53.312  1.00  0.00    -0.035 A 
HETATM   15  C1  UNL     1      20.888  -1.091  54.257  1.00  0.00     0.050 C 
HETATM   16  C3  UNL     1      18.477  -0.963  53.240  1.00  0.00     0.011 A 
HETATM   17  C4  UNL     1      18.499  -0.229  51.979  1.00  0.00     0.030 A 
ENDBRANCH  11  13
ENDBRANCH   1  11
BRANCH   8  18
HETATM   18  N5  UNL     1      25.241   0.566  53.450  1.00  0.00    -0.308 N 
HETATM   19  C11 UNL     1      26.316   0.411  52.528  1.00  0.00     0.247 C 
HETATM   20  O1  UNL     1      26.365   1.134  51.504  1.00  0.00    -0.268 OA
HETATM   21  H9  UNL     1      25.148  -0.008  54.318  1.00  0.00     0.170 HD
BRANCH  19  22
HETATM   22  C12 UNL     1      27.352  -0.579  52.767  1.00  0.00     0.086 C 
HETATM   23  C13 UNL     1      28.494  -0.277  53.337  1.00  0.00     0.090 C 
HETATM   24 CL1  UNL     1      29.799  -1.422  53.660  1.00  0.00    -0.097 Cl
ENDBRANCH  19  22
ENDBRANCH   8  18
TORSDOF 4
ENDMDL
MODEL 6
REMARK VINA RESULT:      -7.0      1.425      1.982
REMARK  4 active torsions:
REMARK  status: ('A' for Active; 'I' for Inactive)
REMARK    1  A    between atoms: C5_5  and  N1_6 
REMARK    2  A    between atoms: N1_6  and  C6_7 
REMARK    3  A    between atoms: C10_14  and  N5_15 
REMARK       I    between atoms: N5_15  and  C11_16 
REMARK    4  A    between atoms: C11_16  and  C12_18 
ROOT
HETATM    1  C6  UNL     1      24.484   1.286  52.795  1.00  0.00     0.142 A 
HETATM    2  N2  UNL     1      23.449   0.663  53.380  1.00  0.00    -0.224 NA
HETATM    3  C7  UNL     1      22.226   0.624  52.812  1.00  0.00     0.236 A 
HETATM    4  N3  UNL     1      22.088   1.244  51.625  1.00  0.00    -0.240 NA
HETATM    5  C8  UNL     1      23.099   1.877  51.012  1.00  0.00     0.089 A 
HETATM    6  C9  UNL     1      22.920   2.499  49.801  1.00  0.00     0.151 A 
HETATM    7  N4  UNL     1      23.951   3.127  49.208  1.00  0.00    -0.241 NA
HETATM    8  C10 UNL     1      25.164   3.148  49.801  1.00  0.00     0.131 A 
HETATM    9  C14 UNL     1      25.432   2.558  51.002  1.00  0.00     0.068 A 
HETATM   10  C15 UNL     1      24.364   1.925  51.586  1.00  0.00     0.044 A 
ENDROOT
BRANCH   1  11
HETATM   11  N1  UNL     1      25.711   1.244  53.509  1.00  0.00    -0.340 N 
HETATM   12  H6  UNL     1      26.115   1.897  54.211  1.00  0.00     0.167 HD
BRANCH  11  13
HETATM   13  C5  UNL     1      26.625   0.173  53.310  1.00  0.00     0.039 A 
HETATM   14  C2  UNL     1      27.943  -0.313  53.712  1.00  0.00    -0.035 A 
HETATM   15  C1  UNL     1      28.952   0.262  54.638  1.00  0.00     0.050 C 
HETATM   16  C3  UNL     1      27.840  -1.401  52.947  1.00  0.00     0.011 A 
HETATM   17  C4  UNL     1      26.523  -0.911  52.550  1.00  0.00     0.030 A 
ENDBRANCH  11  13
ENDBRANCH   1  11
BRANCH   8  18
HETATM   18  N5  UNL     1      26.247   3.831  49.137  1.00  0.00    -0.308 N 
HETATM   19  C11 UNL     1      26.185   5.241  49.327  1.00  0.00     0.247 C 
HETATM   20  O1  UNL     1      25.256   5.736  50.010  1.00  0.00    -0.268 OA
HETATM   21  H9  UNL     1      26.997   3.363  48.578  1.00  0.00     0.170 HD
BRANCH  19  22
HETATM   22  C12 UNL     1      27.190   6.107  48.735  1.00  0.00     0.086 C 
HETATM   23  C13 UNL     1      28.351   5.658  48.322  1.00  0.00     0.090 C 
HETATM   24 CL1  UNL     1      29.620   6.646  47.595  1.00  0.00    -0.097 Cl
ENDBRANCH  19  22
ENDBRANCH   8  18
TORSDOF 4
ENDMDL
MODEL 7
REMARK VINA RESULT:      -6.9      2.034      2.832
REMARK  4 active torsions:
REMARK  status: ('A' for Active; 'I' for Inactive)
REMARK    1  A    between atoms: C5_5  and  N1_6 
REMARK    2  A    between atoms: N1_6  and  C6_7 
REMARK    3  A    between atoms: C10_14  and  N5_15 
REMARK       I    between atoms: N5_15  and  C11_16 
REMARK    4  A    between atoms: C11_16  and  C12_18 
ROOT
HETATM    1  C6  UNL     1      22.791   0.718  52.635  1.00  0.00     0.142 A 
HETATM    2  N2  UNL     1      21.706   0.056  53.065  1.00  0.00    -0.224 NA
HETATM    3  C7  UNL     1      20.502   0.657  53.178  1.00  0.00     0.236 A 
HETATM    4  N3  UNL     1      20.441   1.959  52.839  1.00  0.00    -0.240 NA
HETATM    5  C8  UNL     1      21.505   2.651  52.407  1.00  0.00     0.089 A 
HETATM    6  C9  UNL     1      21.402   3.979  52.071  1.00  0.00     0.151 A 
HETATM    7  N4  UNL     1      22.486   4.649  51.641  1.00  0.00    -0.241 NA
HETATM    8  C10 UNL     1      23.676   4.019  51.538  1.00  0.00     0.131 A 
HETATM    9  C14 UNL     1      23.869   2.705  51.849  1.00  0.00     0.068 A 
HETATM   10  C15 UNL     1      22.749   2.045  52.286  1.00  0.00     0.044 A 
ENDROOT
BRANCH   1  11
HETATM   11  N1  UNL     1      23.988  -0.044  52.566  1.00  0.00    -0.340 N 
HETATM   12  H6  UNL     1      24.360  -0.666  51.820  1.00  0.00     0.167 HD
BRANCH  11  13
HETATM   13  C5  UNL     1      24.913  -0.033  53.646  1.00  0.00     0.039 A 
HETATM   14  C2  UNL     1      26.098   0.661  54.149  1.00  0.00    -0.035 A 
HETATM   15  C1  UNL     1      26.870   1.799  53.588  1.00  0.00     0.050 C 
HETATM   16  C3  UNL     1      26.165  -0.115  55.232  1.00  0.00     0.011 A 
HETATM   17  C4  UNL     1      24.981  -0.803  54.726  1.00  0.00     0.030 A 
ENDBRANCH  11  13
ENDBRANCH   1  11
BRANCH   8  18
HETATM   18  N5  UNL     1      24.817   4.770  51.072  1.00  0.00    -0.308 N 
HETATM   19  C11 UNL     1      24.954   4.707  49.655  1.00  0.00     0.247 C 
HETATM   20  O1  UNL     1      24.127   4.049  48.980  1.00  0.00    -0.268 OA
HETATM   21  H9  UNL     1      25.475   5.302  51.685  1.00  0.00     0.170 HD
BRANCH  19  22
HETATM   22  C12 UNL     1      26.045   5.400  48.991  1.00  0.00     0.086 C 
HETATM   23  C13 UNL     1      27.247   4.886  48.892  1.00  0.00     0.090 C 
HETATM   24 CL1  UNL     1      28.620   5.665  48.102  1.00  0.00    -0.097 Cl
ENDBRANCH  19  22
ENDBRANCH   8  18
TORSDOF 4
ENDMDL
MODEL 8
REMARK VINA RESULT:      -6.8      2.956      5.618
REMARK  4 active torsions:
REMARK  status: ('A' for Active; 'I' for Inactive)
REMARK    1  A    between atoms: C5_5  and  N1_6 
REMARK    2  A    between atoms: N1_6  and  C6_7 
REMARK    3  A    between atoms: C10_14  and  N5_15 
REMARK       I    between atoms: N5_15  and  C11_16 
REMARK    4  A    between atoms: C11_16  and  C12_18 
ROOT
HETATM    1  C6  UNL     1      21.488   0.457  53.591  1.00  0.00     0.142 A 
HETATM    2  N2  UNL     1      21.275  -0.436  54.571  1.00  0.00    -0.224 NA
HETATM    3  C7  UNL     1      22.273  -1.193  55.073  1.00  0.00     0.236 A 
HETATM    4  N3  UNL     1      23.497  -1.014  54.543  1.00  0.00    -0.240 NA
HETATM    5  C8  UNL     1      23.745  -0.132  53.564  1.00  0.00     0.089 A 
HETATM    6  C9  UNL     1      25.008   0.022  53.047  1.00  0.00     0.151 A 
HETATM    7  N4  UNL     1      25.229   0.914  52.065  1.00  0.00    -0.241 NA
HETATM    8  C10 UNL     1      24.211   1.658  51.583  1.00  0.00     0.131 A 
HETATM    9  C14 UNL     1      22.926   1.570  52.035  1.00  0.00     0.068 A 
HETATM   10  C15 UNL     1      22.728   0.654  53.037  1.00  0.00     0.044 A 
ENDROOT
BRANCH   1  11
HETATM   11  N1  UNL     1      20.345   1.182  53.162  1.00  0.00    -0.340 N 
HETATM   12  H6  UNL     1      20.045   2.161  53.354  1.00  0.00     0.167 HD
BRANCH  11  13
HETATM   13  C5  UNL     1      19.372   0.569  52.325  1.00  0.00     0.039 A 
HETATM   14  C2  UNL     1      18.380  -0.503  52.297  1.00  0.00    -0.035 A 
HETATM   15  C1  UNL     1      17.987  -1.493  53.332  1.00  0.00     0.050 C 
HETATM   16  C3  UNL     1      18.022  -0.219  51.044  1.00  0.00     0.011 A 
HETATM   17  C4  UNL     1      19.013   0.852  51.078  1.00  0.00     0.030 A 
ENDBRANCH  11  13
ENDBRANCH   1  11
BRANCH   8  18
HETATM   18  N5  UNL     1      24.484   2.604  50.529  1.00  0.00    -0.308 N 
HETATM   19  C11 UNL     1      24.505   3.945  51.009  1.00  0.00     0.247 C 
HETATM   20  O1  UNL     1      24.297   4.173  52.224  1.00  0.00    -0.268 OA
HETATM   21  H9  UNL     1      24.650   2.354  49.528  1.00  0.00     0.170 HD
BRANCH  19  22
HETATM   22  C12 UNL     1      24.764   5.048  50.098  1.00  0.00     0.086 C 
HETATM   23  C13 UNL     1      25.901   5.178  49.458  1.00  0.00     0.090 C 
HETATM   24 CL1  UNL     1      26.290   6.486  48.339  1.00  0.00    -0.097 Cl
ENDBRANCH  19  22
ENDBRANCH   8  18
TORSDOF 4
ENDMDL
MODEL 9
REMARK VINA RESULT:      -6.8      4.077      6.777
REMARK  4 active torsions:
REMARK  status: ('A' for Active; 'I' for Inactive)
REMARK    1  A    between atoms: C5_5  and  N1_6 
REMARK    2  A    between atoms: N1_6  and  C6_7 
REMARK    3  A    between atoms: C10_14  and  N5_15 
REMARK       I    between atoms: N5_15  and  C11_16 
REMARK    4  A    between atoms: C11_16  and  C12_18 
ROOT
HETATM    1  C6  UNL     1      25.363   2.518  52.452  1.00  0.00     0.142 A 
HETATM    2  N2  UNL     1      26.700   2.439  52.358  1.00  0.00    -0.224 NA
HETATM    3  C7  UNL     1      27.367   1.296  52.626  1.00  0.00     0.236 A 
HETATM    4  N3  UNL     1      26.626   0.233  52.993  1.00  0.00    -0.240 NA
HETATM    5  C8  UNL     1      25.290   0.277  53.097  1.00  0.00     0.089 A 
HETATM    6  C9  UNL     1      24.568  -0.829  53.475  1.00  0.00     0.151 A 
HETATM    7  N4  UNL     1      23.229  -0.757  53.571  1.00  0.00    -0.241 NA
HETATM    8  C10 UNL     1      22.590   0.400  53.297  1.00  0.00     0.131 A 
HETATM    9  C14 UNL     1      23.225   1.546  52.915  1.00  0.00     0.068 A 
HETATM   10  C15 UNL     1      24.590   1.446  52.825  1.00  0.00     0.044 A 
ENDROOT
BRANCH   1  11
HETATM   11  N1  UNL     1      24.799   3.783  52.140  1.00  0.00    -0.340 N 
HETATM   12  H6  UNL     1      24.468   4.554  52.756  1.00  0.00     0.167 HD
BRANCH  11  13
HETATM   13  C5  UNL     1      24.605   4.173  50.786  1.00  0.00     0.039 A 
HETATM   14  C2  UNL     1      23.900   3.796  49.562  1.00  0.00    -0.035 A 
HETATM   15  C1  UNL     1      22.979   2.666  49.279  1.00  0.00     0.050 C 
HETATM   16  C3  UNL     1      24.408   4.825  48.883  1.00  0.00     0.011 A 
HETATM   17  C4  UNL     1      25.109   5.198  50.107  1.00  0.00     0.030 A 
ENDBRANCH  11  13
ENDBRANCH   1  11
BRANCH   8  18
HETATM   18  N5  UNL     1      21.153   0.440  53.410  1.00  0.00    -0.308 N 
HETATM   19  C11 UNL     1      20.513   0.215  52.158  1.00  0.00     0.247 C 
HETATM   20  O1  UNL     1      21.207   0.016  51.132  1.00  0.00    -0.268 OA
HETATM   21  H9  UNL     1      20.626   0.612  54.297  1.00  0.00     0.170 HD
BRANCH  19  22
HETATM   22  C12 UNL     1      19.063   0.217  52.063  1.00  0.00     0.086 C 
HETATM   23  C13 UNL     1      18.318  -0.678  52.666  1.00  0.00     0.090 C 
HETATM   24 CL1  UNL     1      16.555  -0.742  52.598  1.00  0.00    -0.097 Cl
ENDBRANCH  19  22
ENDBRANCH   8  18
TORSDOF 4
ENDMDL
