MODEL 1
REMARK VINA RESULT:      -8.6      0.000      0.000
REMARK  6 active torsions:
REMARK  status: ('A' for Active; 'I' for Inactive)
REMARK       I    between atoms: C1_2  and  N1_3 
REMARK       I    between atoms: C1_2  and  N2_9 
REMARK    1  A    between atoms: N1_3  and  C2_4 
REMARK    2  A    between atoms: N2_9  and  C7_10 
REMARK    3  A    between atoms: N2_9  and  C14_18 
REMARK    4  A    between atoms: C7_10  and  C8_11 
REMARK    5  A    between atoms: C14_18  and  C15_19 
REMARK    6  A    between atoms: C20_26  and  O2_27 
ROOT
HETATM    1  O1  UNL     1      26.764   0.931  51.136  1.00  0.00    -0.247 OA
HETATM    2  C1  UNL     1      25.938   1.186  52.078  1.00  0.00     0.323 C 
HETATM    3  N1  UNL     1      26.439   0.677  53.327  1.00  0.00    -0.309 N 
HETATM    4  N2  UNL     1      24.694   1.866  51.964  1.00  0.00    -0.325 N 
HETATM    5  H1  UNL     1      25.879   0.807  54.196  1.00  0.00     0.170 HD
ENDROOT
BRANCH   4   6
HETATM    6  C7  UNL     1      23.757   2.152  53.017  1.00  0.00     0.166 C 
BRANCH   6   7
HETATM    7  C8  UNL     1      22.763   1.083  53.256  1.00  0.00    -0.040 A 
HETATM    8  C9  UNL     1      21.427   1.372  52.946  1.00  0.00     0.012 A 
HETATM    9  C10 UNL     1      20.430   0.439  53.134  1.00  0.00     0.043 A 
HETATM   10  C11 UNL     1      20.702  -0.829  53.641  1.00  0.00     0.116 A 
HETATM   11  F1  UNL     1      19.748  -1.756  53.834  1.00  0.00    -0.206 F 
HETATM   12  C12 UNL     1      22.006  -1.105  53.942  1.00  0.00     0.043 A 
HETATM   13  C13 UNL     1      22.993  -0.163  53.748  1.00  0.00     0.012 A 
ENDBRANCH   6   7
ENDBRANCH   4   6
BRANCH   4  14
HETATM   14  C14 UNL     1      24.402   2.291  50.609  1.00  0.00     0.169 C 
BRANCH  14  15
HETATM   15  C15 UNL     1      24.728   3.716  50.366  1.00  0.00    -0.004 A 
HETATM   16  C16 UNL     1      24.023   4.844  50.753  1.00  0.00     0.035 A 
HETATM   17  C17 UNL     1      24.482   6.094  50.436  1.00  0.00     0.036 A 
HETATM   18 CL1  UNL     1      23.510   7.460  50.977  1.00  0.00    -0.084 Cl
HETATM   19  C18 UNL     1      25.646   6.294  49.727  1.00  0.00     0.050 A 
HETATM   20  C19 UNL     1      26.352   5.179  49.338  1.00  0.00     0.069 A 
HETATM   21 CL2  UNL     1      27.828   5.473  48.438  1.00  0.00    -0.081 Cl
HETATM   22  C20 UNL     1      25.911   3.888  49.646  1.00  0.00     0.095 A 
BRANCH  22  23
HETATM   23  O2  UNL     1      26.737   2.873  49.181  1.00  0.00    -0.358 OA
HETATM   24  H15 UNL     1      26.654   2.518  48.222  1.00  0.00     0.217 HD
ENDBRANCH  22  23
ENDBRANCH  14  15
ENDBRANCH   4  14
BRANCH   3  25
HETATM   25  C2  UNL     1      27.692   0.001  53.392  1.00  0.00     0.037 A 
HETATM   26  C3  UNL     1      27.905  -1.297  53.167  1.00  0.00     0.030 A 
HETATM   27  C4  UNL     1      29.335  -1.595  53.335  1.00  0.00     0.014 A 
HETATM   28  C5  UNL     1      29.875  -0.428  53.599  1.00  0.00    -0.024 A 
HETATM   29  C6  UNL     1      29.009   0.562  53.713  1.00  0.00     0.042 A 
ENDBRANCH   3  25
TORSDOF 6
ENDMDL
MODEL 2
REMARK VINA RESULT:      -8.5      0.951      2.090
REMARK  6 active torsions:
REMARK  status: ('A' for Active; 'I' for Inactive)
REMARK       I    between atoms: C1_2  and  N1_3 
REMARK       I    between atoms: C1_2  and  N2_9 
REMARK    1  A    between atoms: N1_3  and  C2_4 
REMARK    2  A    between atoms: N2_9  and  C7_10 
REMARK    3  A    between atoms: N2_9  and  C14_18 
REMARK    4  A    between atoms: C7_10  and  C8_11 
REMARK    5  A    between atoms: C14_18  and  C15_19 
REMARK    6  A    between atoms: C20_26  and  O2_27 
ROOT
HETATM    1  O1  UNL     1      26.673   0.762  51.154  1.00  0.00    -0.247 OA
HETATM    2  C1  UNL     1      25.877   1.010  52.124  1.00  0.00     0.323 C 
HETATM    3  N1  UNL     1      26.449   0.553  53.363  1.00  0.00    -0.309 N 
HETATM    4  N2  UNL     1      24.604   1.639  52.046  1.00  0.00    -0.325 N 
HETATM    5  H1  UNL     1      25.921   0.684  54.251  1.00  0.00     0.170 HD
ENDROOT
BRANCH   4   6
HETATM    6  C7  UNL     1      23.701   1.917  53.130  1.00  0.00     0.166 C 
BRANCH   6   7
HETATM    7  C8  UNL     1      22.706   0.851  53.384  1.00  0.00    -0.040 A 
HETATM    8  C9  UNL     1      21.369   1.139  53.077  1.00  0.00     0.012 A 
HETATM    9  C10 UNL     1      20.373   0.208  53.279  1.00  0.00     0.043 A 
HETATM   10  C11 UNL     1      20.645  -1.055  53.797  1.00  0.00     0.116 A 
HETATM   11  F1  UNL     1      19.692  -1.978  54.003  1.00  0.00    -0.206 F 
HETATM   12  C12 UNL     1      21.950  -1.330  54.094  1.00  0.00     0.043 A 
HETATM   13  C13 UNL     1      22.937  -0.390  53.887  1.00  0.00     0.012 A 
ENDBRANCH   6   7
ENDBRANCH   4   6
BRANCH   4  14
HETATM   14  C14 UNL     1      24.239   2.017  50.694  1.00  0.00     0.169 C 
BRANCH  14  15
HETATM   15  C15 UNL     1      24.833   3.308  50.274  1.00  0.00    -0.004 A 
HETATM   16  C16 UNL     1      26.038   3.539  49.630  1.00  0.00     0.035 A 
HETATM   17  C17 UNL     1      26.426   4.814  49.317  1.00  0.00     0.036 A 
HETATM   18 CL1  UNL     1      27.975   4.996  48.498  1.00  0.00    -0.084 Cl
HETATM   19  C18 UNL     1      25.656   5.915  49.622  1.00  0.00     0.050 A 
HETATM   20  C19 UNL     1      24.459   5.694  50.262  1.00  0.00     0.069 A 
HETATM   21 CL2  UNL     1      23.506   7.119  50.632  1.00  0.00    -0.081 Cl
HETATM   22  C20 UNL     1      24.032   4.405  50.595  1.00  0.00     0.095 A 
BRANCH  22  23
HETATM   23  O2  UNL     1      22.802   4.355  51.238  1.00  0.00    -0.358 OA
HETATM   24  H15 UNL     1      22.659   4.808  52.147  1.00  0.00     0.217 HD
ENDBRANCH  22  23
ENDBRANCH  14  15
ENDBRANCH   4  14
BRANCH   3  25
HETATM   25  C2  UNL     1      27.729  -0.072  53.390  1.00  0.00     0.037 A 
HETATM   26  C3  UNL     1      28.893   0.515  53.675  1.00  0.00     0.030 A 
HETATM   27  C4  UNL     1      29.976  -0.476  53.595  1.00  0.00     0.014 A 
HETATM   28  C5  UNL     1      29.357  -1.601  53.317  1.00  0.00    -0.024 A 
HETATM   29  C6  UNL     1      28.057  -1.476  53.120  1.00  0.00     0.042 A 
ENDBRANCH   3  25
TORSDOF 6
ENDMDL
MODEL 3
REMARK VINA RESULT:      -8.4      3.632      7.115
REMARK  6 active torsions:
REMARK  status: ('A' for Active; 'I' for Inactive)
REMARK       I    between atoms: C1_2  and  N1_3 
REMARK       I    between atoms: C1_2  and  N2_9 
REMARK    1  A    between atoms: N1_3  and  C2_4 
REMARK    2  A    between atoms: N2_9  and  C7_10 
REMARK    3  A    between atoms: N2_9  and  C14_18 
REMARK    4  A    between atoms: C7_10  and  C8_11 
REMARK    5  A    between atoms: C14_18  and  C15_19 
REMARK    6  A    between atoms: C20_26  and  O2_27 
ROOT
HETATM    1  O1  UNL     1      23.792   4.148  50.134  1.00  0.00    -0.247 OA
HETATM    2  C1  UNL     1      24.191   4.081  51.347  1.00  0.00     0.323 C 
HETATM    3  N1  UNL     1      24.391   5.404  51.877  1.00  0.00    -0.309 N 
HETATM    4  N2  UNL     1      24.421   2.901  52.108  1.00  0.00    -0.325 N 
HETATM    5  H1  UNL     1      24.716   5.520  52.860  1.00  0.00     0.170 HD
ENDROOT
BRANCH   4   6
HETATM    6  C7  UNL     1      24.874   2.816  53.470  1.00  0.00     0.166 C 
BRANCH   6   7
HETATM    7  C8  UNL     1      26.121   2.041  53.651  1.00  0.00    -0.040 A 
HETATM    8  C9  UNL     1      26.063   0.926  54.498  1.00  0.00     0.012 A 
HETATM    9  C10 UNL     1      27.173   0.143  54.727  1.00  0.00     0.043 A 
HETATM   10  C11 UNL     1      28.401   0.421  54.133  1.00  0.00     0.116 A 
HETATM   11  F1  UNL     1      29.497  -0.327  54.341  1.00  0.00    -0.206 F 
HETATM   12  C12 UNL     1      28.451   1.510  53.308  1.00  0.00     0.043 A 
HETATM   13  C13 UNL     1      27.333   2.285  53.087  1.00  0.00     0.012 A 
ENDBRANCH   6   7
ENDBRANCH   4   6
BRANCH   4  14
HETATM   14  C14 UNL     1      24.147   1.686  51.366  1.00  0.00     0.169 C 
BRANCH  14  15
HETATM   15  C15 UNL     1      22.898   1.014  51.796  1.00  0.00    -0.004 A 
HETATM   16  C16 UNL     1      22.680   0.222  52.912  1.00  0.00     0.035 A 
HETATM   17  C17 UNL     1      21.445  -0.320  53.149  1.00  0.00     0.036 A 
HETATM   18 CL1  UNL     1      21.276  -1.309  54.596  1.00  0.00    -0.084 Cl
HETATM   19  C18 UNL     1      20.375  -0.113  52.307  1.00  0.00     0.050 A 
HETATM   20  C19 UNL     1      20.583   0.672  51.197  1.00  0.00     0.069 A 
HETATM   21 CL2  UNL     1      19.198   0.912  50.149  1.00  0.00    -0.081 Cl
HETATM   22  C20 UNL     1      21.831   1.241  50.925  1.00  0.00     0.095 A 
BRANCH  22  23
HETATM   23  O2  UNL     1      21.874   2.004  49.766  1.00  0.00    -0.358 OA
HETATM   24  H15 UNL     1      21.277   2.830  49.651  1.00  0.00     0.217 HD
ENDBRANCH  22  23
ENDBRANCH  14  15
ENDBRANCH   4  14
BRANCH   3  25
HETATM   25  C2  UNL     1      24.148   6.557  51.075  1.00  0.00     0.037 A 
HETATM   26  C3  UNL     1      25.065   7.289  50.441  1.00  0.00     0.030 A 
HETATM   27  C4  UNL     1      24.404   8.390  49.725  1.00  0.00     0.014 A 
HETATM   28  C5  UNL     1      23.126   8.195  49.951  1.00  0.00    -0.024 A 
HETATM   29  C6  UNL     1      22.862   7.192  50.769  1.00  0.00     0.042 A 
ENDBRANCH   3  25
TORSDOF 6
ENDMDL
MODEL 4
REMARK VINA RESULT:      -8.3      2.312      5.153
REMARK  6 active torsions:
REMARK  status: ('A' for Active; 'I' for Inactive)
REMARK       I    between atoms: C1_2  and  N1_3 
REMARK       I    between atoms: C1_2  and  N2_9 
REMARK    1  A    between atoms: N1_3  and  C2_4 
REMARK    2  A    between atoms: N2_9  and  C7_10 
REMARK    3  A    between atoms: N2_9  and  C14_18 
REMARK    4  A    between atoms: C7_10  and  C8_11 
REMARK    5  A    between atoms: C14_18  and  C15_19 
REMARK    6  A    between atoms: C20_26  and  O2_27 
ROOT
HETATM    1  O1  UNL     1      23.175   1.213  51.185  1.00  0.00    -0.247 OA
HETATM    2  C1  UNL     1      24.079   1.499  52.043  1.00  0.00     0.323 C 
HETATM    3  N1  UNL     1      23.692   1.031  53.347  1.00  0.00    -0.309 N 
HETATM    4  N2  UNL     1      25.304   2.180  51.798  1.00  0.00    -0.325 N 
HETATM    5  H1  UNL     1      24.326   1.187  54.158  1.00  0.00     0.170 HD
ENDROOT
BRANCH   4   6
HETATM    6  C7  UNL     1      26.324   2.510  52.757  1.00  0.00     0.166 C 
BRANCH   6   7
HETATM    7  C8  UNL     1      27.285   1.417  53.025  1.00  0.00    -0.040 A 
HETATM    8  C9  UNL     1      28.516   1.773  53.593  1.00  0.00     0.012 A 
HETATM    9  C10 UNL     1      29.473   0.824  53.879  1.00  0.00     0.043 A 
HETATM   10  C11 UNL     1      29.266  -0.527  53.617  1.00  0.00     0.116 A 
HETATM   11  F1  UNL     1      30.184  -1.470  53.886  1.00  0.00    -0.206 F 
HETATM   12  C12 UNL     1      28.064  -0.868  53.063  1.00  0.00     0.043 A 
HETATM   13  C13 UNL     1      27.115   0.090  52.782  1.00  0.00     0.012 A 
ENDBRANCH   6   7
ENDBRANCH   4   6
BRANCH   4  14
HETATM   14  C14 UNL     1      25.480   2.551  50.408  1.00  0.00     0.169 C 
BRANCH  14  15
HETATM   15  C15 UNL     1      25.384   4.013  50.182  1.00  0.00    -0.004 A 
HETATM   16  C16 UNL     1      24.412   4.896  50.625  1.00  0.00     0.035 A 
HETATM   17  C17 UNL     1      24.489   6.227  50.315  1.00  0.00     0.036 A 
HETATM   18 CL1  UNL     1      23.204   7.262  50.929  1.00  0.00    -0.084 Cl
HETATM   19  C18 UNL     1      25.516   6.750  49.559  1.00  0.00     0.050 A 
HETATM   20  C19 UNL     1      26.484   5.879  49.115  1.00  0.00     0.069 A 
HETATM   21 CL2  UNL     1      27.774   6.581  48.157  1.00  0.00    -0.081 Cl
HETATM   22  C20 UNL     1      26.436   4.515  49.415  1.00  0.00     0.095 A 
BRANCH  22  23
HETATM   23  O2  UNL     1      27.488   3.774  48.891  1.00  0.00    -0.358 OA
HETATM   24  H15 UNL     1      27.469   2.748  48.894  1.00  0.00     0.217 HD
ENDBRANCH  22  23
ENDBRANCH  14  15
ENDBRANCH   4  14
BRANCH   3  25
HETATM   25  C2  UNL     1      22.453   0.354  53.542  1.00  0.00     0.037 A 
HETATM   26  C3  UNL     1      22.291  -0.945  53.798  1.00  0.00     0.030 A 
HETATM   27  C4  UNL     1      20.857  -1.244  53.933  1.00  0.00     0.014 A 
HETATM   28  C5  UNL     1      20.275  -0.076  53.795  1.00  0.00    -0.024 A 
HETATM   29  C6  UNL     1      21.098   0.916  53.508  1.00  0.00     0.042 A 
ENDBRANCH   3  25
TORSDOF 6
ENDMDL
MODEL 5
REMARK VINA RESULT:      -8.2      3.748      6.323
REMARK  6 active torsions:
REMARK  status: ('A' for Active; 'I' for Inactive)
REMARK       I    between atoms: C1_2  and  N1_3 
REMARK       I    between atoms: C1_2  and  N2_9 
REMARK    1  A    between atoms: N1_3  and  C2_4 
REMARK    2  A    between atoms: N2_9  and  C7_10 
REMARK    3  A    between atoms: N2_9  and  C14_18 
REMARK    4  A    between atoms: C7_10  and  C8_11 
REMARK    5  A    between atoms: C14_18  and  C15_19 
REMARK    6  A    between atoms: C20_26  and  O2_27 
ROOT
HETATM    1  O1  UNL     1      25.696   1.640  53.809  1.00  0.00    -0.247 OA
HETATM    2  C1  UNL     1      25.608   1.729  52.536  1.00  0.00     0.323 C 
HETATM    3  N1  UNL     1      26.752   1.118  51.916  1.00  0.00    -0.309 N 
HETATM    4  N2  UNL     1      24.557   2.335  51.792  1.00  0.00    -0.325 N 
HETATM    5  H1  UNL     1      26.830   1.107  50.877  1.00  0.00     0.170 HD
ENDROOT
BRANCH   4   6
HETATM    6  C7  UNL     1      24.452   2.443  50.362  1.00  0.00     0.166 C 
BRANCH   6   7
HETATM    7  C8  UNL     1      25.144   3.618  49.787  1.00  0.00    -0.040 A 
HETATM    8  C9  UNL     1      26.506   3.474  49.488  1.00  0.00     0.012 A 
HETATM    9  C10 UNL     1      27.234   4.513  48.949  1.00  0.00     0.043 A 
HETATM   10  C11 UNL     1      26.655   5.750  48.680  1.00  0.00     0.116 A 
HETATM   11  F1  UNL     1      27.343   6.777  48.156  1.00  0.00    -0.206 F 
HETATM   12  C12 UNL     1      25.327   5.885  48.974  1.00  0.00     0.043 A 
HETATM   13  C13 UNL     1      24.611   4.838  49.513  1.00  0.00     0.012 A 
ENDBRANCH   6   7
ENDBRANCH   4   6
BRANCH   4  14
HETATM   14  C14 UNL     1      23.508   2.880  52.632  1.00  0.00     0.169 C 
BRANCH  14  15
HETATM   15  C15 UNL     1      22.345   1.971  52.769  1.00  0.00    -0.004 A 
HETATM   16  C16 UNL     1      22.290   0.715  53.351  1.00  0.00     0.035 A 
HETATM   17  C17 UNL     1      21.114   0.016  53.386  1.00  0.00     0.036 A 
HETATM   18 CL1  UNL     1      21.155  -1.571  54.150  1.00  0.00    -0.084 Cl
HETATM   19  C18 UNL     1      19.945   0.512  52.853  1.00  0.00     0.050 A 
HETATM   20  C19 UNL     1      19.991   1.758  52.273  1.00  0.00     0.069 A 
HETATM   21 CL2  UNL     1      18.484   2.357  51.606  1.00  0.00    -0.081 Cl
HETATM   22  C20 UNL     1      21.175   2.500  52.221  1.00  0.00     0.095 A 
BRANCH  22  23
HETATM   23  O2  UNL     1      21.052   3.737  51.601  1.00  0.00    -0.358 OA
HETATM   24  H15 UNL     1      20.243   3.956  51.010  1.00  0.00     0.217 HD
ENDBRANCH  22  23
ENDBRANCH  14  15
ENDBRANCH   4  14
BRANCH   3  25
HETATM   25  C2  UNL     1      27.781   0.524  52.704  1.00  0.00     0.037 A 
HETATM   26  C3  UNL     1      27.906  -0.771  52.998  1.00  0.00     0.030 A 
HETATM   27  C4  UNL     1      29.100  -0.972  53.833  1.00  0.00     0.014 A 
HETATM   28  C5  UNL     1      29.626   0.228  53.929  1.00  0.00    -0.024 A 
HETATM   29  C6  UNL     1      28.915   1.184  53.360  1.00  0.00     0.042 A 
ENDBRANCH   3  25
TORSDOF 6
ENDMDL
MODEL 6
REMARK VINA RESULT:      -8.1      1.731      2.244
REMARK  6 active torsions:
REMARK  status: ('A' for Active; 'I' for Inactive)
REMARK       I    between atoms: C1_2  and  N1_3 
REMARK       I    between atoms: C1_2  and  N2_9 
REMARK    1  A    between atoms: N1_3  and  C2_4 
REMARK    2  A    between atoms: N2_9  and  C7_10 
REMARK    3  A    between atoms: N2_9  and  C14_18 
REMARK    4  A    between atoms: C7_10  and  C8_11 
REMARK    5  A    between atoms: C14_18  and  C15_19 
REMARK    6  A    between atoms: C20_26  and  O2_27 
ROOT
HETATM    1  O1  UNL     1      27.089   2.220  51.097  1.00  0.00    -0.247 OA
HETATM    2  C1  UNL     1      26.011   2.621  51.654  1.00  0.00     0.323 C 
HETATM    3  N1  UNL     1      26.080   2.413  53.076  1.00  0.00    -0.309 N 
HETATM    4  N2  UNL     1      24.879   3.195  51.011  1.00  0.00    -0.325 N 
HETATM    5  H1  UNL     1      25.274   2.690  53.675  1.00  0.00     0.170 HD
ENDROOT
BRANCH   4   6
HETATM    6  C7  UNL     1      23.660   3.644  51.629  1.00  0.00     0.166 C 
BRANCH   6   7
HETATM    7  C8  UNL     1      22.552   2.665  51.574  1.00  0.00    -0.040 A 
HETATM    8  C9  UNL     1      22.490   1.712  52.599  1.00  0.00     0.012 A 
HETATM    9  C10 UNL     1      21.493   0.761  52.633  1.00  0.00     0.043 A 
HETATM   10  C11 UNL     1      20.506   0.700  51.653  1.00  0.00     0.116 A 
HETATM   11  F1  UNL     1      19.525  -0.217  51.663  1.00  0.00    -0.206 F 
HETATM   12  C12 UNL     1      20.572   1.632  50.656  1.00  0.00     0.043 A 
HETATM   13  C13 UNL     1      21.574   2.578  50.634  1.00  0.00     0.012 A 
ENDBRANCH   6   7
ENDBRANCH   4   6
BRANCH   4  14
HETATM   14  C14 UNL     1      25.040   3.311  49.575  1.00  0.00     0.169 C 
BRANCH  14  15
HETATM   15  C15 UNL     1      25.154   4.716  49.117  1.00  0.00    -0.004 A 
HETATM   16  C16 UNL     1      24.142   5.613  48.813  1.00  0.00     0.035 A 
HETATM   17  C17 UNL     1      24.440   6.884  48.401  1.00  0.00     0.036 A 
HETATM   18 CL1  UNL     1      23.079   7.943  48.042  1.00  0.00    -0.084 Cl
HETATM   19  C18 UNL     1      25.736   7.330  48.267  1.00  0.00     0.050 A 
HETATM   20  C19 UNL     1      26.746   6.446  48.566  1.00  0.00     0.069 A 
HETATM   21 CL2  UNL     1      28.382   7.050  48.384  1.00  0.00    -0.081 Cl
HETATM   22  C20 UNL     1      26.477   5.142  48.990  1.00  0.00     0.095 A 
BRANCH  22  23
HETATM   23  O2  UNL     1      27.607   4.377  49.250  1.00  0.00    -0.358 OA
HETATM   24  H15 UNL     1      28.194   4.021  48.488  1.00  0.00     0.217 HD
ENDBRANCH  22  23
ENDBRANCH  14  15
ENDBRANCH   4  14
BRANCH   3  25
HETATM   25  C2  UNL     1      27.236   1.833  53.674  1.00  0.00     0.037 A 
HETATM   26  C3  UNL     1      27.312   0.635  54.256  1.00  0.00     0.030 A 
HETATM   27  C4  UNL     1      28.680   0.413  54.747  1.00  0.00     0.014 A 
HETATM   28  C5  UNL     1      29.331   1.489  54.369  1.00  0.00    -0.024 A 
HETATM   29  C6  UNL     1      28.581   2.407  53.788  1.00  0.00     0.042 A 
ENDBRANCH   3  25
TORSDOF 6
ENDMDL
MODEL 7
REMARK VINA RESULT:      -8.1      3.527      6.575
REMARK  6 active torsions:
REMARK  status: ('A' for Active; 'I' for Inactive)
REMARK       I    between atoms: C1_2  and  N1_3 
REMARK       I    between atoms: C1_2  and  N2_9 
REMARK    1  A    between atoms: N1_3  and  C2_4 
REMARK    2  A    between atoms: N2_9  and  C7_10 
REMARK    3  A    between atoms: N2_9  and  C14_18 
REMARK    4  A    between atoms: C7_10  and  C8_11 
REMARK    5  A    between atoms: C14_18  and  C15_19 
REMARK    6  A    between atoms: C20_26  and  O2_27 
ROOT
HETATM    1  O1  UNL     1      25.504   5.439  50.268  1.00  0.00    -0.247 OA
HETATM    2  C1  UNL     1      26.034   4.279  50.173  1.00  0.00     0.323 C 
HETATM    3  N1  UNL     1      27.138   4.311  49.252  1.00  0.00    -0.309 N 
HETATM    4  N2  UNL     1      25.630   3.096  50.853  1.00  0.00    -0.325 N 
HETATM    5  H1  UNL     1      27.677   3.440  49.065  1.00  0.00     0.170 HD
ENDROOT
BRANCH   4   6
HETATM    6  C7  UNL     1      26.216   1.787  50.749  1.00  0.00     0.166 C 
BRANCH   6   7
HETATM    7  C8  UNL     1      26.952   1.351  51.957  1.00  0.00    -0.040 A 
HETATM    8  C9  UNL     1      26.787   0.018  52.358  1.00  0.00     0.012 A 
HETATM    9  C10 UNL     1      27.432  -0.479  53.470  1.00  0.00     0.043 A 
HETATM   10  C11 UNL     1      28.272   0.315  54.245  1.00  0.00     0.116 A 
HETATM   11  F1  UNL     1      28.912  -0.146  55.332  1.00  0.00    -0.206 F 
HETATM   12  C12 UNL     1      28.429   1.614  53.849  1.00  0.00     0.043 A 
HETATM   13  C13 UNL     1      27.778   2.099  52.735  1.00  0.00     0.012 A 
ENDBRANCH   6   7
ENDBRANCH   4   6
BRANCH   4  14
HETATM   14  C14 UNL     1      24.498   3.307  51.734  1.00  0.00     0.169 C 
BRANCH  14  15
HETATM   15  C15 UNL     1      23.502   2.211  51.670  1.00  0.00    -0.004 A 
HETATM   16  C16 UNL     1      23.307   1.165  52.557  1.00  0.00     0.035 A 
HETATM   17  C17 UNL     1      22.327   0.236  52.332  1.00  0.00     0.036 A 
HETATM   18 CL1  UNL     1      22.162  -1.052  53.523  1.00  0.00    -0.084 Cl
HETATM   19  C18 UNL     1      21.500   0.289  51.232  1.00  0.00     0.050 A 
HETATM   20  C19 UNL     1      21.688   1.323  50.346  1.00  0.00     0.069 A 
HETATM   21 CL2  UNL     1      20.616   1.358  48.958  1.00  0.00    -0.081 Cl
HETATM   22  C20 UNL     1      22.678   2.289  50.546  1.00  0.00     0.095 A 
BRANCH  22  23
HETATM   23  O2  UNL     1      22.737   3.265  49.559  1.00  0.00    -0.358 OA
HETATM   24  H15 UNL     1      22.556   4.252  49.776  1.00  0.00     0.217 HD
ENDBRANCH  22  23
ENDBRANCH  14  15
ENDBRANCH   4  14
BRANCH   3  25
HETATM   25  C2  UNL     1      27.504   5.521  48.593  1.00  0.00     0.037 A 
HETATM   26  C3  UNL     1      28.733   5.872  48.207  1.00  0.00     0.030 A 
HETATM   27  C4  UNL     1      28.686   7.194  47.564  1.00  0.00     0.014 A 
HETATM   28  C5  UNL     1      27.410   7.507  47.573  1.00  0.00    -0.024 A 
HETATM   29  C6  UNL     1      26.638   6.635  48.195  1.00  0.00     0.042 A 
ENDBRANCH   3  25
TORSDOF 6
ENDMDL
MODEL 8
REMARK VINA RESULT:      -8.0      2.165      2.834
REMARK  6 active torsions:
REMARK  status: ('A' for Active; 'I' for Inactive)
REMARK       I    between atoms: C1_2  and  N1_3 
REMARK       I    between atoms: C1_2  and  N2_9 
REMARK    1  A    between atoms: N1_3  and  C2_4 
REMARK    2  A    between atoms: N2_9  and  C7_10 
REMARK    3  A    between atoms: N2_9  and  C14_18 
REMARK    4  A    between atoms: C7_10  and  C8_11 
REMARK    5  A    between atoms: C14_18  and  C15_19 
REMARK    6  A    between atoms: C20_26  and  O2_27 
ROOT
HETATM    1  O1  UNL     1      25.047   2.600  53.422  1.00  0.00    -0.247 OA
HETATM    2  C1  UNL     1      24.470   1.689  52.735  1.00  0.00     0.323 C 
HETATM    3  N1  UNL     1      25.287   0.506  52.694  1.00  0.00    -0.309 N 
HETATM    4  N2  UNL     1      23.209   1.779  52.084  1.00  0.00    -0.325 N 
HETATM    5  H1  UNL     1      24.954  -0.331  52.171  1.00  0.00     0.170 HD
ENDROOT
BRANCH   4   6
HETATM    6  C7  UNL     1      22.554   0.762  51.306  1.00  0.00     0.166 C 
BRANCH   6   7
HETATM    7  C8  UNL     1      21.275   0.286  51.877  1.00  0.00    -0.040 A 
HETATM    8  C9  UNL     1      21.334  -0.382  53.108  1.00  0.00     0.012 A 
HETATM    9  C10 UNL     1      20.194  -0.861  53.717  1.00  0.00     0.043 A 
HETATM   10  C11 UNL     1      18.936  -0.706  53.142  1.00  0.00     0.116 A 
HETATM   11  F1  UNL     1      17.811  -1.164  53.716  1.00  0.00    -0.206 F 
HETATM   12  C12 UNL     1      18.885  -0.054  51.942  1.00  0.00     0.043 A 
HETATM   13  C13 UNL     1      20.032   0.420  51.343  1.00  0.00     0.012 A 
ENDBRANCH   6   7
ENDBRANCH   4   6
BRANCH   4  14
HETATM   14  C14 UNL     1      22.565   3.065  52.268  1.00  0.00     0.169 C 
BRANCH  14  15
HETATM   15  C15 UNL     1      22.788   3.992  51.133  1.00  0.00    -0.004 A 
HETATM   16  C16 UNL     1      22.435   3.833  49.802  1.00  0.00     0.035 A 
HETATM   17  C17 UNL     1      22.725   4.806  48.885  1.00  0.00     0.036 A 
HETATM   18 CL1  UNL     1      22.231   4.504  47.222  1.00  0.00    -0.084 Cl
HETATM   19  C18 UNL     1      23.372   5.973  49.228  1.00  0.00     0.050 A 
HETATM   20  C19 UNL     1      23.726   6.139  50.547  1.00  0.00     0.069 A 
HETATM   21 CL2  UNL     1      24.547   7.636  50.945  1.00  0.00    -0.081 Cl
HETATM   22  C20 UNL     1      23.444   5.165  51.509  1.00  0.00     0.095 A 
BRANCH  22  23
HETATM   23  O2  UNL     1      23.868   5.486  52.792  1.00  0.00    -0.358 OA
HETATM   24  H15 UNL     1      23.399   6.215  53.340  1.00  0.00     0.217 HD
ENDBRANCH  22  23
ENDBRANCH  14  15
ENDBRANCH   4  14
BRANCH   3  25
HETATM   25  C2  UNL     1      26.546   0.463  53.362  1.00  0.00     0.037 A 
HETATM   26  C3  UNL     1      27.738   0.722  52.823  1.00  0.00     0.030 A 
HETATM   27  C4  UNL     1      28.784   0.568  53.846  1.00  0.00     0.014 A 
HETATM   28  C5  UNL     1      28.117   0.275  54.939  1.00  0.00    -0.024 A 
HETATM   29  C6  UNL     1      26.816   0.132  54.765  1.00  0.00     0.042 A 
ENDBRANCH   3  25
TORSDOF 6
ENDMDL
MODEL 9
REMARK VINA RESULT:      -8.0      2.910      6.085
REMARK  6 active torsions:
REMARK  status: ('A' for Active; 'I' for Inactive)
REMARK       I    between atoms: C1_2  and  N1_3 
REMARK       I    between atoms: C1_2  and  N2_9 
REMARK    1  A    between atoms: N1_3  and  C2_4 
REMARK    2  A    between atoms: N2_9  and  C7_10 
REMARK    3  A    between atoms: N2_9  and  C14_18 
REMARK    4  A    between atoms: C7_10  and  C8_11 
REMARK    5  A    between atoms: C14_18  and  C15_19 
REMARK    6  A    between atoms: C20_26  and  O2_27 
ROOT
HETATM    1  O1  UNL     1      21.175   2.416  52.661  1.00  0.00    -0.247 OA
HETATM    2  C1  UNL     1      22.082   1.640  52.203  1.00  0.00     0.323 C 
HETATM    3  N1  UNL     1      21.492   0.421  51.718  1.00  0.00    -0.309 N 
HETATM    4  N2  UNL     1      23.481   1.893  52.157  1.00  0.00    -0.325 N 
HETATM    5  H1  UNL     1      22.103  -0.319  51.310  1.00  0.00     0.170 HD
ENDROOT
BRANCH   4   6
HETATM    6  C7  UNL     1      24.508   1.025  51.648  1.00  0.00     0.166 C 
BRANCH   6   7
HETATM    7  C8  UNL     1      25.650   0.827  52.568  1.00  0.00    -0.040 A 
HETATM    8  C9  UNL     1      25.373   0.256  53.817  1.00  0.00     0.012 A 
HETATM    9  C10 UNL     1      26.372   0.032  54.739  1.00  0.00     0.043 A 
HETATM   10  C11 UNL     1      27.698   0.364  54.477  1.00  0.00     0.116 A 
HETATM   11  F1  UNL     1      28.690   0.157  55.359  1.00  0.00    -0.206 F 
HETATM   12  C12 UNL     1      27.962   0.921  53.257  1.00  0.00     0.043 A 
HETATM   13  C13 UNL     1      26.954   1.140  52.343  1.00  0.00     0.012 A 
ENDBRANCH   6   7
ENDBRANCH   4   6
BRANCH   4  14
HETATM   14  C14 UNL     1      23.841   3.190  52.697  1.00  0.00     0.169 C 
BRANCH  14  15
HETATM   15  C15 UNL     1      24.176   4.182  51.648  1.00  0.00    -0.004 A 
HETATM   16  C16 UNL     1      25.245   4.183  50.766  1.00  0.00     0.035 A 
HETATM   17  C17 UNL     1      25.394   5.194  49.856  1.00  0.00     0.036 A 
HETATM   18 CL1  UNL     1      26.785   5.097  48.781  1.00  0.00    -0.084 Cl
HETATM   19  C18 UNL     1      24.508   6.245  49.770  1.00  0.00     0.050 A 
HETATM   20  C19 UNL     1      23.444   6.252  50.642  1.00  0.00     0.069 A 
HETATM   21 CL2  UNL     1      22.338   7.606  50.503  1.00  0.00    -0.081 Cl
HETATM   22  C20 UNL     1      23.262   5.235  51.584  1.00  0.00     0.095 A 
BRANCH  22  23
HETATM   23  O2  UNL     1      22.141   5.391  52.389  1.00  0.00    -0.358 OA
HETATM   24  H15 UNL     1      21.758   4.605  52.925  1.00  0.00     0.217 HD
ENDBRANCH  22  23
ENDBRANCH  14  15
ENDBRANCH   4  14
BRANCH   3  25
HETATM   25  C2  UNL     1      20.084   0.212  51.786  1.00  0.00     0.037 A 
HETATM   26  C3  UNL     1      19.416  -0.366  52.787  1.00  0.00     0.030 A 
HETATM   27  C4  UNL     1      17.980  -0.387  52.470  1.00  0.00     0.014 A 
HETATM   28  C5  UNL     1      17.900   0.232  51.315  1.00  0.00    -0.024 A 
HETATM   29  C6  UNL     1      19.065   0.574  50.796  1.00  0.00     0.042 A 
ENDBRANCH   3  25
TORSDOF 6
ENDMDL
