MODEL 1
REMARK VINA RESULT:      -7.8      0.000      0.000
REMARK  6 active torsions:
REMARK  status: ('A' for Active; 'I' for Inactive)
REMARK    1  A    between atoms: N1_1  and  C1_2 
REMARK    2  A    between atoms: C1_2  and  N2_3 
REMARK    3  A    between atoms: C1_2  and  C2_4 
REMARK    4  A    between atoms: C2_4  and  N4_17 
REMARK    5  A    between atoms: C5_7  and  C6_8 
REMARK    6  A    between atoms: C6_8  and  C7_9 
ROOT
HETATM    1  C2  UNL     1      23.922   5.023  50.847  1.00  0.00     0.086 C 
HETATM    2  C3  UNL     1      23.051   4.053  51.053  1.00  0.00    -0.012 C 
HETATM    3  C4  UNL     1      22.994   2.650  50.659  1.00  0.00     0.035 C 
HETATM    4  C5  UNL     1      22.100   1.994  51.381  1.00  0.00     0.010 C 
HETATM    5  N3  UNL     1      21.526   2.938  52.287  1.00  0.00    -0.389 N 
HETATM    6  C12 UNL     1      21.818   4.308  51.843  1.00  0.00     0.160 C 
HETATM    7  H13 UNL     1      20.967   2.720  53.158  1.00  0.00     0.159 HD
ENDROOT
BRANCH   1   8
HETATM    8  C1  UNL     1      23.833   6.406  51.319  1.00  0.00     0.496 C 
BRANCH   8   9
HETATM    9  N1  UNL     1      22.454   6.840  51.301  1.00  0.00     0.117 N 
HETATM   10  H1  UNL     1      22.190   7.384  52.147  1.00  0.00     0.316 HD
HETATM   11  H2  UNL     1      21.790   6.060  51.115  1.00  0.00     0.316 HD
ENDBRANCH   8   9
BRANCH   8  12
HETATM   12  N2  UNL     1      24.266   6.507  52.722  1.00  0.00     0.117 N 
HETATM   13  H4  UNL     1      23.551   6.044  53.324  1.00  0.00     0.316 HD
HETATM   14  H5  UNL     1      25.197   6.066  52.867  1.00  0.00     0.316 HD
ENDBRANCH   8  12
ENDBRANCH   1   8
BRANCH   1  15
HETATM   15  N4  UNL     1      25.137   4.920  50.114  1.00  0.00    -0.331 N 
HETATM   16  C13 UNL     1      25.837   3.684  50.127  1.00  0.00     0.092 A 
HETATM   17  C14 UNL     1      26.950   3.664  49.428  1.00  0.00    -0.004 A 
HETATM   18  C15 UNL     1      27.573   4.750  48.630  1.00  0.00     0.076 A 
HETATM   19  C16 UNL     1      26.702   5.947  48.741  1.00  0.00     0.008 A 
HETATM   20 BR1  UNL     1      27.339   7.477  47.770  1.00  0.00    -0.054 Br
HETATM   21  C17 UNL     1      25.570   6.078  49.411  1.00  0.00     0.111 A 
ENDBRANCH   1  15
BRANCH   4  22
HETATM   22  C6  UNL     1      21.748   0.552  51.283  1.00  0.00     0.096 C 
BRANCH  22  23
HETATM   23  C7  UNL     1      21.894  -0.084  52.606  1.00  0.00    -0.035 A 
HETATM   24  C8  UNL     1      20.880  -0.549  53.318  1.00  0.00    -0.014 A 
HETATM   25  C9  UNL     1      21.443  -1.113  54.592  1.00  0.00     0.056 A 
HETATM   26  C10 UNL     1      22.905  -0.873  54.442  1.00  0.00     0.001 A 
HETATM   27  C11 UNL     1      23.165  -0.278  53.293  1.00  0.00     0.036 A 
HETATM   28 CL1  UNL     1      24.783   0.156  52.786  1.00  0.00    -0.084 Cl
ENDBRANCH  22  23
ENDBRANCH   4  22
TORSDOF 6
ENDMDL
MODEL 2
REMARK VINA RESULT:      -7.7      3.634      7.307
REMARK  6 active torsions:
REMARK  status: ('A' for Active; 'I' for Inactive)
REMARK    1  A    between atoms: N1_1  and  C1_2 
REMARK    2  A    between atoms: C1_2  and  N2_3 
REMARK    3  A    between atoms: C1_2  and  C2_4 
REMARK    4  A    between atoms: C2_4  and  N4_17 
REMARK    5  A    between atoms: C5_7  and  C6_8 
REMARK    6  A    between atoms: C6_8  and  C7_9 
ROOT
HETATM    1  C2  UNL     1      25.083   0.399  53.335  1.00  0.00     0.086 C 
HETATM    2  C3  UNL     1      25.410   1.206  52.341  1.00  0.00    -0.012 C 
HETATM    3  C4  UNL     1      24.650   1.847  51.274  1.00  0.00     0.035 C 
HETATM    4  C5  UNL     1      25.347   2.829  50.725  1.00  0.00     0.010 C 
HETATM    5  N3  UNL     1      26.601   2.880  51.408  1.00  0.00    -0.389 N 
HETATM    6  C12 UNL     1      26.821   1.634  52.156  1.00  0.00     0.160 C 
HETATM    7  H13 UNL     1      27.294   3.679  51.401  1.00  0.00     0.159 HD
ENDROOT
BRANCH   1   8
HETATM    8  C1  UNL     1      25.981  -0.169  54.343  1.00  0.00     0.496 C 
BRANCH   8   9
HETATM    9  N1  UNL     1      26.974  -0.999  53.699  1.00  0.00     0.117 N 
HETATM   10  H1  UNL     1      26.559  -1.812  53.199  1.00  0.00     0.316 HD
HETATM   11  H2  UNL     1      27.738  -1.287  54.345  1.00  0.00     0.316 HD
ENDBRANCH   8   9
BRANCH   8  12
HETATM   12  N2  UNL     1      26.733   0.894  55.030  1.00  0.00     0.117 N 
HETATM   13  H4  UNL     1      27.655   0.509  55.326  1.00  0.00     0.316 HD
HETATM   14  H5  UNL     1      26.871   1.722  54.415  1.00  0.00     0.316 HD
ENDBRANCH   8  12
ENDBRANCH   1   8
BRANCH   1  15
HETATM   15  N4  UNL     1      23.780  -0.088  53.628  1.00  0.00    -0.331 N 
HETATM   16  C13 UNL     1      23.610  -0.944  54.749  1.00  0.00     0.092 A 
HETATM   17  C14 UNL     1      22.380  -1.354  54.959  1.00  0.00    -0.004 A 
HETATM   18  C15 UNL     1      21.147  -1.047  54.189  1.00  0.00     0.076 A 
HETATM   19  C16 UNL     1      21.528  -0.148  53.070  1.00  0.00     0.008 A 
HETATM   20 BR1  UNL     1      20.060   0.371  51.943  1.00  0.00    -0.054 Br
HETATM   21  C17 UNL     1      22.726   0.323  52.768  1.00  0.00     0.111 A 
ENDBRANCH   1  15
BRANCH   4  22
HETATM   22  C6  UNL     1      24.922   3.719  49.611  1.00  0.00     0.096 C 
BRANCH  22  23
HETATM   23  C7  UNL     1      24.950   5.123  50.062  1.00  0.00    -0.035 A 
HETATM   24  C8  UNL     1      25.821   6.021  49.630  1.00  0.00    -0.014 A 
HETATM   25  C9  UNL     1      25.516   7.318  50.325  1.00  0.00     0.056 A 
HETATM   26  C10 UNL     1      24.354   6.965  51.187  1.00  0.00     0.001 A 
HETATM   27  C11 UNL     1      24.027   5.696  51.034  1.00  0.00     0.036 A 
HETATM   28 CL1  UNL     1      22.705   4.939  51.896  1.00  0.00    -0.084 Cl
ENDBRANCH  22  23
ENDBRANCH   4  22
TORSDOF 6
ENDMDL
MODEL 3
REMARK VINA RESULT:      -7.6      3.404      4.591
REMARK  6 active torsions:
REMARK  status: ('A' for Active; 'I' for Inactive)
REMARK    1  A    between atoms: N1_1  and  C1_2 
REMARK    2  A    between atoms: C1_2  and  N2_3 
REMARK    3  A    between atoms: C1_2  and  C2_4 
REMARK    4  A    between atoms: C2_4  and  N4_17 
REMARK    5  A    between atoms: C5_7  and  C6_8 
REMARK    6  A    between atoms: C6_8  and  C7_9 
ROOT
HETATM    1  C2  UNL     1      24.085   2.300  50.925  1.00  0.00     0.086 C 
HETATM    2  C3  UNL     1      24.509   1.495  51.882  1.00  0.00    -0.012 C 
HETATM    3  C4  UNL     1      25.694   1.479  52.732  1.00  0.00     0.035 C 
HETATM    4  C5  UNL     1      25.519   0.674  53.767  1.00  0.00     0.010 C 
HETATM    5  N3  UNL     1      24.207   0.122  53.647  1.00  0.00    -0.389 N 
HETATM    6  C12 UNL     1      23.700   0.313  52.280  1.00  0.00     0.160 C 
HETATM    7  H13 UNL     1      23.650  -0.359  54.406  1.00  0.00     0.159 HD
ENDROOT
BRANCH   1   8
HETATM    8  C1  UNL     1      22.847   2.179  50.152  1.00  0.00     0.496 C 
BRANCH   8   9
HETATM    9  N1  UNL     1      21.816   2.997  50.749  1.00  0.00     0.117 N 
HETATM   10  H1  UNL     1      20.939   3.017  50.189  1.00  0.00     0.316 HD
HETATM   11  H2  UNL     1      22.149   3.955  50.986  1.00  0.00     0.316 HD
ENDBRANCH   8   9
BRANCH   8  12
HETATM   12  N2  UNL     1      23.031   2.700  48.788  1.00  0.00     0.117 N 
HETATM   13  H4  UNL     1      24.026   2.991  48.675  1.00  0.00     0.316 HD
HETATM   14  H5  UNL     1      22.783   1.989  48.070  1.00  0.00     0.316 HD
ENDBRANCH   8  12
ENDBRANCH   1   8
BRANCH   1  15
HETATM   15  N4  UNL     1      24.752   3.461  50.445  1.00  0.00    -0.331 N 
HETATM   16  C13 UNL     1      25.912   3.295  49.641  1.00  0.00     0.092 A 
HETATM   17  C14 UNL     1      26.475   4.411  49.235  1.00  0.00    -0.004 A 
HETATM   18  C15 UNL     1      26.068   5.814  49.498  1.00  0.00     0.076 A 
HETATM   19  C16 UNL     1      24.849   5.778  50.346  1.00  0.00     0.008 A 
HETATM   20 BR1  UNL     1      24.157   7.511  50.804  1.00  0.00    -0.054 Br
HETATM   21  C17 UNL     1      24.204   4.721  50.809  1.00  0.00     0.111 A 
ENDBRANCH   1  15
BRANCH   4  22
HETATM   22  C6  UNL     1      26.490   0.387  54.857  1.00  0.00     0.096 C 
BRANCH  22  23
HETATM   23  C7  UNL     1      27.799   0.038  54.274  1.00  0.00    -0.035 A 
HETATM   24  C8  UNL     1      28.925   0.677  54.550  1.00  0.00    -0.014 A 
HETATM   25  C9  UNL     1      30.022   0.021  53.760  1.00  0.00     0.056 A 
HETATM   26  C10 UNL     1      29.302  -1.057  53.027  1.00  0.00     0.001 A 
HETATM   27  C11 UNL     1      28.018  -1.047  53.325  1.00  0.00     0.036 A 
HETATM   28 CL1  UNL     1      26.869  -2.178  52.644  1.00  0.00    -0.084 Cl
ENDBRANCH  22  23
ENDBRANCH   4  22
TORSDOF 6
ENDMDL
MODEL 4
REMARK VINA RESULT:      -7.4      3.718      6.094
REMARK  6 active torsions:
REMARK  status: ('A' for Active; 'I' for Inactive)
REMARK    1  A    between atoms: N1_1  and  C1_2 
REMARK    2  A    between atoms: C1_2  and  N2_3 
REMARK    3  A    between atoms: C1_2  and  C2_4 
REMARK    4  A    between atoms: C2_4  and  N4_17 
REMARK    5  A    between atoms: C5_7  and  C6_8 
REMARK    6  A    between atoms: C6_8  and  C7_9 
ROOT
HETATM    1  C2  UNL     1      22.014   0.474  53.018  1.00  0.00     0.086 C 
HETATM    2  C3  UNL     1      23.153  -0.140  53.281  1.00  0.00    -0.012 C 
HETATM    3  C4  UNL     1      24.433  -0.227  52.586  1.00  0.00     0.035 C 
HETATM    4  C5  UNL     1      25.378  -0.675  53.396  1.00  0.00     0.010 C 
HETATM    5  N3  UNL     1      24.763  -0.904  54.665  1.00  0.00    -0.389 N 
HETATM    6  C12 UNL     1      23.300  -0.950  54.518  1.00  0.00     0.160 C 
HETATM    7  H13 UNL     1      25.253  -1.027  55.594  1.00  0.00     0.159 HD
ENDROOT
BRANCH   1   8
HETATM    8  C1  UNL     1      20.796   0.464  53.832  1.00  0.00     0.496 C 
BRANCH   8   9
HETATM    9  N1  UNL     1      19.924  -0.602  53.391  1.00  0.00     0.117 N 
HETATM   10  H1  UNL     1      19.746  -1.311  54.131  1.00  0.00     0.316 HD
HETATM   11  H2  UNL     1      20.241  -1.038  52.501  1.00  0.00     0.316 HD
ENDBRANCH   8   9
BRANCH   8  12
HETATM   12  N2  UNL     1      21.113   0.166  55.239  1.00  0.00     0.117 N 
HETATM   13  H4  UNL     1      21.236  -0.864  55.340  1.00  0.00     0.316 HD
HETATM   14  H5  UNL     1      21.972   0.663  55.550  1.00  0.00     0.316 HD
ENDBRANCH   8  12
ENDBRANCH   1   8
BRANCH   1  15
HETATM   15  N4  UNL     1      21.735   1.277  51.878  1.00  0.00    -0.331 N 
HETATM   16  C13 UNL     1      21.464   0.632  50.641  1.00  0.00     0.092 A 
HETATM   17  C14 UNL     1      21.215   1.437  49.633  1.00  0.00    -0.004 A 
HETATM   18  C15 UNL     1      21.177   2.922  49.608  1.00  0.00     0.076 A 
HETATM   19  C16 UNL     1      21.483   3.403  50.980  1.00  0.00     0.008 A 
HETATM   20 BR1  UNL     1      21.483   5.315  51.161  1.00  0.00    -0.054 Br
HETATM   21  C17 UNL     1      21.746   2.687  52.060  1.00  0.00     0.111 A 
ENDBRANCH   1  15
BRANCH   4  22
HETATM   22  C6  UNL     1      26.811  -0.903  53.067  1.00  0.00     0.096 C 
BRANCH  22  23
HETATM   23  C7  UNL     1      27.610   0.256  53.508  1.00  0.00    -0.035 A 
HETATM   24  C8  UNL     1      28.396   0.249  54.573  1.00  0.00    -0.014 A 
HETATM   25  C9  UNL     1      29.027   1.609  54.678  1.00  0.00     0.056 A 
HETATM   26  C10 UNL     1      28.453   2.330  53.508  1.00  0.00     0.001 A 
HETATM   27  C11 UNL     1      27.634   1.548  52.832  1.00  0.00     0.036 A 
HETATM   28 CL1  UNL     1      26.781   2.069  51.396  1.00  0.00    -0.084 Cl
ENDBRANCH  22  23
ENDBRANCH   4  22
TORSDOF 6
ENDMDL
MODEL 5
REMARK VINA RESULT:      -7.3      3.363      5.142
REMARK  6 active torsions:
REMARK  status: ('A' for Active; 'I' for Inactive)
REMARK    1  A    between atoms: N1_1  and  C1_2 
REMARK    2  A    between atoms: C1_2  and  N2_3 
REMARK    3  A    between atoms: C1_2  and  C2_4 
REMARK    4  A    between atoms: C2_4  and  N4_17 
REMARK    5  A    between atoms: C5_7  and  C6_8 
REMARK    6  A    between atoms: C6_8  and  C7_9 
ROOT
HETATM    1  C2  UNL     1      27.541   7.986  48.929  1.00  0.00     0.086 C 
HETATM    2  C3  UNL     1      26.675   7.045  49.257  1.00  0.00    -0.012 C 
HETATM    3  C4  UNL     1      26.480   5.663  48.833  1.00  0.00     0.035 C 
HETATM    4  C5  UNL     1      25.699   5.016  49.683  1.00  0.00     0.010 C 
HETATM    5  N3  UNL     1      25.343   5.944  50.708  1.00  0.00    -0.389 N 
HETATM    6  C12 UNL     1      25.617   7.319  50.265  1.00  0.00     0.160 C 
HETATM    7  H13 UNL     1      24.939   5.714  51.659  1.00  0.00     0.159 HD
ENDROOT
BRANCH   1   8
HETATM    8  C1  UNL     1      27.605   9.351  49.455  1.00  0.00     0.496 C 
BRANCH   8   9
HETATM    9  N1  UNL     1      26.374  10.047  49.156  1.00  0.00     0.117 N 
HETATM   10  H1  UNL     1      25.709  10.055  49.956  1.00  0.00     0.316 HD
HETATM   11  H2  UNL     1      25.925   9.712  48.278  1.00  0.00     0.316 HD
ENDBRANCH   8   9
BRANCH   8  12
HETATM   12  N2  UNL     1      27.711   9.339  50.923  1.00  0.00     0.117 N 
HETATM   13  H4  UNL     1      28.691   9.095  51.183  1.00  0.00     0.316 HD
HETATM   14  H5  UNL     1      27.450  10.259  51.332  1.00  0.00     0.316 HD
ENDBRANCH   8  12
ENDBRANCH   1   8
BRANCH   1  15
HETATM   15  N4  UNL     1      28.598   7.863  47.985  1.00  0.00    -0.331 N 
HETATM   16  C13 UNL     1      28.347   8.220  46.633  1.00  0.00     0.092 A 
HETATM   17  C14 UNL     1      29.370   8.080  45.819  1.00  0.00    -0.004 A 
HETATM   18  C15 UNL     1      30.745   7.604  46.117  1.00  0.00     0.076 A 
HETATM   19  C16 UNL     1      30.806   7.283  47.566  1.00  0.00     0.008 A 
HETATM   20 BR1  UNL     1      32.518   6.644  48.158  1.00  0.00    -0.054 Br
HETATM   21  C17 UNL     1      29.846   7.385  48.469  1.00  0.00     0.111 A 
ENDBRANCH   1  15
BRANCH   4  22
HETATM   22  C6  UNL     1      25.266   3.595  49.602  1.00  0.00     0.096 C 
BRANCH  22  23
HETATM   23  C7  UNL     1      25.562   2.914  50.877  1.00  0.00    -0.035 A 
HETATM   24  C8  UNL     1      26.725   2.350  51.160  1.00  0.00    -0.014 A 
HETATM   25  C9  UNL     1      26.621   1.770  52.543  1.00  0.00     0.056 A 
HETATM   26  C10 UNL     1      25.228   2.115  52.942  1.00  0.00     0.001 A 
HETATM   27  C11 UNL     1      24.617   2.776  51.978  1.00  0.00     0.036 A 
HETATM   28 CL1  UNL     1      22.964   3.339  52.105  1.00  0.00    -0.084 Cl
ENDBRANCH  22  23
ENDBRANCH   4  22
TORSDOF 6
ENDMDL
MODEL 6
REMARK VINA RESULT:      -7.3      2.680      4.471
REMARK  6 active torsions:
REMARK  status: ('A' for Active; 'I' for Inactive)
REMARK    1  A    between atoms: N1_1  and  C1_2 
REMARK    2  A    between atoms: C1_2  and  N2_3 
REMARK    3  A    between atoms: C1_2  and  C2_4 
REMARK    4  A    between atoms: C2_4  and  N4_17 
REMARK    5  A    between atoms: C5_7  and  C6_8 
REMARK    6  A    between atoms: C6_8  and  C7_9 
ROOT
HETATM    1  C2  UNL     1      22.357   2.069  51.407  1.00  0.00     0.086 C 
HETATM    2  C3  UNL     1      22.779   1.030  52.103  1.00  0.00    -0.012 C 
HETATM    3  C4  UNL     1      23.999   0.747  52.851  1.00  0.00     0.035 C 
HETATM    4  C5  UNL     1      23.827  -0.287  53.657  1.00  0.00     0.010 C 
HETATM    5  N3  UNL     1      22.483  -0.735  53.477  1.00  0.00    -0.389 N 
HETATM    6  C12 UNL     1      21.927  -0.180  52.234  1.00  0.00     0.160 C 
HETATM    7  H13 UNL     1      21.936  -1.371  54.120  1.00  0.00     0.159 HD
ENDROOT
BRANCH   1   8
HETATM    8  C1  UNL     1      21.081   2.201  50.700  1.00  0.00     0.496 C 
BRANCH   8   9
HETATM    9  N1  UNL     1      21.000   1.210  49.651  1.00  0.00     0.117 N 
HETATM   10  H1  UNL     1      21.655   0.414  49.795  1.00  0.00     0.316 HD
HETATM   11  H2  UNL     1      21.091   1.623  48.700  1.00  0.00     0.316 HD
ENDBRANCH   8   9
BRANCH   8  12
HETATM   12  N2  UNL     1      19.953   1.919  51.604  1.00  0.00     0.117 N 
HETATM   13  H4  UNL     1      20.165   2.331  52.537  1.00  0.00     0.316 HD
HETATM   14  H5  UNL     1      19.061   2.307  51.234  1.00  0.00     0.316 HD
ENDBRANCH   8  12
ENDBRANCH   1   8
BRANCH   1  15
HETATM   15  N4  UNL     1      23.065   3.285  51.199  1.00  0.00    -0.331 N 
HETATM   16  C13 UNL     1      22.531   4.485  51.743  1.00  0.00     0.092 A 
HETATM   17  C14 UNL     1      23.239   5.567  51.510  1.00  0.00    -0.004 A 
HETATM   18  C15 UNL     1      24.513   5.709  50.761  1.00  0.00     0.076 A 
HETATM   19  C16 UNL     1      24.904   4.361  50.277  1.00  0.00     0.008 A 
HETATM   20 BR1  UNL     1      26.542   4.329  49.274  1.00  0.00    -0.054 Br
HETATM   21  C17 UNL     1      24.271   3.213  50.451  1.00  0.00     0.111 A 
ENDBRANCH   1  15
BRANCH   4  22
HETATM   22  C6  UNL     1      24.830  -0.883  54.581  1.00  0.00     0.096 C 
BRANCH  22  23
HETATM   23  C7  UNL     1      26.177  -0.394  54.231  1.00  0.00    -0.035 A 
HETATM   24  C8  UNL     1      26.770   0.628  54.827  1.00  0.00    -0.014 A 
HETATM   25  C9  UNL     1      28.117   0.806  54.187  1.00  0.00     0.056 A 
HETATM   26  C10 UNL     1      28.142  -0.276  53.164  1.00  0.00     0.001 A 
HETATM   27  C11 UNL     1      27.020  -0.970  53.190  1.00  0.00     0.036 A 
HETATM   28 CL1  UNL     1      26.706  -2.319  52.122  1.00  0.00    -0.084 Cl
ENDBRANCH  22  23
ENDBRANCH   4  22
TORSDOF 6
ENDMDL
MODEL 7
REMARK VINA RESULT:      -7.3      4.720      7.071
REMARK  6 active torsions:
REMARK  status: ('A' for Active; 'I' for Inactive)
REMARK    1  A    between atoms: N1_1  and  C1_2 
REMARK    2  A    between atoms: C1_2  and  N2_3 
REMARK    3  A    between atoms: C1_2  and  C2_4 
REMARK    4  A    between atoms: C2_4  and  N4_17 
REMARK    5  A    between atoms: C5_7  and  C6_8 
REMARK    6  A    between atoms: C6_8  and  C7_9 
ROOT
HETATM    1  C2  UNL     1      21.932   0.148  53.654  1.00  0.00     0.086 C 
HETATM    2  C3  UNL     1      23.221  -0.040  53.438  1.00  0.00    -0.012 C 
HETATM    3  C4  UNL     1      24.148   0.424  52.413  1.00  0.00     0.035 C 
HETATM    4  C5  UNL     1      25.401   0.252  52.800  1.00  0.00     0.010 C 
HETATM    5  N3  UNL     1      25.357  -0.335  54.102  1.00  0.00    -0.389 N 
HETATM    6  C12 UNL     1      24.019  -0.887  54.363  1.00  0.00     0.160 C 
HETATM    7  H13 UNL     1      26.148  -0.385  54.802  1.00  0.00     0.159 HD
ENDROOT
BRANCH   1   8
HETATM    8  C1  UNL     1      21.130  -0.399  54.750  1.00  0.00     0.496 C 
BRANCH   8   9
HETATM    9  N1  UNL     1      20.270   0.632  55.287  1.00  0.00     0.117 N 
HETATM   10  H1  UNL     1      20.799   1.423  55.708  1.00  0.00     0.316 HD
HETATM   11  H2  UNL     1      19.547   0.256  55.936  1.00  0.00     0.316 HD
ENDBRANCH   8   9
BRANCH   8  12
HETATM   12  N2  UNL     1      20.230  -1.456  54.261  1.00  0.00     0.117 N 
HETATM   13  H4  UNL     1      19.534  -1.671  55.007  1.00  0.00     0.316 HD
HETATM   14  H5  UNL     1      19.742  -1.168  53.388  1.00  0.00     0.316 HD
ENDBRANCH   8  12
ENDBRANCH   1   8
BRANCH   1  15
HETATM   15  N4  UNL     1      21.051   0.929  52.855  1.00  0.00    -0.331 N 
HETATM   16  C13 UNL     1      21.232   2.338  52.820  1.00  0.00     0.092 A 
HETATM   17  C14 UNL     1      20.382   2.992  52.061  1.00  0.00    -0.004 A 
HETATM   18  C15 UNL     1      19.264   2.465  51.239  1.00  0.00     0.076 A 
HETATM   19  C16 UNL     1      19.238   0.990  51.407  1.00  0.00     0.008 A 
HETATM   20 BR1  UNL     1      17.848   0.109  50.415  1.00  0.00    -0.054 Br
HETATM   21  C17 UNL     1      20.038   0.234  52.139  1.00  0.00     0.111 A 
ENDBRANCH   1  15
BRANCH   4  22
HETATM   22  C6  UNL     1      26.633   0.598  52.040  1.00  0.00     0.096 C 
BRANCH  22  23
HETATM   23  C7  UNL     1      27.814   0.063  52.742  1.00  0.00    -0.035 A 
HETATM   24  C8  UNL     1      28.120  -1.224  52.799  1.00  0.00    -0.014 A 
HETATM   25  C9  UNL     1      29.385  -1.353  53.600  1.00  0.00     0.056 A 
HETATM   26  C10 UNL     1      29.697   0.059  53.956  1.00  0.00     0.001 A 
HETATM   27  C11 UNL     1      28.788   0.877  53.460  1.00  0.00     0.036 A 
HETATM   28 CL1  UNL     1      28.840   2.612  53.683  1.00  0.00    -0.084 Cl
ENDBRANCH  22  23
ENDBRANCH   4  22
TORSDOF 6
ENDMDL
MODEL 8
REMARK VINA RESULT:      -7.3      2.834      3.835
REMARK  6 active torsions:
REMARK  status: ('A' for Active; 'I' for Inactive)
REMARK    1  A    between atoms: N1_1  and  C1_2 
REMARK    2  A    between atoms: C1_2  and  N2_3 
REMARK    3  A    between atoms: C1_2  and  C2_4 
REMARK    4  A    between atoms: C2_4  and  N4_17 
REMARK    5  A    between atoms: C5_7  and  C6_8 
REMARK    6  A    between atoms: C6_8  and  C7_9 
ROOT
HETATM    1  C2  UNL     1      23.973   3.797  50.239  1.00  0.00     0.086 C 
HETATM    2  C3  UNL     1      24.246   2.804  51.065  1.00  0.00    -0.012 C 
HETATM    3  C4  UNL     1      25.289   2.580  52.060  1.00  0.00     0.035 C 
HETATM    4  C5  UNL     1      24.958   1.590  52.873  1.00  0.00     0.010 C 
HETATM    5  N3  UNL     1      23.679   1.116  52.450  1.00  0.00    -0.389 N 
HETATM    6  C12 UNL     1      23.386   1.593  51.091  1.00  0.00     0.160 C 
HETATM    7  H13 UNL     1      23.013   0.510  53.005  1.00  0.00     0.159 HD
ENDROOT
BRANCH   1   8
HETATM    8  C1  UNL     1      22.867   3.872  49.282  1.00  0.00     0.496 C 
BRANCH   8   9
HETATM    9  N1  UNL     1      22.957   2.775  48.346  1.00  0.00     0.117 N 
HETATM   10  H1  UNL     1      22.198   2.074  48.469  1.00  0.00     0.316 HD
HETATM   11  H2  UNL     1      23.899   2.331  48.335  1.00  0.00     0.316 HD
ENDBRANCH   8   9
BRANCH   8  12
HETATM   12  N2  UNL     1      21.574   3.708  49.967  1.00  0.00     0.117 N 
HETATM   13  H4  UNL     1      21.156   4.651  50.116  1.00  0.00     0.316 HD
HETATM   14  H5  UNL     1      20.923   3.111  49.416  1.00  0.00     0.316 HD
ENDBRANCH   8  12
ENDBRANCH   1   8
BRANCH   1  15
HETATM   15  N4  UNL     1      24.707   5.009  50.109  1.00  0.00    -0.331 N 
HETATM   16  C13 UNL     1      24.213   6.176  50.752  1.00  0.00     0.092 A 
HETATM   17  C14 UNL     1      24.944   7.256  50.587  1.00  0.00    -0.004 A 
HETATM   18  C15 UNL     1      26.207   7.424  49.826  1.00  0.00     0.076 A 
HETATM   19  C16 UNL     1      26.555   6.108  49.234  1.00  0.00     0.008 A 
HETATM   20 BR1  UNL     1      28.173   6.113  48.199  1.00  0.00    -0.054 Br
HETATM   21  C17 UNL     1      25.898   4.965  49.334  1.00  0.00     0.111 A 
ENDBRANCH   1  15
BRANCH   4  22
HETATM   22  C6  UNL     1      25.753   1.061  54.014  1.00  0.00     0.096 C 
BRANCH  22  23
HETATM   23  C7  UNL     1      26.620  -0.036  53.545  1.00  0.00    -0.035 A 
HETATM   24  C8  UNL     1      26.174  -1.119  52.928  1.00  0.00    -0.014 A 
HETATM   25  C9  UNL     1      27.363  -1.985  52.619  1.00  0.00     0.056 A 
HETATM   26  C10 UNL     1      28.499  -1.195  53.168  1.00  0.00     0.001 A 
HETATM   27  C11 UNL     1      28.069  -0.069  53.703  1.00  0.00     0.036 A 
HETATM   28 CL1  UNL     1      29.135   1.105  54.445  1.00  0.00    -0.084 Cl
ENDBRANCH  22  23
ENDBRANCH   4  22
TORSDOF 6
ENDMDL
MODEL 9
REMARK VINA RESULT:      -7.2      3.260      5.089
REMARK  6 active torsions:
REMARK  status: ('A' for Active; 'I' for Inactive)
REMARK    1  A    between atoms: N1_1  and  C1_2 
REMARK    2  A    between atoms: C1_2  and  N2_3 
REMARK    3  A    between atoms: C1_2  and  C2_4 
REMARK    4  A    between atoms: C2_4  and  N4_17 
REMARK    5  A    between atoms: C5_7  and  C6_8 
REMARK    6  A    between atoms: C6_8  and  C7_9 
ROOT
HETATM    1  C2  UNL     1      21.159   0.837  51.464  1.00  0.00     0.086 C 
HETATM    2  C3  UNL     1      21.794   0.195  52.427  1.00  0.00    -0.012 C 
HETATM    3  C4  UNL     1      23.198  -0.114  52.675  1.00  0.00     0.035 C 
HETATM    4  C5  UNL     1      23.384  -0.480  53.932  1.00  0.00     0.010 C 
HETATM    5  N3  UNL     1      22.108  -0.430  54.572  1.00  0.00    -0.389 N 
HETATM    6  C12 UNL     1      21.038  -0.389  53.565  1.00  0.00     0.160 C 
HETATM    7  H13 UNL     1      21.921  -0.422  55.613  1.00  0.00     0.159 HD
ENDROOT
BRANCH   1   8
HETATM    8  C1  UNL     1      19.716   1.066  51.357  1.00  0.00     0.496 C 
BRANCH   8   9
HETATM    9  N1  UNL     1      19.001  -0.106  51.811  1.00  0.00     0.117 N 
HETATM   10  H1  UNL     1      18.325   0.102  52.574  1.00  0.00     0.316 HD
HETATM   11  H2  UNL     1      19.636  -0.895  52.055  1.00  0.00     0.316 HD
ENDBRANCH   8   9
BRANCH   8  12
HETATM   12  N2  UNL     1      19.295   2.160  52.248  1.00  0.00     0.117 N 
HETATM   13  H4  UNL     1      18.481   1.834  52.812  1.00  0.00     0.316 HD
HETATM   14  H5  UNL     1      20.069   2.462  52.874  1.00  0.00     0.316 HD
ENDBRANCH   8  12
ENDBRANCH   1   8
BRANCH   1  15
HETATM   15  N4  UNL     1      21.752   1.441  50.322  1.00  0.00    -0.331 N 
HETATM   16  C13 UNL     1      21.386   0.967  49.033  1.00  0.00     0.092 A 
HETATM   17  C14 UNL     1      21.974   1.573  48.027  1.00  0.00    -0.004 A 
HETATM   18  C15 UNL     1      22.965   2.679  48.050  1.00  0.00     0.076 A 
HETATM   19  C16 UNL     1      23.216   3.030  49.471  1.00  0.00     0.008 A 
HETATM   20 BR1  UNL     1      24.481   4.454  49.719  1.00  0.00    -0.054 Br
HETATM   21  C17 UNL     1      22.683   2.491  50.554  1.00  0.00     0.111 A 
ENDBRANCH   1  15
BRANCH   4  22
HETATM   22  C6  UNL     1      24.668  -0.872  54.574  1.00  0.00     0.096 C 
BRANCH  22  23
HETATM   23  C7  UNL     1      25.775  -0.103  53.976  1.00  0.00    -0.035 A 
HETATM   24  C8  UNL     1      26.032   1.164  54.259  1.00  0.00    -0.014 A 
HETATM   25  C9  UNL     1      27.229   1.575  53.448  1.00  0.00     0.056 A 
HETATM   26  C10 UNL     1      27.560   0.333  52.696  1.00  0.00     0.001 A 
HETATM   27  C11 UNL     1      26.720  -0.636  53.002  1.00  0.00     0.036 A 
HETATM   28 CL1  UNL     1      26.813  -2.238  52.303  1.00  0.00    -0.084 Cl
ENDBRANCH  22  23
ENDBRANCH   4  22
TORSDOF 6
ENDMDL
