MODEL 1
REMARK VINA RESULT:      -6.8      0.000      0.000
REMARK  8 active torsions:
REMARK  status: ('A' for Active; 'I' for Inactive)
REMARK    1  A    between atoms: N2_5  and  C4_6 
REMARK    2  A    between atoms: C4_6  and  C5_7 
REMARK    3  A    between atoms: C8_10  and  N3_11 
REMARK    4  A    between atoms: N3_11  and  C9_12 
REMARK    5  A    between atoms: C9_12  and  C10_13 
REMARK    6  A    between atoms: C10_13  and  C11_14 
REMARK    7  A    between atoms: C11_14  and  N4_15 
REMARK    8  A    between atoms: N4_15  and  C12_16 
ROOT
HETATM    1  C5  UNL     1      23.694  -0.212  53.888  1.00  0.00    -0.030 A 
HETATM    2  C6  UNL     1      23.008  -1.112  54.680  1.00  0.00     0.011 A 
HETATM    3  C7  UNL     1      21.636  -1.261  54.661  1.00  0.00     0.029 A 
HETATM    4  C8  UNL     1      20.888  -0.469  53.804  1.00  0.00     0.027 A 
HETATM    5  C13 UNL     1      21.550   0.439  53.002  1.00  0.00     0.029 A 
HETATM    6  C14 UNL     1      22.941   0.588  53.023  1.00  0.00     0.011 A 
ENDROOT
BRANCH   4   7
HETATM    7  N3  UNL     1      19.472  -0.589  53.751  1.00  0.00    -0.390 N 
HETATM    8  H12 UNL     1      18.965  -0.943  54.593  1.00  0.00     0.159 HD
BRANCH   7   9
HETATM    9  C9  UNL     1      18.682  -0.252  52.607  1.00  0.00     0.121 C 
BRANCH   9  10
HETATM   10  C10 UNL     1      17.557  -1.239  52.365  1.00  0.00     0.050 C 
BRANCH  10  11
HETATM   11  C11 UNL     1      17.574  -2.304  53.459  1.00  0.00     0.274 C 
BRANCH  11  12
HETATM   12  N4  UNL     1      16.383  -3.102  53.445  1.00  0.00     0.111 N 
HETATM   13  H19 UNL     1      16.039  -3.114  52.457  1.00  0.00     0.319 HD
BRANCH  12  14
HETATM   14  C12 UNL     1      16.718  -4.445  53.848  1.00  0.00     0.490 C 
HETATM   15  F1  UNL     1      17.698  -4.964  53.013  1.00  0.00    -0.224 F 
ENDBRANCH  12  14
ENDBRANCH  11  12
ENDBRANCH  10  11
ENDBRANCH   9  10
ENDBRANCH   7   9
ENDBRANCH   4   7
BRANCH   1  16
HETATM   16  C4  UNL     1      25.171  -0.051  53.904  1.00  0.00     0.311 C 
BRANCH  16  17
HETATM   17  N2  UNL     1      25.832  -0.431  52.702  1.00  0.00     0.096 N 
HETATM   18  C3  UNL     1      26.899  -1.365  52.822  1.00  0.00     0.303 C 
HETATM   19  C2  UNL     1      28.211  -0.773  53.231  1.00  0.00     0.302 C 
HETATM   20  N1  UNL     1      28.049   0.542  53.779  1.00  0.00     0.087 N 
HETATM   21  C1  UNL     1      29.367   1.019  54.152  1.00  0.00     0.310 C 
HETATM   22  C16 UNL     1      27.452   1.433  52.801  1.00  0.00     0.302 C 
HETATM   23  C15 UNL     1      26.302   0.787  52.066  1.00  0.00     0.303 C 
ENDBRANCH  16  17
ENDBRANCH   1  16
TORSDOF 8
ENDMDL
MODEL 2
REMARK VINA RESULT:      -6.6      5.006      8.407
REMARK  8 active torsions:
REMARK  status: ('A' for Active; 'I' for Inactive)
REMARK    1  A    between atoms: N2_5  and  C4_6 
REMARK    2  A    between atoms: C4_6  and  C5_7 
REMARK    3  A    between atoms: C8_10  and  N3_11 
REMARK    4  A    between atoms: N3_11  and  C9_12 
REMARK    5  A    between atoms: C9_12  and  C10_13 
REMARK    6  A    between atoms: C10_13  and  C11_14 
REMARK    7  A    between atoms: C11_14  and  N4_15 
REMARK    8  A    between atoms: N4_15  and  C12_16 
ROOT
HETATM    1  C5  UNL     1      24.114   1.594  51.985  1.00  0.00    -0.030 A 
HETATM    2  C6  UNL     1      23.743   0.693  52.964  1.00  0.00     0.011 A 
HETATM    3  C7  UNL     1      24.603  -0.230  53.525  1.00  0.00     0.029 A 
HETATM    4  C8  UNL     1      25.918  -0.270  53.089  1.00  0.00     0.027 A 
HETATM    5  C13 UNL     1      26.315   0.618  52.111  1.00  0.00     0.029 A 
HETATM    6  C14 UNL     1      25.441   1.554  51.545  1.00  0.00     0.011 A 
ENDROOT
BRANCH   4   7
HETATM    7  N3  UNL     1      26.838  -1.206  53.639  1.00  0.00    -0.390 N 
HETATM    8  H12 UNL     1      26.813  -1.391  54.666  1.00  0.00     0.159 HD
BRANCH   7   9
HETATM    9  C9  UNL     1      27.809  -1.921  52.869  1.00  0.00     0.121 C 
BRANCH   9  10
HETATM   10  C10 UNL     1      29.232  -1.547  53.235  1.00  0.00     0.050 C 
BRANCH  10  11
HETATM   11  C11 UNL     1      29.212  -0.377  54.216  1.00  0.00     0.274 C 
BRANCH  11  12
HETATM   12  N4  UNL     1      29.766   0.812  53.639  1.00  0.00     0.111 N 
HETATM   13  H19 UNL     1      29.526   0.795  52.620  1.00  0.00     0.319 HD
BRANCH  12  14
HETATM   14  C12 UNL     1      29.147   1.960  54.254  1.00  0.00     0.490 C 
HETATM   15  F1  UNL     1      28.732   2.857  53.280  1.00  0.00    -0.224 F 
ENDBRANCH  12  14
ENDBRANCH  11  12
ENDBRANCH  10  11
ENDBRANCH   9  10
ENDBRANCH   7   9
ENDBRANCH   4   7
BRANCH   1  16
HETATM   16  C4  UNL     1      23.193   2.590  51.382  1.00  0.00     0.311 C 
BRANCH  16  17
HETATM   17  N2  UNL     1      22.532   3.441  52.313  1.00  0.00     0.096 N 
HETATM   18  C3  UNL     1      21.252   3.936  51.937  1.00  0.00     0.303 C 
HETATM   19  C2  UNL     1      21.278   5.125  51.030  1.00  0.00     0.302 C 
HETATM   20  N1  UNL     1      22.566   5.299  50.424  1.00  0.00     0.087 N 
HETATM   21  C1  UNL     1      22.483   6.462  49.561  1.00  0.00     0.310 C 
HETATM   22  C16 UNL     1      23.584   5.500  51.438  1.00  0.00     0.302 C 
HETATM   23  C15 UNL     1      23.431   4.546  52.599  1.00  0.00     0.303 C 
ENDBRANCH  16  17
ENDBRANCH   1  16
TORSDOF 8
ENDMDL
MODEL 3
REMARK VINA RESULT:      -6.5      3.098      8.228
REMARK  8 active torsions:
REMARK  status: ('A' for Active; 'I' for Inactive)
REMARK    1  A    between atoms: N2_5  and  C4_6 
REMARK    2  A    between atoms: C4_6  and  C5_7 
REMARK    3  A    between atoms: C8_10  and  N3_11 
REMARK    4  A    between atoms: N3_11  and  C9_12 
REMARK    5  A    between atoms: C9_12  and  C10_13 
REMARK    6  A    between atoms: C10_13  and  C11_14 
REMARK    7  A    between atoms: C11_14  and  N4_15 
REMARK    8  A    between atoms: N4_15  and  C12_16 
ROOT
HETATM    1  C5  UNL     1      23.315   1.247  52.045  1.00  0.00    -0.030 A 
HETATM    2  C6  UNL     1      24.017   1.897  51.050  1.00  0.00     0.011 A 
HETATM    3  C7  UNL     1      25.315   2.345  51.192  1.00  0.00     0.029 A 
HETATM    4  C8  UNL     1      25.965   2.141  52.398  1.00  0.00     0.027 A 
HETATM    5  C13 UNL     1      25.286   1.495  53.411  1.00  0.00     0.029 A 
HETATM    6  C14 UNL     1      23.970   1.040  53.264  1.00  0.00     0.011 A 
ENDROOT
BRANCH   4   7
HETATM    7  N3  UNL     1      27.303   2.587  52.589  1.00  0.00    -0.390 N 
HETATM    8  H12 UNL     1      27.716   3.250  51.896  1.00  0.00     0.159 HD
BRANCH   7   9
HETATM    9  C9  UNL     1      28.133   2.184  53.682  1.00  0.00     0.121 C 
BRANCH   9  10
HETATM   10  C10 UNL     1      28.966   0.959  53.360  1.00  0.00     0.050 C 
BRANCH  10  11
HETATM   11  C11 UNL     1      28.427  -0.238  54.139  1.00  0.00     0.274 C 
BRANCH  11  12
HETATM   12  N4  UNL     1      28.348  -1.414  53.322  1.00  0.00     0.111 N 
HETATM   13  H19 UNL     1      28.613  -2.223  53.931  1.00  0.00     0.319 HD
BRANCH  12  14
HETATM   14  C12 UNL     1      26.987  -1.580  52.877  1.00  0.00     0.490 C 
HETATM   15  F1  UNL     1      26.797  -0.926  51.668  1.00  0.00    -0.224 F 
ENDBRANCH  12  14
ENDBRANCH  11  12
ENDBRANCH  10  11
ENDBRANCH   9  10
ENDBRANCH   7   9
ENDBRANCH   4   7
BRANCH   1  16
HETATM   16  C4  UNL     1      21.920   0.761  51.895  1.00  0.00     0.311 C 
BRANCH  16  17
HETATM   17  N2  UNL     1      21.056   1.060  52.987  1.00  0.00     0.096 N 
HETATM   18  C3  UNL     1      20.266  -0.009  53.495  1.00  0.00     0.303 C 
HETATM   19  C2  UNL     1      19.017  -0.290  52.722  1.00  0.00     0.302 C 
HETATM   20  N1  UNL     1      19.052   0.315  51.423  1.00  0.00     0.087 N 
HETATM   21  C1  UNL     1      17.809  -0.024  50.755  1.00  0.00     0.310 C 
HETATM   22  C16 UNL     1      19.181   1.756  51.535  1.00  0.00     0.302 C 
HETATM   23  C15 UNL     1      20.203   2.159  52.572  1.00  0.00     0.303 C 
ENDBRANCH  16  17
ENDBRANCH   1  16
TORSDOF 8
ENDMDL
MODEL 4
REMARK VINA RESULT:      -6.4      6.038      7.318
REMARK  8 active torsions:
REMARK  status: ('A' for Active; 'I' for Inactive)
REMARK    1  A    between atoms: N2_5  and  C4_6 
REMARK    2  A    between atoms: C4_6  and  C5_7 
REMARK    3  A    between atoms: C8_10  and  N3_11 
REMARK    4  A    between atoms: N3_11  and  C9_12 
REMARK    5  A    between atoms: C9_12  and  C10_13 
REMARK    6  A    between atoms: C10_13  and  C11_14 
REMARK    7  A    between atoms: C11_14  and  N4_15 
REMARK    8  A    between atoms: N4_15  and  C12_16 
ROOT
HETATM    1  C5  UNL     1      25.989   2.434  50.973  1.00  0.00    -0.030 A 
HETATM    2  C6  UNL     1      26.550   3.496  50.292  1.00  0.00     0.011 A 
HETATM    3  C7  UNL     1      25.835   4.350  49.477  1.00  0.00     0.029 A 
HETATM    4  C8  UNL     1      24.474   4.143  49.321  1.00  0.00     0.027 A 
HETATM    5  C13 UNL     1      23.887   3.088  49.990  1.00  0.00     0.029 A 
HETATM    6  C14 UNL     1      24.614   2.224  50.816  1.00  0.00     0.011 A 
ENDROOT
BRANCH   4   7
HETATM    7  N3  UNL     1      23.698   4.999  48.490  1.00  0.00    -0.390 N 
HETATM    8  H12 UNL     1      23.214   4.591  47.660  1.00  0.00     0.159 HD
BRANCH   7   9
HETATM    9  C9  UNL     1      23.531   6.402  48.719  1.00  0.00     0.121 C 
BRANCH   9  10
HETATM   10  C10 UNL     1      22.877   6.700  50.054  1.00  0.00     0.050 C 
BRANCH  10  11
HETATM   11  C11 UNL     1      23.864   7.452  50.944  1.00  0.00     0.274 C 
BRANCH  11  12
HETATM   12  N4  UNL     1      24.360   6.626  52.006  1.00  0.00     0.111 N 
HETATM   13  H19 UNL     1      24.516   7.253  52.829  1.00  0.00     0.319 HD
BRANCH  12  14
HETATM   14  C12 UNL     1      23.357   5.645  52.340  1.00  0.00     0.490 C 
HETATM   15  F1  UNL     1      23.934   4.590  53.033  1.00  0.00    -0.224 F 
ENDBRANCH  12  14
ENDBRANCH  11  12
ENDBRANCH  10  11
ENDBRANCH   9  10
ENDBRANCH   7   9
ENDBRANCH   4   7
BRANCH   1  16
HETATM   16  C4  UNL     1      26.754   1.514  51.853  1.00  0.00     0.311 C 
BRANCH  16  17
HETATM   17  N2  UNL     1      26.978   1.992  53.175  1.00  0.00     0.096 N 
HETATM   18  C3  UNL     1      28.302   2.407  53.494  1.00  0.00     0.303 C 
HETATM   19  C2  UNL     1      29.240   1.297  53.851  1.00  0.00     0.302 C 
HETATM   20  N1  UNL     1      28.729   0.021  53.440  1.00  0.00     0.087 N 
HETATM   21  C1  UNL     1      29.711  -0.978  53.818  1.00  0.00     0.310 C 
HETATM   22  C16 UNL     1      27.460  -0.253  54.089  1.00  0.00     0.302 C 
HETATM   23  C15 UNL     1      26.546   0.949  54.089  1.00  0.00     0.303 C 
ENDBRANCH  16  17
ENDBRANCH   1  16
TORSDOF 8
ENDMDL
MODEL 5
REMARK VINA RESULT:      -6.3      2.050      2.316
REMARK  8 active torsions:
REMARK  status: ('A' for Active; 'I' for Inactive)
REMARK    1  A    between atoms: N2_5  and  C4_6 
REMARK    2  A    between atoms: C4_6  and  C5_7 
REMARK    3  A    between atoms: C8_10  and  N3_11 
REMARK    4  A    between atoms: N3_11  and  C9_12 
REMARK    5  A    between atoms: C9_12  and  C10_13 
REMARK    6  A    between atoms: C10_13  and  C11_14 
REMARK    7  A    between atoms: C11_14  and  N4_15 
REMARK    8  A    between atoms: N4_15  and  C12_16 
ROOT
HETATM    1  C5  UNL     1      23.596  -0.312  53.857  1.00  0.00    -0.030 A 
HETATM    2  C6  UNL     1      22.992  -1.118  54.800  1.00  0.00     0.011 A 
HETATM    3  C7  UNL     1      21.639  -1.391  54.824  1.00  0.00     0.029 A 
HETATM    4  C8  UNL     1      20.825  -0.829  53.853  1.00  0.00     0.027 A 
HETATM    5  C13 UNL     1      21.405  -0.019  52.898  1.00  0.00     0.029 A 
HETATM    6  C14 UNL     1      22.777   0.256  52.875  1.00  0.00     0.011 A 
ENDROOT
BRANCH   4   7
HETATM    7  N3  UNL     1      19.425  -1.083  53.839  1.00  0.00    -0.390 N 
HETATM    8  H12 UNL     1      19.003  -1.611  54.634  1.00  0.00     0.159 HD
BRANCH   7   9
HETATM    9  C9  UNL     1      18.545  -0.658  52.795  1.00  0.00     0.121 C 
BRANCH   9  10
HETATM   10  C10 UNL     1      17.156  -1.250  52.928  1.00  0.00     0.050 C 
BRANCH  10  11
HETATM   11  C11 UNL     1      16.126  -0.243  52.422  1.00  0.00     0.274 C 
BRANCH  11  12
HETATM   12  N4  UNL     1      14.931  -0.258  53.214  1.00  0.00     0.111 N 
HETATM   13  H19 UNL     1      15.228  -0.414  54.206  1.00  0.00     0.319 HD
BRANCH  12  14
HETATM   14  C12 UNL     1      14.287   1.028  53.109  1.00  0.00     0.490 C 
HETATM   15  F1  UNL     1      12.917   0.864  52.958  1.00  0.00    -0.224 F 
ENDBRANCH  12  14
ENDBRANCH  11  12
ENDBRANCH  10  11
ENDBRANCH   9  10
ENDBRANCH   7   9
ENDBRANCH   4   7
BRANCH   1  16
HETATM   16  C4  UNL     1      25.052  -0.018  53.826  1.00  0.00     0.311 C 
BRANCH  16  17
HETATM   17  N2  UNL     1      25.715  -0.382  52.620  1.00  0.00     0.096 N 
HETATM   18  C3  UNL     1      26.755  -1.348  52.723  1.00  0.00     0.303 C 
HETATM   19  C2  UNL     1      28.078  -0.805  53.162  1.00  0.00     0.302 C 
HETATM   20  N1  UNL     1      27.946   0.498  53.747  1.00  0.00     0.087 N 
HETATM   21  C1  UNL     1      29.273   0.927  54.147  1.00  0.00     0.310 C 
HETATM   22  C16 UNL     1      27.385   1.433  52.790  1.00  0.00     0.302 C 
HETATM   23  C15 UNL     1      26.226   0.840  52.024  1.00  0.00     0.303 C 
ENDBRANCH  16  17
ENDBRANCH   1  16
TORSDOF 8
ENDMDL
MODEL 6
REMARK VINA RESULT:      -6.1      2.347      3.105
REMARK  8 active torsions:
REMARK  status: ('A' for Active; 'I' for Inactive)
REMARK    1  A    between atoms: N2_5  and  C4_6 
REMARK    2  A    between atoms: C4_6  and  C5_7 
REMARK    3  A    between atoms: C8_10  and  N3_11 
REMARK    4  A    between atoms: N3_11  and  C9_12 
REMARK    5  A    between atoms: C9_12  and  C10_13 
REMARK    6  A    between atoms: C10_13  and  C11_14 
REMARK    7  A    between atoms: C11_14  and  N4_15 
REMARK    8  A    between atoms: N4_15  and  C12_16 
ROOT
HETATM    1  C5  UNL     1      23.623  -0.368  53.925  1.00  0.00    -0.030 A 
HETATM    2  C6  UNL     1      22.818  -1.128  54.749  1.00  0.00     0.011 A 
HETATM    3  C7  UNL     1      21.438  -1.099  54.715  1.00  0.00     0.029 A 
HETATM    4  C8  UNL     1      20.808  -0.262  53.808  1.00  0.00     0.027 A 
HETATM    5  C13 UNL     1      21.590   0.509  52.972  1.00  0.00     0.029 A 
HETATM    6  C14 UNL     1      22.989   0.477  53.007  1.00  0.00     0.011 A 
ENDROOT
BRANCH   4   7
HETATM    7  N3  UNL     1      19.388  -0.200  53.738  1.00  0.00    -0.390 N 
HETATM    8  H12 UNL     1      18.884   0.478  54.351  1.00  0.00     0.159 HD
BRANCH   7   9
HETATM    9  C9  UNL     1      18.593  -1.015  52.872  1.00  0.00     0.121 C 
BRANCH   9  10
HETATM   10  C10 UNL     1      18.311  -0.347  51.541  1.00  0.00     0.050 C 
BRANCH  10  11
HETATM   11  C11 UNL     1      18.059   1.142  51.765  1.00  0.00     0.274 C 
BRANCH  11  12
HETATM   12  N4  UNL     1      18.973   1.956  51.018  1.00  0.00     0.111 N 
HETATM   13  H19 UNL     1      18.590   2.027  50.046  1.00  0.00     0.319 HD
BRANCH  12  14
HETATM   14  C12 UNL     1      19.016   3.270  51.609  1.00  0.00     0.490 C 
HETATM   15  F1  UNL     1      20.097   3.369  52.474  1.00  0.00    -0.224 F 
ENDBRANCH  12  14
ENDBRANCH  11  12
ENDBRANCH  10  11
ENDBRANCH   9  10
ENDBRANCH   7   9
ENDBRANCH   4   7
BRANCH   1  16
HETATM   16  C4  UNL     1      25.107  -0.399  53.956  1.00  0.00     0.311 C 
BRANCH  16  17
HETATM   17  N2  UNL     1      25.732  -0.656  52.703  1.00  0.00     0.096 N 
HETATM   18  C3  UNL     1      26.780  -1.619  52.691  1.00  0.00     0.303 C 
HETATM   19  C2  UNL     1      28.114  -1.101  53.130  1.00  0.00     0.302 C 
HETATM   20  N1  UNL     1      27.994   0.147  53.825  1.00  0.00     0.087 N 
HETATM   21  C1  UNL     1      29.331   0.554  54.215  1.00  0.00     0.310 C 
HETATM   22  C16 UNL     1      27.396   1.153  52.967  1.00  0.00     0.302 C 
HETATM   23  C15 UNL     1      26.215   0.616  52.194  1.00  0.00     0.303 C 
ENDBRANCH  16  17
ENDBRANCH   1  16
TORSDOF 8
ENDMDL
MODEL 7
REMARK VINA RESULT:      -6.0      6.326      8.480
REMARK  8 active torsions:
REMARK  status: ('A' for Active; 'I' for Inactive)
REMARK    1  A    between atoms: N2_5  and  C4_6 
REMARK    2  A    between atoms: C4_6  and  C5_7 
REMARK    3  A    between atoms: C8_10  and  N3_11 
REMARK    4  A    between atoms: N3_11  and  C9_12 
REMARK    5  A    between atoms: C9_12  and  C10_13 
REMARK    6  A    between atoms: C10_13  and  C11_14 
REMARK    7  A    between atoms: C11_14  and  N4_15 
REMARK    8  A    between atoms: N4_15  and  C12_16 
ROOT
HETATM    1  C5  UNL     1      25.325   2.310  52.083  1.00  0.00    -0.030 A 
HETATM    2  C6  UNL     1      25.421   3.121  50.969  1.00  0.00     0.011 A 
HETATM    3  C7  UNL     1      24.719   4.299  50.813  1.00  0.00     0.029 A 
HETATM    4  C8  UNL     1      23.861   4.705  51.823  1.00  0.00     0.027 A 
HETATM    5  C13 UNL     1      23.747   3.913  52.948  1.00  0.00     0.029 A 
HETATM    6  C14 UNL     1      24.461   2.719  53.104  1.00  0.00     0.011 A 
ENDROOT
BRANCH   4   7
HETATM    7  N3  UNL     1      23.117   5.913  51.705  1.00  0.00    -0.390 N 
HETATM    8  H12 UNL     1      22.534   6.225  52.513  1.00  0.00     0.159 HD
BRANCH   7   9
HETATM    9  C9  UNL     1      23.114   6.740  50.538  1.00  0.00     0.121 C 
BRANCH   9  10
HETATM   10  C10 UNL     1      24.035   7.936  50.670  1.00  0.00     0.050 C 
BRANCH  10  11
HETATM   11  C11 UNL     1      25.283   7.710  49.821  1.00  0.00     0.274 C 
BRANCH  11  12
HETATM   12  N4  UNL     1      26.480   8.064  50.526  1.00  0.00     0.111 N 
HETATM   13  H19 UNL     1      27.045   7.188  50.621  1.00  0.00     0.319 HD
BRANCH  12  14
HETATM   14  C12 UNL     1      27.217   9.022  49.741  1.00  0.00     0.490 C 
HETATM   15  F1  UNL     1      28.360   9.419  50.421  1.00  0.00    -0.224 F 
ENDBRANCH  12  14
ENDBRANCH  11  12
ENDBRANCH  10  11
ENDBRANCH   9  10
ENDBRANCH   7   9
ENDBRANCH   4   7
BRANCH   1  16
HETATM   16  C4  UNL     1      26.082   1.044  52.255  1.00  0.00     0.311 C 
BRANCH  16  17
HETATM   17  N2  UNL     1      25.877   0.384  53.499  1.00  0.00     0.096 N 
HETATM   18  C3  UNL     1      26.743   0.744  54.570  1.00  0.00     0.303 C 
HETATM   19  C2  UNL     1      28.078   0.068  54.553  1.00  0.00     0.302 C 
HETATM   20  N1  UNL     1      28.360  -0.513  53.273  1.00  0.00     0.087 N 
HETATM   21  C1  UNL     1      29.671  -1.127  53.357  1.00  0.00     0.310 C 
HETATM   22  C16 UNL     1      27.361  -1.510  52.935  1.00  0.00     0.302 C 
HETATM   23  C15 UNL     1      25.959  -1.044  53.248  1.00  0.00     0.303 C 
ENDBRANCH  16  17
ENDBRANCH   1  16
TORSDOF 8
ENDMDL
MODEL 8
REMARK VINA RESULT:      -6.0      6.983     10.566
REMARK  8 active torsions:
REMARK  status: ('A' for Active; 'I' for Inactive)
REMARK    1  A    between atoms: N2_5  and  C4_6 
REMARK    2  A    between atoms: C4_6  and  C5_7 
REMARK    3  A    between atoms: C8_10  and  N3_11 
REMARK    4  A    between atoms: N3_11  and  C9_12 
REMARK    5  A    between atoms: C9_12  and  C10_13 
REMARK    6  A    between atoms: C10_13  and  C11_14 
REMARK    7  A    between atoms: C11_14  and  N4_15 
REMARK    8  A    between atoms: N4_15  and  C12_16 
ROOT
HETATM    1  C5  UNL     1      26.080   3.698  50.207  1.00  0.00    -0.030 A 
HETATM    2  C6  UNL     1      27.079   4.065  49.328  1.00  0.00     0.011 A 
HETATM    3  C7  UNL     1      27.115   5.278  48.669  1.00  0.00     0.029 A 
HETATM    4  C8  UNL     1      26.096   6.190  48.892  1.00  0.00     0.027 A 
HETATM    5  C13 UNL     1      25.085   5.848  49.766  1.00  0.00     0.029 A 
HETATM    6  C14 UNL     1      25.051   4.617  50.433  1.00  0.00     0.011 A 
ENDROOT
BRANCH   4   7
HETATM    7  N3  UNL     1      26.092   7.453  48.234  1.00  0.00    -0.390 N 
HETATM    8  H12 UNL     1      26.140   7.476  47.192  1.00  0.00     0.159 HD
BRANCH   7   9
HETATM    9  C9  UNL     1      26.025   8.709  48.915  1.00  0.00     0.121 C 
BRANCH   9  10
HETATM   10  C10 UNL     1      27.152   8.893  49.911  1.00  0.00     0.050 C 
BRANCH  10  11
HETATM   11  C11 UNL     1      28.470   9.062  49.159  1.00  0.00     0.274 C 
BRANCH  11  12
HETATM   12  N4  UNL     1      29.540   9.434  50.037  1.00  0.00     0.111 N 
HETATM   13  H19 UNL     1      29.533   8.751  50.830  1.00  0.00     0.319 HD
BRANCH  12  14
HETATM   14  C12 UNL     1      30.788   9.319  49.323  1.00  0.00     0.490 C 
HETATM   15  F1  UNL     1      31.615   8.399  49.953  1.00  0.00    -0.224 F 
ENDBRANCH  12  14
ENDBRANCH  11  12
ENDBRANCH  10  11
ENDBRANCH   9  10
ENDBRANCH   7   9
ENDBRANCH   4   7
BRANCH   1  16
HETATM   16  C4  UNL     1      26.040   2.395  50.919  1.00  0.00     0.311 C 
BRANCH  16  17
HETATM   17  N2  UNL     1      26.278   2.466  52.322  1.00  0.00     0.096 N 
HETATM   18  C3  UNL     1      27.536   1.991  52.786  1.00  0.00     0.303 C 
HETATM   19  C2  UNL     1      27.625   0.507  52.955  1.00  0.00     0.302 C 
HETATM   20  N1  UNL     1      26.564  -0.167  52.266  1.00  0.00     0.087 N 
HETATM   21  C1  UNL     1      26.746  -1.590  52.480  1.00  0.00     0.310 C 
HETATM   22  C16 UNL     1      25.273   0.255  52.778  1.00  0.00     0.302 C 
HETATM   23  C15 UNL     1      25.198   1.750  52.978  1.00  0.00     0.303 C 
ENDBRANCH  16  17
ENDBRANCH   1  16
TORSDOF 8
ENDMDL
MODEL 9
REMARK VINA RESULT:      -5.9      1.681      2.207
REMARK  8 active torsions:
REMARK  status: ('A' for Active; 'I' for Inactive)
REMARK    1  A    between atoms: N2_5  and  C4_6 
REMARK    2  A    between atoms: C4_6  and  C5_7 
REMARK    3  A    between atoms: C8_10  and  N3_11 
REMARK    4  A    between atoms: N3_11  and  C9_12 
REMARK    5  A    between atoms: C9_12  and  C10_13 
REMARK    6  A    between atoms: C10_13  and  C11_14 
REMARK    7  A    between atoms: C11_14  and  N4_15 
REMARK    8  A    between atoms: N4_15  and  C12_16 
ROOT
HETATM    1  C5  UNL     1      23.595  -0.408  53.507  1.00  0.00    -0.030 A 
HETATM    2  C6  UNL     1      22.730   0.199  52.618  1.00  0.00     0.011 A 
HETATM    3  C7  UNL     1      21.356   0.181  52.750  1.00  0.00     0.029 A 
HETATM    4  C8  UNL     1      20.795  -0.482  53.830  1.00  0.00     0.027 A 
HETATM    5  C13 UNL     1      21.638  -1.098  54.733  1.00  0.00     0.029 A 
HETATM    6  C14 UNL     1      23.031  -1.078  54.598  1.00  0.00     0.011 A 
ENDROOT
BRANCH   4   7
HETATM    7  N3  UNL     1      19.384  -0.526  54.004  1.00  0.00    -0.390 N 
HETATM    8  H12 UNL     1      18.939   0.140  54.674  1.00  0.00     0.159 HD
BRANCH   7   9
HETATM    9  C9  UNL     1      18.520  -1.435  53.315  1.00  0.00     0.121 C 
BRANCH   9  10
HETATM   10  C10 UNL     1      17.726  -0.761  52.214  1.00  0.00     0.050 C 
BRANCH  10  11
HETATM   11  C11 UNL     1      16.272  -0.615  52.654  1.00  0.00     0.274 C 
BRANCH  11  12
HETATM   12  N4  UNL     1      15.681  -1.881  52.973  1.00  0.00     0.111 N 
HETATM   13  H19 UNL     1      14.920  -1.694  53.666  1.00  0.00     0.319 HD
BRANCH  12  14
HETATM   14  C12 UNL     1      15.106  -2.441  51.775  1.00  0.00     0.490 C 
HETATM   15  F1  UNL     1      14.120  -1.600  51.280  1.00  0.00    -0.224 F 
ENDBRANCH  12  14
ENDBRANCH  11  12
ENDBRANCH  10  11
ENDBRANCH   9  10
ENDBRANCH   7   9
ENDBRANCH   4   7
BRANCH   1  16
HETATM   16  C4  UNL     1      25.073  -0.388  53.370  1.00  0.00     0.311 C 
BRANCH  16  17
HETATM   17  N2  UNL     1      25.678   0.888  53.550  1.00  0.00     0.096 N 
HETATM   18  C3  UNL     1      26.559   1.334  52.525  1.00  0.00     0.303 C 
HETATM   19  C2  UNL     1      27.947   0.783  52.605  1.00  0.00     0.302 C 
HETATM   20  N1  UNL     1      28.013  -0.363  53.465  1.00  0.00     0.087 N 
HETATM   21  C1  UNL     1      29.388  -0.825  53.464  1.00  0.00     0.310 C 
HETATM   22  C16 UNL     1      27.604  -0.012  54.812  1.00  0.00     0.302 C 
HETATM   23  C15 UNL     1      26.371   0.860  54.827  1.00  0.00     0.303 C 
ENDBRANCH  16  17
ENDBRANCH   1  16
TORSDOF 8
ENDMDL
