MODEL 1
REMARK VINA RESULT:      -7.3      0.000      0.000
REMARK  8 active torsions:
REMARK  status: ('A' for Active; 'I' for Inactive)
REMARK    1  A    between atoms: O1_2  and  C2_3 
REMARK    2  A    between atoms: C2_3  and  C7_9 
REMARK    3  A    between atoms: C3_4  and  C4_5 
REMARK    4  A    between atoms: C5_6  and  N1_8 
REMARK    5  A    between atoms: C7_9  and  N2_10 
REMARK    6  A    between atoms: N2_10  and  C8_11 
REMARK    7  A    between atoms: C11_15  and  O2_16 
REMARK    8  A    between atoms: O2_16  and  C12_17 
ROOT
HETATM    1  C8  UNL     1      24.016  -0.915  54.701  1.00  0.00     0.724 A 
HETATM    2  N3  UNL     1      23.095  -1.591  55.406  1.00  0.00    -0.075 NA
HETATM    3  C9  UNL     1      21.809  -1.633  54.999  1.00  0.00     0.141 A 
HETATM    4  C10 UNL     1      21.446  -0.973  53.844  1.00  0.00     0.079 A 
HETATM    5  C11 UNL     1      22.418  -0.288  53.147  1.00  0.00     0.190 A 
HETATM    6  N5  UNL     1      23.681  -0.277  53.593  1.00  0.00    -0.038 NA
ENDROOT
BRANCH   1   7
HETATM    7  N2  UNL     1      25.374  -0.891  55.174  1.00  0.00    -0.216 N 
HETATM    8  H13 UNL     1      25.714  -1.712  55.760  1.00  0.00     0.178 HD
BRANCH   7   9
HETATM    9  C7  UNL     1      26.278   0.210  54.873  1.00  0.00     0.202 C 
BRANCH   9  10
HETATM   10  C2  UNL     1      27.345  -0.158  53.962  1.00  0.00     0.064 C 
HETATM   11  C3  UNL     1      27.712   0.047  52.718  1.00  0.00     0.035 C 
BRANCH  10  12
HETATM   12  O1  UNL     1      28.445  -0.938  54.144  1.00  0.00    -0.359 OA
HETATM   13  C1  UNL     1      29.746  -0.730  53.692  1.00  0.00     0.209 C 
ENDBRANCH  10  12
BRANCH  11  14
HETATM   14  C4  UNL     1      26.682   0.926  52.132  1.00  0.00     0.021 C 
HETATM   15  C5  UNL     1      26.223   2.100  51.663  1.00  0.00    -0.021 C 
HETATM   16  C6  UNL     1      25.299   3.120  51.077  1.00  0.00     0.061 C 
BRANCH  15  17
HETATM   17  N1  UNL     1      27.501   2.665  51.946  1.00  0.00    -0.306 NA
HETATM   18  H9  UNL     1      28.434   3.035  51.598  1.00  0.00     0.124 HD
HETATM   19  H10 UNL     1      28.424   3.030  51.592  1.00  0.00     0.124 HD
ENDBRANCH  15  17
ENDBRANCH  11  14
ENDBRANCH   9  10
ENDBRANCH   7   9
ENDBRANCH   1   7
BRANCH   5  20
HETATM   20  O2  UNL     1      22.149   0.406  51.977  1.00  0.00    -0.290 OA
BRANCH  20  21
HETATM   21  C12 UNL     1      20.977   1.102  51.830  1.00  0.00     0.095 A 
HETATM   22  C13 UNL     1      19.941   0.605  51.052  1.00  0.00     0.040 A 
HETATM   23  C14 UNL     1      18.759   1.312  50.904  1.00  0.00     0.022 A 
HETATM   24  C15 UNL     1      18.655   2.519  51.558  1.00  0.00     0.116 A 
HETATM   25  N4  UNL     1      19.650   3.017  52.316  1.00  0.00    -0.270 NA
HETATM   26  C16 UNL     1      20.811   2.315  52.456  1.00  0.00     0.153 A 
ENDBRANCH  20  21
ENDBRANCH   5  20
TORSDOF 8
ENDMDL
MODEL 2
REMARK VINA RESULT:      -7.3      2.784      5.767
REMARK  8 active torsions:
REMARK  status: ('A' for Active; 'I' for Inactive)
REMARK    1  A    between atoms: O1_2  and  C2_3 
REMARK    2  A    between atoms: C2_3  and  C7_9 
REMARK    3  A    between atoms: C3_4  and  C4_5 
REMARK    4  A    between atoms: C5_6  and  N1_8 
REMARK    5  A    between atoms: C7_9  and  N2_10 
REMARK    6  A    between atoms: N2_10  and  C8_11 
REMARK    7  A    between atoms: C11_15  and  O2_16 
REMARK    8  A    between atoms: O2_16  and  C12_17 
ROOT
HETATM    1  C8  UNL     1      27.573   1.972  52.887  1.00  0.00     0.724 A 
HETATM    2  N3  UNL     1      28.641   2.178  53.673  1.00  0.00    -0.075 NA
HETATM    3  C9  UNL     1      28.974   1.288  54.631  1.00  0.00     0.141 A 
HETATM    4  C10 UNL     1      28.203   0.157  54.798  1.00  0.00     0.079 A 
HETATM    5  C11 UNL     1      27.113  -0.021  53.972  1.00  0.00     0.190 A 
HETATM    6  N5  UNL     1      26.825   0.893  53.036  1.00  0.00    -0.038 NA
ENDROOT
BRANCH   1   7
HETATM    7  N2  UNL     1      27.251   2.949  51.881  1.00  0.00    -0.216 N 
HETATM    8  H13 UNL     1      27.559   3.955  52.044  1.00  0.00     0.178 HD
BRANCH   7   9
HETATM    9  C7  UNL     1      26.526   2.599  50.668  1.00  0.00     0.202 C 
BRANCH   9  10
HETATM   10  C2  UNL     1      25.649   3.657  50.201  1.00  0.00     0.064 C 
HETATM   11  C3  UNL     1      25.677   4.698  49.400  1.00  0.00     0.035 C 
BRANCH  10  12
HETATM   12  O1  UNL     1      24.349   3.933  50.491  1.00  0.00    -0.359 OA
HETATM   13  C1  UNL     1      23.626   3.620  51.640  1.00  0.00     0.209 C 
ENDBRANCH  10  12
BRANCH  11  14
HETATM   14  C4  UNL     1      27.042   4.741  48.842  1.00  0.00     0.021 C 
HETATM   15  C5  UNL     1      28.201   5.351  48.534  1.00  0.00    -0.021 C 
HETATM   16  C6  UNL     1      29.588   5.565  48.016  1.00  0.00     0.061 C 
BRANCH  15  17
HETATM   17  N1  UNL     1      27.674   6.546  49.106  1.00  0.00    -0.306 NA
HETATM   18  H9  UNL     1      26.833   7.131  49.388  1.00  0.00     0.124 HD
HETATM   19  H10 UNL     1      26.834   7.120  49.383  1.00  0.00     0.124 HD
ENDBRANCH  15  17
ENDBRANCH  11  14
ENDBRANCH   9  10
ENDBRANCH   7   9
ENDBRANCH   1   7
BRANCH   5  20
HETATM   20  O2  UNL     1      26.279  -1.125  54.064  1.00  0.00    -0.290 OA
BRANCH  20  21
HETATM   21  C12 UNL     1      24.933  -0.969  54.275  1.00  0.00     0.095 A 
HETATM   22  C13 UNL     1      24.128  -0.342  53.335  1.00  0.00     0.040 A 
HETATM   23  C14 UNL     1      22.770  -0.184  53.552  1.00  0.00     0.022 A 
HETATM   24  C15 UNL     1      22.254  -0.674  54.731  1.00  0.00     0.116 A 
HETATM   25  N4  UNL     1      23.019  -1.285  55.654  1.00  0.00    -0.270 NA
HETATM   26  C16 UNL     1      24.357  -1.436  55.433  1.00  0.00     0.153 A 
ENDBRANCH  20  21
ENDBRANCH   5  20
TORSDOF 8
ENDMDL
MODEL 3
REMARK VINA RESULT:      -7.2      3.587      7.114
REMARK  8 active torsions:
REMARK  status: ('A' for Active; 'I' for Inactive)
REMARK    1  A    between atoms: O1_2  and  C2_3 
REMARK    2  A    between atoms: C2_3  and  C7_9 
REMARK    3  A    between atoms: C3_4  and  C4_5 
REMARK    4  A    between atoms: C5_6  and  N1_8 
REMARK    5  A    between atoms: C7_9  and  N2_10 
REMARK    6  A    between atoms: N2_10  and  C8_11 
REMARK    7  A    between atoms: C11_15  and  O2_16 
REMARK    8  A    between atoms: O2_16  and  C12_17 
ROOT
HETATM    1  C8  UNL     1      25.572   2.639  51.339  1.00  0.00     0.724 A 
HETATM    2  N3  UNL     1      24.288   2.846  51.007  1.00  0.00    -0.075 NA
HETATM    3  C9  UNL     1      23.316   2.038  51.477  1.00  0.00     0.141 A 
HETATM    4  C10 UNL     1      23.652   0.990  52.308  1.00  0.00     0.079 A 
HETATM    5  C11 UNL     1      24.981   0.808  52.626  1.00  0.00     0.190 A 
HETATM    6  N5  UNL     1      25.909   1.638  52.133  1.00  0.00    -0.038 NA
ENDROOT
BRANCH   1   7
HETATM    7  N2  UNL     1      26.578   3.521  50.810  1.00  0.00    -0.216 N 
HETATM    8  H13 UNL     1      27.254   3.976  51.495  1.00  0.00     0.178 HD
BRANCH   7   9
HETATM    9  C7  UNL     1      26.690   3.800  49.386  1.00  0.00     0.202 C 
BRANCH   9  10
HETATM   10  C2  UNL     1      26.473   5.197  49.058  1.00  0.00     0.064 C 
HETATM   11  C3  UNL     1      27.122   6.214  48.539  1.00  0.00     0.035 C 
BRANCH  10  12
HETATM   12  O1  UNL     1      25.379   5.991  49.211  1.00  0.00    -0.359 OA
HETATM   13  C1  UNL     1      24.958   6.688  50.341  1.00  0.00     0.209 C 
ENDBRANCH  10  12
BRANCH  11  14
HETATM   14  C4  UNL     1      28.470   5.709  48.213  1.00  0.00     0.021 C 
HETATM   15  C5  UNL     1      29.814   5.752  48.244  1.00  0.00    -0.021 C 
HETATM   16  C6  UNL     1      31.243   5.379  48.004  1.00  0.00     0.061 C 
BRANCH  15  17
HETATM   17  N1  UNL     1      29.716   6.941  49.024  1.00  0.00    -0.306 NA
HETATM   18  H9  UNL     1      29.298   7.908  49.168  1.00  0.00     0.124 HD
HETATM   19  H10 UNL     1      29.296   7.899  49.160  1.00  0.00     0.124 HD
ENDBRANCH  15  17
ENDBRANCH  11  14
ENDBRANCH   9  10
ENDBRANCH   7   9
ENDBRANCH   1   7
BRANCH   5  20
HETATM   20  O2  UNL     1      25.417  -0.217  53.452  1.00  0.00    -0.290 OA
BRANCH  20  21
HETATM   21  C12 UNL     1      26.755  -0.401  53.693  1.00  0.00     0.095 A 
HETATM   22  C13 UNL     1      27.514  -1.255  52.906  1.00  0.00     0.040 A 
HETATM   23  C14 UNL     1      28.864  -1.439  53.153  1.00  0.00     0.022 A 
HETATM   24  C15 UNL     1      29.418  -0.745  54.204  1.00  0.00     0.116 A 
HETATM   25  N4  UNL     1      28.697   0.087  54.979  1.00  0.00    -0.270 NA
HETATM   26  C16 UNL     1      27.368   0.263  54.729  1.00  0.00     0.153 A 
ENDBRANCH  20  21
ENDBRANCH   5  20
TORSDOF 8
ENDMDL
MODEL 4
REMARK VINA RESULT:      -7.2      3.629      7.015
REMARK  8 active torsions:
REMARK  status: ('A' for Active; 'I' for Inactive)
REMARK    1  A    between atoms: O1_2  and  C2_3 
REMARK    2  A    between atoms: C2_3  and  C7_9 
REMARK    3  A    between atoms: C3_4  and  C4_5 
REMARK    4  A    between atoms: C5_6  and  N1_8 
REMARK    5  A    between atoms: C7_9  and  N2_10 
REMARK    6  A    between atoms: N2_10  and  C8_11 
REMARK    7  A    between atoms: C11_15  and  O2_16 
REMARK    8  A    between atoms: O2_16  and  C12_17 
ROOT
HETATM    1  C8  UNL     1      25.611   2.927  51.438  1.00  0.00     0.724 A 
HETATM    2  N3  UNL     1      24.385   3.456  51.577  1.00  0.00    -0.075 NA
HETATM    3  C9  UNL     1      23.431   2.811  52.278  1.00  0.00     0.141 A 
HETATM    4  C10 UNL     1      23.725   1.594  52.857  1.00  0.00     0.079 A 
HETATM    5  C11 UNL     1      24.994   1.081  52.692  1.00  0.00     0.190 A 
HETATM    6  N5  UNL     1      25.907   1.762  51.986  1.00  0.00    -0.038 NA
ENDROOT
BRANCH   1   7
HETATM    7  N2  UNL     1      26.597   3.646  50.678  1.00  0.00    -0.216 N 
HETATM    8  H13 UNL     1      27.500   3.925  51.167  1.00  0.00     0.178 HD
BRANCH   7   9
HETATM    9  C7  UNL     1      26.391   3.995  49.279  1.00  0.00     0.202 C 
BRANCH   9  10
HETATM   10  C2  UNL     1      27.378   4.929  48.771  1.00  0.00     0.064 C 
HETATM   11  C3  UNL     1      27.498   6.210  48.505  1.00  0.00     0.035 C 
BRANCH  10  12
HETATM   12  O1  UNL     1      28.659   4.737  48.356  1.00  0.00    -0.359 OA
HETATM   13  C1  UNL     1      29.651   5.686  48.117  1.00  0.00     0.209 C 
ENDBRANCH  10  12
BRANCH  11  14
HETATM   14  C4  UNL     1      26.200   6.819  48.854  1.00  0.00     0.021 C 
HETATM   15  C5  UNL     1      25.387   7.574  49.614  1.00  0.00    -0.021 C 
HETATM   16  C6  UNL     1      24.154   8.262  50.106  1.00  0.00     0.061 C 
BRANCH  15  17
HETATM   17  N1  UNL     1      26.502   7.846  50.460  1.00  0.00    -0.306 NA
HETATM   18  H9  UNL     1      27.353   7.497  50.991  1.00  0.00     0.124 HD
HETATM   19  H10 UNL     1      27.345   7.491  50.984  1.00  0.00     0.124 HD
ENDBRANCH  15  17
ENDBRANCH  11  14
ENDBRANCH   9  10
ENDBRANCH   7   9
ENDBRANCH   1   7
BRANCH   5  20
HETATM   20  O2  UNL     1      25.384  -0.134  53.234  1.00  0.00    -0.290 OA
BRANCH  20  21
HETATM   21  C12 UNL     1      26.695  -0.364  53.566  1.00  0.00     0.095 A 
HETATM   22  C13 UNL     1      27.338   0.407  54.523  1.00  0.00     0.040 A 
HETATM   23  C14 UNL     1      28.662   0.173  54.854  1.00  0.00     0.022 A 
HETATM   24  C15 UNL     1      29.309  -0.851  54.199  1.00  0.00     0.116 A 
HETATM   25  N4  UNL     1      28.702  -1.609  53.268  1.00  0.00    -0.270 NA
HETATM   26  C16 UNL     1      27.398  -1.372  52.947  1.00  0.00     0.153 A 
ENDBRANCH  20  21
ENDBRANCH   5  20
TORSDOF 8
ENDMDL
MODEL 5
REMARK VINA RESULT:      -7.0      2.275      7.524
REMARK  8 active torsions:
REMARK  status: ('A' for Active; 'I' for Inactive)
REMARK    1  A    between atoms: O1_2  and  C2_3 
REMARK    2  A    between atoms: C2_3  and  C7_9 
REMARK    3  A    between atoms: C3_4  and  C4_5 
REMARK    4  A    between atoms: C5_6  and  N1_8 
REMARK    5  A    between atoms: C7_9  and  N2_10 
REMARK    6  A    between atoms: N2_10  and  C8_11 
REMARK    7  A    between atoms: C11_15  and  O2_16 
REMARK    8  A    between atoms: O2_16  and  C12_17 
ROOT
HETATM    1  C8  UNL     1      23.960   2.092  52.046  1.00  0.00     0.724 A 
HETATM    2  N3  UNL     1      24.338   2.622  50.872  1.00  0.00    -0.075 NA
HETATM    3  C9  UNL     1      25.642   2.832  50.597  1.00  0.00     0.141 A 
HETATM    4  C10 UNL     1      26.592   2.495  51.538  1.00  0.00     0.079 A 
HETATM    5  C11 UNL     1      26.167   1.953  52.733  1.00  0.00     0.190 A 
HETATM    6  N5  UNL     1      24.860   1.765  52.957  1.00  0.00    -0.038 NA
ENDROOT
BRANCH   1   7
HETATM    7  N2  UNL     1      22.559   1.891  52.299  1.00  0.00    -0.216 N 
HETATM    8  H13 UNL     1      21.984   2.726  52.622  1.00  0.00     0.178 HD
BRANCH   7   9
HETATM    9  C7  UNL     1      21.922   0.593  52.128  1.00  0.00     0.202 C 
BRANCH   9  10
HETATM   10  C2  UNL     1      21.866  -0.183  53.353  1.00  0.00     0.064 C 
HETATM   11  C3  UNL     1      20.986  -0.814  54.097  1.00  0.00     0.035 C 
BRANCH  10  12
HETATM   12  O1  UNL     1      22.844  -0.543  54.228  1.00  0.00    -0.359 OA
HETATM   13  C1  UNL     1      22.768  -1.417  55.310  1.00  0.00     0.209 C 
ENDBRANCH  10  12
BRANCH  11  14
HETATM   14  C4  UNL     1      19.686  -0.640  53.422  1.00  0.00     0.021 C 
HETATM   15  C5  UNL     1      18.427  -1.001  53.117  1.00  0.00    -0.021 C 
HETATM   16  C6  UNL     1      17.061  -0.976  52.509  1.00  0.00     0.061 C 
BRANCH  15  17
HETATM   17  N1  UNL     1      18.600  -2.145  53.949  1.00  0.00    -0.306 NA
HETATM   18  H9  UNL     1      18.185  -2.864  54.614  1.00  0.00     0.124 HD
HETATM   19  H10 UNL     1      18.180  -2.854  54.608  1.00  0.00     0.124 HD
ENDBRANCH  15  17
ENDBRANCH  11  14
ENDBRANCH   9  10
ENDBRANCH   7   9
ENDBRANCH   1   7
BRANCH   5  20
HETATM   20  O2  UNL     1      27.046   1.584  53.740  1.00  0.00    -0.290 OA
BRANCH  20  21
HETATM   21  C12 UNL     1      27.831   0.468  53.609  1.00  0.00     0.095 A 
HETATM   22  C13 UNL     1      29.215   0.553  53.675  1.00  0.00     0.040 A 
HETATM   23  C14 UNL     1      30.005  -0.576  53.540  1.00  0.00     0.022 A 
HETATM   24  C15 UNL     1      29.365  -1.779  53.341  1.00  0.00     0.116 A 
HETATM   25  N4  UNL     1      28.025  -1.880  53.274  1.00  0.00    -0.270 NA
HETATM   26  C16 UNL     1      27.254  -0.764  53.407  1.00  0.00     0.153 A 
ENDBRANCH  20  21
ENDBRANCH   5  20
TORSDOF 8
ENDMDL
MODEL 6
REMARK VINA RESULT:      -7.0      2.467      5.813
REMARK  8 active torsions:
REMARK  status: ('A' for Active; 'I' for Inactive)
REMARK    1  A    between atoms: O1_2  and  C2_3 
REMARK    2  A    between atoms: C2_3  and  C7_9 
REMARK    3  A    between atoms: C3_4  and  C4_5 
REMARK    4  A    between atoms: C5_6  and  N1_8 
REMARK    5  A    between atoms: C7_9  and  N2_10 
REMARK    6  A    between atoms: N2_10  and  C8_11 
REMARK    7  A    between atoms: C11_15  and  O2_16 
REMARK    8  A    between atoms: O2_16  and  C12_17 
ROOT
HETATM    1  C8  UNL     1      27.382   2.073  52.703  1.00  0.00     0.724 A 
HETATM    2  N3  UNL     1      28.548   2.319  53.320  1.00  0.00    -0.075 NA
HETATM    3  C9  UNL     1      29.051   1.447  54.218  1.00  0.00     0.141 A 
HETATM    4  C10 UNL     1      28.354   0.291  54.499  1.00  0.00     0.079 A 
HETATM    5  C11 UNL     1      27.159   0.072  53.847  1.00  0.00     0.190 A 
HETATM    6  N5  UNL     1      26.703   0.970  52.963  1.00  0.00    -0.038 NA
ENDROOT
BRANCH   1   7
HETATM    7  N2  UNL     1      26.880   3.033  51.757  1.00  0.00    -0.216 N 
HETATM    8  H13 UNL     1      26.794   4.047  52.070  1.00  0.00     0.178 HD
BRANCH   7   9
HETATM    9  C7  UNL     1      26.492   2.655  50.405  1.00  0.00     0.202 C 
BRANCH   9  10
HETATM   10  C2  UNL     1      25.844   3.728  49.675  1.00  0.00     0.064 C 
HETATM   11  C3  UNL     1      24.639   4.103  49.311  1.00  0.00     0.035 C 
BRANCH  10  12
HETATM   12  O1  UNL     1      26.357   4.826  49.057  1.00  0.00    -0.359 OA
HETATM   13  C1  UNL     1      27.654   5.041  48.595  1.00  0.00     0.209 C 
ENDBRANCH  10  12
BRANCH  11  14
HETATM   14  C4  UNL     1      23.719   3.078  49.839  1.00  0.00     0.021 C 
HETATM   15  C5  UNL     1      22.749   2.153  49.724  1.00  0.00    -0.021 C 
HETATM   16  C6  UNL     1      21.759   1.095  50.094  1.00  0.00     0.061 C 
BRANCH  15  17
HETATM   17  N1  UNL     1      22.708   2.432  48.327  1.00  0.00    -0.306 NA
HETATM   18  H9  UNL     1      22.520   3.117  47.536  1.00  0.00     0.124 HD
HETATM   19  H10 UNL     1      22.519   3.118  47.549  1.00  0.00     0.124 HD
ENDBRANCH  15  17
ENDBRANCH  11  14
ENDBRANCH   9  10
ENDBRANCH   7   9
ENDBRANCH   1   7
BRANCH   5  20
HETATM   20  O2  UNL     1      26.386  -1.058  54.063  1.00  0.00    -0.290 OA
BRANCH  20  21
HETATM   21  C12 UNL     1      25.034  -0.953  54.266  1.00  0.00     0.095 A 
HETATM   22  C13 UNL     1      24.198  -0.453  53.278  1.00  0.00     0.040 A 
HETATM   23  C14 UNL     1      22.833  -0.347  53.487  1.00  0.00     0.022 A 
HETATM   24  C15 UNL     1      22.343  -0.757  54.706  1.00  0.00     0.116 A 
HETATM   25  N4  UNL     1      23.139  -1.245  55.676  1.00  0.00    -0.270 NA
HETATM   26  C16 UNL     1      24.482  -1.346  55.463  1.00  0.00     0.153 A 
ENDBRANCH  20  21
ENDBRANCH   5  20
TORSDOF 8
ENDMDL
MODEL 7
REMARK VINA RESULT:      -6.9      1.960      7.488
REMARK  8 active torsions:
REMARK  status: ('A' for Active; 'I' for Inactive)
REMARK    1  A    between atoms: O1_2  and  C2_3 
REMARK    2  A    between atoms: C2_3  and  C7_9 
REMARK    3  A    between atoms: C3_4  and  C4_5 
REMARK    4  A    between atoms: C5_6  and  N1_8 
REMARK    5  A    between atoms: C7_9  and  N2_10 
REMARK    6  A    between atoms: N2_10  and  C8_11 
REMARK    7  A    between atoms: C11_15  and  O2_16 
REMARK    8  A    between atoms: O2_16  and  C12_17 
ROOT
HETATM    1  C8  UNL     1      23.685   1.978  51.515  1.00  0.00     0.724 A 
HETATM    2  N3  UNL     1      24.314   2.657  50.543  1.00  0.00    -0.075 NA
HETATM    3  C9  UNL     1      25.651   2.832  50.579  1.00  0.00     0.141 A 
HETATM    4  C10 UNL     1      26.372   2.305  51.630  1.00  0.00     0.079 A 
HETATM    5  C11 UNL     1      25.692   1.615  52.610  1.00  0.00     0.190 A 
HETATM    6  N5  UNL     1      24.363   1.468  52.528  1.00  0.00    -0.038 NA
ENDROOT
BRANCH   1   7
HETATM    7  N2  UNL     1      22.257   1.819  51.440  1.00  0.00    -0.216 N 
HETATM    8  H13 UNL     1      21.656   2.697  51.423  1.00  0.00     0.178 HD
BRANCH   7   9
HETATM    9  C7  UNL     1      21.628   0.507  51.387  1.00  0.00     0.202 C 
BRANCH   9  10
HETATM   10  C2  UNL     1      20.496   0.379  52.287  1.00  0.00     0.064 C 
HETATM   11  C3  UNL     1      20.247   0.087  53.543  1.00  0.00     0.035 C 
BRANCH  10  12
HETATM   12  O1  UNL     1      19.163   0.545  52.075  1.00  0.00    -0.359 OA
HETATM   13  C1  UNL     1      18.124  -0.352  52.310  1.00  0.00     0.209 C 
ENDBRANCH  10  12
BRANCH  11  14
HETATM   14  C4  UNL     1      21.558  -0.179  54.165  1.00  0.00     0.021 C 
HETATM   15  C5  UNL     1      22.445  -0.939  54.833  1.00  0.00    -0.021 C 
HETATM   16  C6  UNL     1      23.710  -1.367  55.506  1.00  0.00     0.061 C 
BRANCH  15  17
HETATM   17  N1  UNL     1      21.459  -1.967  54.885  1.00  0.00    -0.306 NA
HETATM   18  H9  UNL     1      20.700  -2.531  54.401  1.00  0.00     0.124 HD
HETATM   19  H10 UNL     1      20.707  -2.522  54.397  1.00  0.00     0.124 HD
ENDBRANCH  15  17
ENDBRANCH  11  14
ENDBRANCH   9  10
ENDBRANCH   7   9
ENDBRANCH   1   7
BRANCH   5  20
HETATM   20  O2  UNL     1      26.329   1.051  53.705  1.00  0.00    -0.290 OA
BRANCH  20  21
HETATM   21  C12 UNL     1      27.191  -0.004  53.546  1.00  0.00     0.095 A 
HETATM   22  C13 UNL     1      28.551   0.141  53.777  1.00  0.00     0.040 A 
HETATM   23  C14 UNL     1      29.419  -0.926  53.614  1.00  0.00     0.022 A 
HETATM   24  C15 UNL     1      28.879  -2.129  53.217  1.00  0.00     0.116 A 
HETATM   25  N4  UNL     1      27.562  -2.288  52.988  1.00  0.00    -0.270 NA
HETATM   26  C16 UNL     1      26.714  -1.233  53.150  1.00  0.00     0.153 A 
ENDBRANCH  20  21
ENDBRANCH   5  20
TORSDOF 8
ENDMDL
MODEL 8
REMARK VINA RESULT:      -6.8      2.744      5.223
REMARK  8 active torsions:
REMARK  status: ('A' for Active; 'I' for Inactive)
REMARK    1  A    between atoms: O1_2  and  C2_3 
REMARK    2  A    between atoms: C2_3  and  C7_9 
REMARK    3  A    between atoms: C3_4  and  C4_5 
REMARK    4  A    between atoms: C5_6  and  N1_8 
REMARK    5  A    between atoms: C7_9  and  N2_10 
REMARK    6  A    between atoms: N2_10  and  C8_11 
REMARK    7  A    between atoms: C11_15  and  O2_16 
REMARK    8  A    between atoms: O2_16  and  C12_17 
ROOT
HETATM    1  C8  UNL     1      26.851   1.992  52.310  1.00  0.00     0.724 A 
HETATM    2  N3  UNL     1      27.752   1.840  53.293  1.00  0.00    -0.075 NA
HETATM    3  C9  UNL     1      27.641   0.831  54.181  1.00  0.00     0.141 A 
HETATM    4  C10 UNL     1      26.586  -0.051  54.071  1.00  0.00     0.079 A 
HETATM    5  C11 UNL     1      25.679   0.137  53.049  1.00  0.00     0.190 A 
HETATM    6  N5  UNL     1      25.835   1.155  52.193  1.00  0.00    -0.038 NA
ENDROOT
BRANCH   1   7
HETATM    7  N2  UNL     1      27.005   3.085  51.388  1.00  0.00    -0.216 N 
HETATM    8  H13 UNL     1      27.558   3.936  51.709  1.00  0.00     0.178 HD
BRANCH   7   9
HETATM    9  C7  UNL     1      26.432   3.054  50.050  1.00  0.00     0.202 C 
BRANCH   9  10
HETATM   10  C2  UNL     1      26.261   4.373  49.470  1.00  0.00     0.064 C 
HETATM   11  C3  UNL     1      25.401   5.366  49.481  1.00  0.00     0.035 C 
BRANCH  10  12
HETATM   12  O1  UNL     1      27.049   5.082  48.617  1.00  0.00    -0.359 OA
HETATM   13  C1  UNL     1      27.290   6.454  48.589  1.00  0.00     0.209 C 
ENDBRANCH  10  12
BRANCH  11  14
HETATM   14  C4  UNL     1      24.306   4.943  50.374  1.00  0.00     0.021 C 
HETATM   15  C5  UNL     1      23.508   5.071  51.449  1.00  0.00    -0.021 C 
HETATM   16  C6  UNL     1      22.434   4.785  52.450  1.00  0.00     0.061 C 
BRANCH  15  17
HETATM   17  N1  UNL     1      24.207   6.271  51.771  1.00  0.00    -0.306 NA
HETATM   18  H9  UNL     1      24.368   7.308  51.606  1.00  0.00     0.124 HD
HETATM   19  H10 UNL     1      24.360   7.300  51.601  1.00  0.00     0.124 HD
ENDBRANCH  15  17
ENDBRANCH  11  14
ENDBRANCH   9  10
ENDBRANCH   7   9
ENDBRANCH   1   7
BRANCH   5  20
HETATM   20  O2  UNL     1      24.587  -0.696  52.858  1.00  0.00    -0.290 OA
BRANCH  20  21
HETATM   21  C12 UNL     1      23.352  -0.352  53.343  1.00  0.00     0.095 A 
HETATM   22  C13 UNL     1      22.813  -0.991  54.450  1.00  0.00     0.040 A 
HETATM   23  C14 UNL     1      21.564  -0.643  54.936  1.00  0.00     0.022 A 
HETATM   24  C15 UNL     1      20.884   0.359  54.281  1.00  0.00     0.116 A 
HETATM   25  N4  UNL     1      21.391   0.990  53.205  1.00  0.00    -0.270 NA
HETATM   26  C16 UNL     1      22.621   0.641  52.732  1.00  0.00     0.153 A 
ENDBRANCH  20  21
ENDBRANCH   5  20
TORSDOF 8
ENDMDL
MODEL 9
REMARK VINA RESULT:      -6.8      1.861      4.705
REMARK  8 active torsions:
REMARK  status: ('A' for Active; 'I' for Inactive)
REMARK    1  A    between atoms: O1_2  and  C2_3 
REMARK    2  A    between atoms: C2_3  and  C7_9 
REMARK    3  A    between atoms: C3_4  and  C4_5 
REMARK    4  A    between atoms: C5_6  and  N1_8 
REMARK    5  A    between atoms: C7_9  and  N2_10 
REMARK    6  A    between atoms: N2_10  and  C8_11 
REMARK    7  A    between atoms: C11_15  and  O2_16 
REMARK    8  A    between atoms: O2_16  and  C12_17 
ROOT
HETATM    1  C8  UNL     1      26.047   2.606  51.597  1.00  0.00     0.724 A 
HETATM    2  N3  UNL     1      26.994   2.986  50.726  1.00  0.00    -0.075 NA
HETATM    3  C9  UNL     1      26.679   3.733  49.647  1.00  0.00     0.141 A 
HETATM    4  C10 UNL     1      25.367   4.106  49.446  1.00  0.00     0.079 A 
HETATM    5  C11 UNL     1      24.421   3.696  50.361  1.00  0.00     0.190 A 
HETATM    6  N5  UNL     1      24.786   2.955  51.416  1.00  0.00    -0.038 NA
ENDROOT
BRANCH   1   7
HETATM    7  N2  UNL     1      26.427   1.805  52.731  1.00  0.00    -0.216 N 
HETATM    8  H13 UNL     1      26.972   2.275  53.514  1.00  0.00     0.178 HD
BRANCH   7   9
HETATM    9  C7  UNL     1      26.087   0.393  52.827  1.00  0.00     0.202 C 
BRANCH   9  10
HETATM   10  C2  UNL     1      26.196  -0.131  54.176  1.00  0.00     0.064 C 
HETATM   11  C3  UNL     1      25.439  -0.682  55.098  1.00  0.00     0.035 C 
BRANCH  10  12
HETATM   12  O1  UNL     1      27.263  -0.224  55.015  1.00  0.00    -0.359 OA
HETATM   13  C1  UNL     1      28.606   0.033  54.750  1.00  0.00     0.209 C 
ENDBRANCH  10  12
BRANCH  11  14
HETATM   14  C4  UNL     1      24.086  -0.761  54.517  1.00  0.00     0.021 C 
HETATM   15  C5  UNL     1      22.792  -1.129  54.518  1.00  0.00    -0.021 C 
HETATM   16  C6  UNL     1      21.374  -1.299  54.073  1.00  0.00     0.061 C 
BRANCH  15  17
HETATM   17  N1  UNL     1      23.009  -1.732  55.791  1.00  0.00    -0.306 NA
HETATM   18  H9  UNL     1      22.714  -1.862  56.803  1.00  0.00     0.124 HD
HETATM   19  H10 UNL     1      22.710  -1.855  56.794  1.00  0.00     0.124 HD
ENDBRANCH  15  17
ENDBRANCH  11  14
ENDBRANCH   9  10
ENDBRANCH   7   9
ENDBRANCH   1   7
BRANCH   5  20
HETATM   20  O2  UNL     1      23.078   4.020  50.244  1.00  0.00    -0.290 OA
BRANCH  20  21
HETATM   21  C12 UNL     1      22.128   3.037  50.135  1.00  0.00     0.095 A 
HETATM   22  C13 UNL     1      22.194   2.085  49.128  1.00  0.00     0.040 A 
HETATM   23  C14 UNL     1      21.233   1.095  49.020  1.00  0.00     0.022 A 
HETATM   24  C15 UNL     1      20.215   1.093  49.947  1.00  0.00     0.116 A 
HETATM   25  N4  UNL     1      20.134   2.009  50.930  1.00  0.00    -0.270 NA
HETATM   26  C16 UNL     1      21.085   2.981  51.030  1.00  0.00     0.153 A 
ENDBRANCH  20  21
ENDBRANCH   5  20
TORSDOF 8
ENDMDL
