MODEL 1
REMARK VINA RESULT:      -7.3      0.000      0.000
REMARK  8 active torsions:
REMARK  status: ('A' for Active; 'I' for Inactive)
REMARK    1  A    between atoms: C3_3  and  C4_4 
REMARK    2  A    between atoms: C3_3  and  N1_7 
REMARK    3  A    between atoms: C4_4  and  C5_5 
REMARK    4  A    between atoms: N1_7  and  C6_8 
REMARK    5  A    between atoms: C6_8  and  C7_9 
REMARK    6  A    between atoms: C7_9  and  C8_10 
REMARK    7  A    between atoms: C13_17  and  N4_18 
REMARK    8  A    between atoms: N4_18  and  C14_19 
ROOT
HETATM    1  C1  UNL     1      27.257  -2.503  52.334  1.00  0.00     0.038 C 
HETATM    2  C2  UNL     1      27.409  -1.138  53.004  1.00  0.00    -0.006 C 
HETATM    3  C3  UNL     1      27.650  -0.071  53.583  1.00  0.00     0.007 C 
ENDROOT
BRANCH   3   4
HETATM    4  C4  UNL     1      28.873   0.258  54.284  1.00  0.00     0.125 C 
BRANCH   4   5
HETATM    5  C5  UNL     1      29.135   1.716  54.302  1.00  0.00     0.237 C 
HETATM    6  O1  UNL     1      28.492   2.747  54.060  1.00  0.00    -0.306 OA
ENDBRANCH   4   5
ENDBRANCH   3   4
BRANCH   3   7
HETATM    7  N1  UNL     1      26.489   0.458  53.087  1.00  0.00    -0.390 N 
HETATM    8  H8  UNL     1      26.119   0.337  54.107  1.00  0.00     0.159 HD
BRANCH   7   9
HETATM    9  C6  UNL     1      25.222   1.039  52.523  1.00  0.00     0.147 C 
BRANCH   9  10
HETATM   10  C7  UNL     1      24.165   0.315  53.291  1.00  0.00     0.004 C 
BRANCH  10  11
HETATM   11  C8  UNL     1      23.311  -0.321  54.082  1.00  0.00    -0.012 C 
HETATM   12  C9  UNL     1      22.598  -1.259  54.950  1.00  0.00     0.189 C 
HETATM   13  N2  UNL     1      21.343  -1.592  54.761  1.00  0.00    -0.295 NA
HETATM   14  C10 UNL     1      20.393  -1.321  54.074  1.00  0.00     0.134 C 
HETATM   15  C11 UNL     1      20.855  -0.301  53.198  1.00  0.00     0.075 C 
HETATM   16  C12 UNL     1      19.825   0.085  52.145  1.00  0.00     0.023 C 
HETATM   17  C13 UNL     1      22.180   0.269  53.133  1.00  0.00     0.061 C 
HETATM   18  N3  UNL     1      19.009   0.394  51.280  1.00  0.00    -0.096 N 
BRANCH  17  19
HETATM   19  N4  UNL     1      22.084   1.297  52.162  1.00  0.00    -0.354 N 
HETATM   20  H15 UNL     1      21.825   2.001  52.887  1.00  0.00     0.166 HD
BRANCH  19  21
HETATM   21  C14 UNL     1      22.161   1.564  50.833  1.00  0.00     0.033 A 
HETATM   22  C15 UNL     1      22.210   1.565  49.549  1.00  0.00     0.029 A 
HETATM   23  C16 UNL     1      22.376   1.946  48.307  1.00  0.00     0.004 A 
HETATM   24  C17 UNL     1      22.729   3.145  48.656  1.00  0.00     0.019 A 
HETATM   25  C18 UNL     1      22.968   4.042  49.751  1.00  0.00     0.013 A 
HETATM   26 BR1  UNL     1      23.487   5.846  49.915  1.00  0.00    -0.051 Br
HETATM   27  C19 UNL     1      22.634   3.093  50.827  1.00  0.00     0.048 A 
ENDBRANCH  19  21
ENDBRANCH  17  19
ENDBRANCH  10  11
ENDBRANCH   9  10
ENDBRANCH   7   9
ENDBRANCH   3   7
TORSDOF 8
ENDMDL
MODEL 2
REMARK VINA RESULT:      -7.0      3.065      6.407
REMARK  8 active torsions:
REMARK  status: ('A' for Active; 'I' for Inactive)
REMARK    1  A    between atoms: C3_3  and  C4_4 
REMARK    2  A    between atoms: C3_3  and  N1_7 
REMARK    3  A    between atoms: C4_4  and  C5_5 
REMARK    4  A    between atoms: N1_7  and  C6_8 
REMARK    5  A    between atoms: C6_8  and  C7_9 
REMARK    6  A    between atoms: C7_9  and  C8_10 
REMARK    7  A    between atoms: C13_17  and  N4_18 
REMARK    8  A    between atoms: N4_18  and  C14_19 
ROOT
HETATM    1  C1  UNL     1      23.021   6.409  50.307  1.00  0.00     0.038 C 
HETATM    2  C2  UNL     1      24.200   5.437  50.295  1.00  0.00    -0.006 C 
HETATM    3  C3  UNL     1      25.207   4.725  50.192  1.00  0.00     0.007 C 
ENDROOT
BRANCH   3   4
HETATM    4  C4  UNL     1      26.318   4.948  49.291  1.00  0.00     0.125 C 
BRANCH   4   5
HETATM    5  C5  UNL     1      26.414   6.362  48.859  1.00  0.00     0.237 C 
HETATM    6  O1  UNL     1      27.089   7.353  49.171  1.00  0.00    -0.306 OA
ENDBRANCH   4   5
ENDBRANCH   3   4
BRANCH   3   7
HETATM    7  N1  UNL     1      24.796   3.994  51.274  1.00  0.00    -0.390 N 
HETATM    8  H8  UNL     1      24.170   4.861  51.493  1.00  0.00     0.159 HD
BRANCH   7   9
HETATM    9  C6  UNL     1      24.357   3.175  52.456  1.00  0.00     0.147 C 
BRANCH   9  10
HETATM   10  C7  UNL     1      25.657   2.723  53.036  1.00  0.00     0.004 C 
BRANCH  10  11
HETATM   11  C8  UNL     1      26.873   2.387  53.447  1.00  0.00    -0.012 C 
HETATM   12  C9  UNL     1      28.305   2.280  53.727  1.00  0.00     0.189 C 
HETATM   13  N2  UNL     1      28.978   1.163  53.584  1.00  0.00    -0.295 NA
HETATM   14  C10 UNL     1      28.819  -0.003  53.333  1.00  0.00     0.134 C 
HETATM   15  C11 UNL     1      27.419  -0.146  53.133  1.00  0.00     0.075 C 
HETATM   16  C12 UNL     1      27.028  -1.541  52.666  1.00  0.00     0.023 C 
HETATM   17  C13 UNL     1      26.412   0.886  53.195  1.00  0.00     0.061 C 
HETATM   18  N3  UNL     1      26.702  -2.659  52.272  1.00  0.00    -0.096 N 
BRANCH  17  19
HETATM   19  N4  UNL     1      25.183   0.204  53.012  1.00  0.00    -0.354 N 
HETATM   20  H15 UNL     1      25.314   0.178  51.979  1.00  0.00     0.166 HD
BRANCH  19  21
HETATM   21  C14 UNL     1      24.086  -0.276  53.654  1.00  0.00     0.033 A 
HETATM   22  C15 UNL     1      23.218  -0.844  54.411  1.00  0.00     0.029 A 
HETATM   23  C16 UNL     1      22.087  -1.301  54.890  1.00  0.00     0.004 A 
HETATM   24  C17 UNL     1      21.406  -0.846  53.883  1.00  0.00     0.019 A 
HETATM   25  C18 UNL     1      21.459  -0.142  52.633  1.00  0.00     0.013 A 
HETATM   26 BR1  UNL     1      20.193   0.402  51.349  1.00  0.00    -0.051 Br
HETATM   27  C19 UNL     1      22.912   0.099  52.634  1.00  0.00     0.048 A 
ENDBRANCH  19  21
ENDBRANCH  17  19
ENDBRANCH  10  11
ENDBRANCH   9  10
ENDBRANCH   7   9
ENDBRANCH   3   7
TORSDOF 8
ENDMDL
MODEL 3
REMARK VINA RESULT:      -7.0      2.894      5.865
REMARK  8 active torsions:
REMARK  status: ('A' for Active; 'I' for Inactive)
REMARK    1  A    between atoms: C3_3  and  C4_4 
REMARK    2  A    between atoms: C3_3  and  N1_7 
REMARK    3  A    between atoms: C4_4  and  C5_5 
REMARK    4  A    between atoms: N1_7  and  C6_8 
REMARK    5  A    between atoms: C6_8  and  C7_9 
REMARK    6  A    between atoms: C7_9  and  C8_10 
REMARK    7  A    between atoms: C13_17  and  N4_18 
REMARK    8  A    between atoms: N4_18  and  C14_19 
ROOT
HETATM    1  C1  UNL     1      22.621   4.908  49.151  1.00  0.00     0.038 C 
HETATM    2  C2  UNL     1      24.146   4.917  49.254  1.00  0.00    -0.006 C 
HETATM    3  C3  UNL     1      25.378   5.030  49.262  1.00  0.00     0.007 C 
ENDROOT
BRANCH   3   4
HETATM    4  C4  UNL     1      26.142   6.057  48.585  1.00  0.00     0.125 C 
BRANCH   4   5
HETATM    5  C5  UNL     1      27.585   5.727  48.514  1.00  0.00     0.237 C 
HETATM    6  O1  UNL     1      28.273   4.698  48.532  1.00  0.00    -0.306 OA
ENDBRANCH   4   5
ENDBRANCH   3   4
BRANCH   3   7
HETATM    7  N1  UNL     1      25.461   4.027  50.190  1.00  0.00    -0.390 N 
HETATM    8  H8  UNL     1      25.006   3.410  49.412  1.00  0.00     0.159 HD
BRANCH   7   9
HETATM    9  C6  UNL     1      25.560   2.939  51.222  1.00  0.00     0.147 C 
BRANCH   9  10
HETATM   10  C7  UNL     1      24.232   2.266  51.111  1.00  0.00     0.004 C 
BRANCH  10  11
HETATM   11  C8  UNL     1      23.033   1.740  50.897  1.00  0.00    -0.012 C 
HETATM   12  C9  UNL     1      21.624   1.473  50.605  1.00  0.00     0.189 C 
HETATM   13  N2  UNL     1      20.864   0.733  51.377  1.00  0.00    -0.295 NA
HETATM   14  C10 UNL     1      20.918   0.030  52.351  1.00  0.00     0.134 C 
HETATM   15  C11 UNL     1      22.284   0.058  52.745  1.00  0.00     0.075 C 
HETATM   16  C12 UNL     1      22.535  -0.673  54.057  1.00  0.00     0.023 C 
HETATM   17  C13 UNL     1      23.364   0.788  52.126  1.00  0.00     0.061 C 
HETATM   18  N3  UNL     1      22.748  -1.246  55.124  1.00  0.00    -0.096 N 
BRANCH  17  19
HETATM   19  N4  UNL     1      24.522   0.402  52.846  1.00  0.00    -0.354 N 
HETATM   20  H15 UNL     1      24.316   1.084  53.606  1.00  0.00     0.166 HD
BRANCH  19  21
HETATM   21  C14 UNL     1      25.622  -0.394  52.812  1.00  0.00     0.033 A 
HETATM   22  C15 UNL     1      26.496  -1.332  52.736  1.00  0.00     0.029 A 
HETATM   23  C16 UNL     1      27.623  -1.997  52.807  1.00  0.00     0.004 A 
HETATM   24  C17 UNL     1      28.269  -0.976  53.278  1.00  0.00     0.019 A 
HETATM   25  C18 UNL     1      28.186   0.398  53.687  1.00  0.00     0.013 A 
HETATM   26 BR1  UNL     1      29.403   1.674  54.348  1.00  0.00    -0.051 Br
HETATM   27  C19 UNL     1      26.754   0.578  53.392  1.00  0.00     0.048 A 
ENDBRANCH  19  21
ENDBRANCH  17  19
ENDBRANCH  10  11
ENDBRANCH   9  10
ENDBRANCH   7   9
ENDBRANCH   3   7
TORSDOF 8
ENDMDL
MODEL 4
REMARK VINA RESULT:      -6.9      3.280      5.969
REMARK  8 active torsions:
REMARK  status: ('A' for Active; 'I' for Inactive)
REMARK    1  A    between atoms: C3_3  and  C4_4 
REMARK    2  A    between atoms: C3_3  and  N1_7 
REMARK    3  A    between atoms: C4_4  and  C5_5 
REMARK    4  A    between atoms: N1_7  and  C6_8 
REMARK    5  A    between atoms: C6_8  and  C7_9 
REMARK    6  A    between atoms: C7_9  and  C8_10 
REMARK    7  A    between atoms: C13_17  and  N4_18 
REMARK    8  A    between atoms: N4_18  and  C14_19 
ROOT
HETATM    1  C1  UNL     1      23.866   5.915  51.315  1.00  0.00     0.038 C 
HETATM    2  C2  UNL     1      24.985   5.535  50.345  1.00  0.00    -0.006 C 
HETATM    3  C3  UNL     1      25.911   5.355  49.544  1.00  0.00     0.007 C 
ENDROOT
BRANCH   3   4
HETATM    4  C4  UNL     1      26.682   6.391  48.889  1.00  0.00     0.125 C 
BRANCH   4   5
HETATM    5  C5  UNL     1      27.965   5.880  48.353  1.00  0.00     0.237 C 
HETATM    6  O1  UNL     1      28.606   4.822  48.414  1.00  0.00    -0.306 OA
ENDBRANCH   4   5
ENDBRANCH   3   4
BRANCH   3   7
HETATM    7  N1  UNL     1      25.861   4.010  49.794  1.00  0.00    -0.390 N 
HETATM    8  H8  UNL     1      26.501   3.927  48.914  1.00  0.00     0.159 HD
BRANCH   7   9
HETATM    9  C6  UNL     1      25.794   2.537  50.086  1.00  0.00     0.147 C 
BRANCH   9  10
HETATM   10  C7  UNL     1      26.571   2.423  51.356  1.00  0.00     0.004 C 
BRANCH  10  11
HETATM   11  C8  UNL     1      27.372   2.294  52.406  1.00  0.00    -0.012 C 
HETATM   12  C9  UNL     1      28.488   2.118  53.335  1.00  0.00     0.189 C 
HETATM   13  N2  UNL     1      28.455   1.271  54.337  1.00  0.00    -0.295 NA
HETATM   14  C10 UNL     1      27.709   0.517  54.904  1.00  0.00     0.134 C 
HETATM   15  C11 UNL     1      26.477   0.626  54.202  1.00  0.00     0.075 C 
HETATM   16  C12 UNL     1      25.430  -0.366  54.690  1.00  0.00     0.023 C 
HETATM   17  C13 UNL     1      26.191   1.445  53.049  1.00  0.00     0.061 C 
HETATM   18  N3  UNL     1      24.581  -1.173  55.063  1.00  0.00    -0.096 N 
BRANCH  17  19
HETATM   19  N4  UNL     1      24.808   1.255  52.803  1.00  0.00    -0.354 N 
HETATM   20  H15 UNL     1      24.927   0.220  52.754  1.00  0.00     0.166 HD
BRANCH  19  21
HETATM   21  C14 UNL     1      23.630   1.898  52.600  1.00  0.00     0.033 A 
HETATM   22  C15 UNL     1      22.660   2.715  52.394  1.00  0.00     0.029 A 
HETATM   23  C16 UNL     1      21.457   3.223  52.289  1.00  0.00     0.004 A 
HETATM   24  C17 UNL     1      20.888   2.109  52.635  1.00  0.00     0.019 A 
HETATM   25  C18 UNL     1      21.091   0.745  53.035  1.00  0.00     0.013 A 
HETATM   26 BR1  UNL     1      19.968  -0.702  53.473  1.00  0.00    -0.051 Br
HETATM   27  C19 UNL     1      22.563   0.766  52.976  1.00  0.00     0.048 A 
ENDBRANCH  19  21
ENDBRANCH  17  19
ENDBRANCH  10  11
ENDBRANCH   9  10
ENDBRANCH   7   9
ENDBRANCH   3   7
TORSDOF 8
ENDMDL
MODEL 5
REMARK VINA RESULT:      -6.8      3.341      6.400
REMARK  8 active torsions:
REMARK  status: ('A' for Active; 'I' for Inactive)
REMARK    1  A    between atoms: C3_3  and  C4_4 
REMARK    2  A    between atoms: C3_3  and  N1_7 
REMARK    3  A    between atoms: C4_4  and  C5_5 
REMARK    4  A    between atoms: N1_7  and  C6_8 
REMARK    5  A    between atoms: C6_8  and  C7_9 
REMARK    6  A    between atoms: C7_9  and  C8_10 
REMARK    7  A    between atoms: C13_17  and  N4_18 
REMARK    8  A    between atoms: N4_18  and  C14_19 
ROOT
HETATM    1  C1  UNL     1      17.851   0.091  50.482  1.00  0.00     0.038 C 
HETATM    2  C2  UNL     1      18.237  -0.395  51.878  1.00  0.00    -0.006 C 
HETATM    3  C3  UNL     1      18.469  -0.891  52.989  1.00  0.00     0.007 C 
ENDROOT
BRANCH   3   4
HETATM    4  C4  UNL     1      17.899  -2.115  53.510  1.00  0.00     0.125 C 
BRANCH   4   5
HETATM    5  C5  UNL     1      16.620  -2.463  52.848  1.00  0.00     0.237 C 
HETATM    6  O1  UNL     1      15.817  -3.406  52.884  1.00  0.00    -0.306 OA
ENDBRANCH   4   5
ENDBRANCH   3   4
BRANCH   3   7
HETATM    7  N1  UNL     1      19.442   0.049  53.200  1.00  0.00    -0.390 N 
HETATM    8  H8  UNL     1      20.072  -0.809  53.445  1.00  0.00     0.159 HD
BRANCH   7   9
HETATM    9  C6  UNL     1      20.497   1.095  53.427  1.00  0.00     0.147 C 
BRANCH   9  10
HETATM   10  C7  UNL     1      21.696   0.275  53.777  1.00  0.00     0.004 C 
BRANCH  10  11
HETATM   11  C8  UNL     1      22.710  -0.458  54.217  1.00  0.00    -0.012 C 
HETATM   12  C9  UNL     1      23.692  -1.213  54.995  1.00  0.00     0.189 C 
HETATM   13  N2  UNL     1      24.987  -1.052  54.857  1.00  0.00    -0.295 NA
HETATM   14  C10 UNL     1      25.794  -0.475  54.177  1.00  0.00     0.134 C 
HETATM   15  C11 UNL     1      25.020   0.260  53.238  1.00  0.00     0.075 C 
HETATM   16  C12 UNL     1      25.865   1.176  52.363  1.00  0.00     0.023 C 
HETATM   17  C13 UNL     1      23.581   0.318  53.136  1.00  0.00     0.061 C 
HETATM   18  N3  UNL     1      26.535   1.931  51.662  1.00  0.00    -0.096 N 
BRANCH  17  19
HETATM   19  N4  UNL     1      23.331   1.110  51.988  1.00  0.00    -0.354 N 
HETATM   20  H15 UNL     1      24.005   1.839  52.304  1.00  0.00     0.166 HD
BRANCH  19  21
HETATM   21  C14 UNL     1      22.581   1.202  50.860  1.00  0.00     0.033 A 
HETATM   22  C15 UNL     1      21.819   1.046  49.837  1.00  0.00     0.029 A 
HETATM   23  C16 UNL     1      21.201   1.243  48.699  1.00  0.00     0.004 A 
HETATM   24  C17 UNL     1      21.781   2.389  48.511  1.00  0.00     0.019 A 
HETATM   25  C18 UNL     1      22.714   3.348  49.031  1.00  0.00     0.013 A 
HETATM   26 BR1  UNL     1      23.351   5.032  48.478  1.00  0.00    -0.051 Br
HETATM   27  C19 UNL     1      23.056   2.607  50.258  1.00  0.00     0.048 A 
ENDBRANCH  19  21
ENDBRANCH  17  19
ENDBRANCH  10  11
ENDBRANCH   9  10
ENDBRANCH   7   9
ENDBRANCH   3   7
TORSDOF 8
ENDMDL
MODEL 6
REMARK VINA RESULT:      -6.7      2.562      5.881
REMARK  8 active torsions:
REMARK  status: ('A' for Active; 'I' for Inactive)
REMARK    1  A    between atoms: C3_3  and  C4_4 
REMARK    2  A    between atoms: C3_3  and  N1_7 
REMARK    3  A    between atoms: C4_4  and  C5_5 
REMARK    4  A    between atoms: N1_7  and  C6_8 
REMARK    5  A    between atoms: C6_8  and  C7_9 
REMARK    6  A    between atoms: C7_9  and  C8_10 
REMARK    7  A    between atoms: C13_17  and  N4_18 
REMARK    8  A    between atoms: N4_18  and  C14_19 
ROOT
HETATM    1  C1  UNL     1      22.288   1.790  48.162  1.00  0.00     0.038 C 
HETATM    2  C2  UNL     1      22.507   3.115  48.890  1.00  0.00    -0.006 C 
HETATM    3  C3  UNL     1      22.634   4.247  49.375  1.00  0.00     0.007 C 
ENDROOT
BRANCH   3   4
HETATM    4  C4  UNL     1      22.270   5.493  48.733  1.00  0.00     0.125 C 
BRANCH   4   5
HETATM    5  C5  UNL     1      22.598   6.671  49.570  1.00  0.00     0.237 C 
HETATM    6  O1  UNL     1      23.017   6.868  50.719  1.00  0.00    -0.306 OA
ENDBRANCH   4   5
ENDBRANCH   3   4
BRANCH   3   7
HETATM    7  N1  UNL     1      23.003   3.690  50.570  1.00  0.00    -0.390 N 
HETATM    8  H8  UNL     1      23.517   2.953  49.950  1.00  0.00     0.159 HD
BRANCH   7   9
HETATM    9  C6  UNL     1      23.397   3.093  51.892  1.00  0.00     0.147 C 
BRANCH   9  10
HETATM   10  C7  UNL     1      22.409   1.985  52.054  1.00  0.00     0.004 C 
BRANCH  10  11
HETATM   11  C8  UNL     1      21.443   1.096  52.247  1.00  0.00    -0.012 C 
HETATM   12  C9  UNL     1      20.186   0.381  52.467  1.00  0.00     0.189 C 
HETATM   13  N2  UNL     1      20.039  -0.533  53.397  1.00  0.00    -0.295 NA
HETATM   14  C10 UNL     1      20.668  -1.145  54.219  1.00  0.00     0.134 C 
HETATM   15  C11 UNL     1      22.000  -0.667  54.089  1.00  0.00     0.075 C 
HETATM   16  C12 UNL     1      22.936  -1.229  55.150  1.00  0.00     0.023 C 
HETATM   17  C13 UNL     1      22.487   0.346  53.184  1.00  0.00     0.061 C 
HETATM   18  N3  UNL     1      23.698  -1.662  56.012  1.00  0.00    -0.096 N 
BRANCH  17  19
HETATM   19  N4  UNL     1      23.888   0.378  53.395  1.00  0.00    -0.354 N 
HETATM   20  H15 UNL     1      23.822   1.280  53.914  1.00  0.00     0.166 HD
BRANCH  19  21
HETATM   21  C14 UNL     1      25.055  -0.263  53.126  1.00  0.00     0.033 A 
HETATM   22  C15 UNL     1      26.015  -1.078  52.872  1.00  0.00     0.029 A 
HETATM   23  C16 UNL     1      27.211  -1.581  52.696  1.00  0.00     0.004 A 
HETATM   24  C17 UNL     1      27.795  -0.458  52.983  1.00  0.00     0.019 A 
HETATM   25  C18 UNL     1      27.609   0.912  53.370  1.00  0.00     0.013 A 
HETATM   26 BR1  UNL     1      28.749   2.374  53.706  1.00  0.00    -0.051 Br
HETATM   27  C19 UNL     1      26.137   0.882  53.409  1.00  0.00     0.048 A 
ENDBRANCH  19  21
ENDBRANCH  17  19
ENDBRANCH  10  11
ENDBRANCH   9  10
ENDBRANCH   7   9
ENDBRANCH   3   7
TORSDOF 8
ENDMDL
MODEL 7
REMARK VINA RESULT:      -6.7      2.320      3.133
REMARK  8 active torsions:
REMARK  status: ('A' for Active; 'I' for Inactive)
REMARK    1  A    between atoms: C3_3  and  C4_4 
REMARK    2  A    between atoms: C3_3  and  N1_7 
REMARK    3  A    between atoms: C4_4  and  C5_5 
REMARK    4  A    between atoms: N1_7  and  C6_8 
REMARK    5  A    between atoms: C6_8  and  C7_9 
REMARK    6  A    between atoms: C7_9  and  C8_10 
REMARK    7  A    between atoms: C13_17  and  N4_18 
REMARK    8  A    between atoms: N4_18  and  C14_19 
ROOT
HETATM    1  C1  UNL     1      25.751  -1.323  53.177  1.00  0.00     0.038 C 
HETATM    2  C2  UNL     1      26.548  -0.153  53.751  1.00  0.00    -0.006 C 
HETATM    3  C3  UNL     1      27.287   0.709  54.245  1.00  0.00     0.007 C 
ENDROOT
BRANCH   3   4
HETATM    4  C4  UNL     1      28.596   0.479  54.819  1.00  0.00     0.125 C 
BRANCH   4   5
HETATM    5  C5  UNL     1      29.542  -0.103  53.839  1.00  0.00     0.237 C 
HETATM    6  O1  UNL     1      30.228  -1.131  53.753  1.00  0.00    -0.306 OA
ENDBRANCH   4   5
ENDBRANCH   3   4
BRANCH   3   7
HETATM    7  N1  UNL     1      26.425   1.685  53.821  1.00  0.00    -0.390 N 
HETATM    8  H8  UNL     1      27.318   2.140  53.386  1.00  0.00     0.159 HD
BRANCH   7   9
HETATM    9  C6  UNL     1      25.464   2.747  53.365  1.00  0.00     0.147 C 
BRANCH   9  10
HETATM   10  C7  UNL     1      24.231   1.959  53.065  1.00  0.00     0.004 C 
BRANCH  10  11
HETATM   11  C8  UNL     1      23.096   1.287  52.928  1.00  0.00    -0.012 C 
HETATM   12  C9  UNL     1      22.009   0.308  52.935  1.00  0.00     0.189 C 
HETATM   13  N2  UNL     1      21.324  -0.005  51.861  1.00  0.00    -0.295 NA
HETATM   14  C10 UNL     1      21.191   0.311  50.708  1.00  0.00     0.134 C 
HETATM   15  C11 UNL     1      22.115   1.374  50.512  1.00  0.00     0.075 C 
HETATM   16  C12 UNL     1      22.197   1.825  49.060  1.00  0.00     0.023 C 
HETATM   17  C13 UNL     1      23.026   1.937  51.479  1.00  0.00     0.061 C 
HETATM   18  N3  UNL     1      22.285   2.187  47.889  1.00  0.00    -0.096 N 
BRANCH  17  19
HETATM   19  N4  UNL     1      23.647   3.018  50.805  1.00  0.00    -0.354 N 
HETATM   20  H15 UNL     1      22.781   3.594  50.864  1.00  0.00     0.166 HD
BRANCH  19  21
HETATM   21  C14 UNL     1      24.788   3.416  50.185  1.00  0.00     0.033 A 
HETATM   22  C15 UNL     1      25.935   3.550  49.622  1.00  0.00     0.029 A 
HETATM   23  C16 UNL     1      27.012   4.075  49.093  1.00  0.00     0.004 A 
HETATM   24  C17 UNL     1      26.596   5.288  49.294  1.00  0.00     0.019 A 
HETATM   25  C18 UNL     1      25.541   6.111  49.816  1.00  0.00     0.013 A 
HETATM   26 BR1  UNL     1      25.226   7.964  49.938  1.00  0.00    -0.051 Br
HETATM   27  C19 UNL     1      24.663   5.010  50.248  1.00  0.00     0.048 A 
ENDBRANCH  19  21
ENDBRANCH  17  19
ENDBRANCH  10  11
ENDBRANCH   9  10
ENDBRANCH   7   9
ENDBRANCH   3   7
TORSDOF 8
ENDMDL
MODEL 8
REMARK VINA RESULT:      -6.7      2.480      4.860
REMARK  8 active torsions:
REMARK  status: ('A' for Active; 'I' for Inactive)
REMARK    1  A    between atoms: C3_3  and  C4_4 
REMARK    2  A    between atoms: C3_3  and  N1_7 
REMARK    3  A    between atoms: C4_4  and  C5_5 
REMARK    4  A    between atoms: N1_7  and  C6_8 
REMARK    5  A    between atoms: C6_8  and  C7_9 
REMARK    6  A    between atoms: C7_9  and  C8_10 
REMARK    7  A    between atoms: C13_17  and  N4_18 
REMARK    8  A    between atoms: N4_18  and  C14_19 
ROOT
HETATM    1  C1  UNL     1      26.766   3.531  49.403  1.00  0.00     0.038 C 
HETATM    2  C2  UNL     1      26.518   2.860  50.753  1.00  0.00    -0.006 C 
HETATM    3  C3  UNL     1      26.441   2.274  51.840  1.00  0.00     0.007 C 
ENDROOT
BRANCH   3   4
HETATM    4  C4  UNL     1      27.499   1.518  52.476  1.00  0.00     0.125 C 
BRANCH   4   5
HETATM    5  C5  UNL     1      28.407   2.381  53.267  1.00  0.00     0.237 C 
HETATM    6  O1  UNL     1      28.656   2.563  54.467  1.00  0.00    -0.306 OA
ENDBRANCH   4   5
ENDBRANCH   3   4
BRANCH   3   7
HETATM    7  N1  UNL     1      25.204   2.824  52.045  1.00  0.00    -0.390 N 
HETATM    8  H8  UNL     1      25.203   2.968  50.963  1.00  0.00     0.159 HD
BRANCH   7   9
HETATM    9  C6  UNL     1      23.848   3.425  52.289  1.00  0.00     0.147 C 
BRANCH   9  10
HETATM   10  C7  UNL     1      23.114   3.090  51.032  1.00  0.00     0.004 C 
BRANCH  10  11
HETATM   11  C8  UNL     1      22.531   2.897  49.857  1.00  0.00    -0.012 C 
HETATM   12  C9  UNL     1      22.011   2.980  48.492  1.00  0.00     0.189 C 
HETATM   13  N2  UNL     1      20.759   2.729  48.189  1.00  0.00    -0.295 NA
HETATM   14  C10 UNL     1      19.737   2.328  48.680  1.00  0.00     0.134 C 
HETATM   15  C11 UNL     1      20.064   2.065  50.038  1.00  0.00     0.075 C 
HETATM   16  C12 UNL     1      18.852   1.673  50.873  1.00  0.00     0.023 C 
HETATM   17  C13 UNL     1      21.338   2.256  50.690  1.00  0.00     0.061 C 
HETATM   18  N3  UNL     1      17.879   1.373  51.561  1.00  0.00    -0.096 N 
BRANCH  17  19
HETATM   19  N4  UNL     1      21.151   1.760  52.004  1.00  0.00    -0.354 N 
HETATM   20  H15 UNL     1      21.080   2.725  52.393  1.00  0.00     0.166 HD
BRANCH  19  21
HETATM   21  C14 UNL     1      21.103   0.629  52.755  1.00  0.00     0.033 A 
HETATM   22  C15 UNL     1      20.808  -0.402  53.461  1.00  0.00     0.029 A 
HETATM   23  C16 UNL     1      20.905  -1.449  54.242  1.00  0.00     0.004 A 
HETATM   24  C17 UNL     1      22.191  -1.325  54.355  1.00  0.00     0.019 A 
HETATM   25  C18 UNL     1      23.348  -0.558  53.986  1.00  0.00     0.013 A 
HETATM   26 BR1  UNL     1      25.196  -0.674  54.332  1.00  0.00    -0.051 Br
HETATM   27  C19 UNL     1      22.641   0.428  53.152  1.00  0.00     0.048 A 
ENDBRANCH  19  21
ENDBRANCH  17  19
ENDBRANCH  10  11
ENDBRANCH   9  10
ENDBRANCH   7   9
ENDBRANCH   3   7
TORSDOF 8
ENDMDL
MODEL 9
REMARK VINA RESULT:      -6.6      2.570      3.989
REMARK  8 active torsions:
REMARK  status: ('A' for Active; 'I' for Inactive)
REMARK    1  A    between atoms: C3_3  and  C4_4 
REMARK    2  A    between atoms: C3_3  and  N1_7 
REMARK    3  A    between atoms: C4_4  and  C5_5 
REMARK    4  A    between atoms: N1_7  and  C6_8 
REMARK    5  A    between atoms: C6_8  and  C7_9 
REMARK    6  A    between atoms: C7_9  and  C8_10 
REMARK    7  A    between atoms: C13_17  and  N4_18 
REMARK    8  A    between atoms: N4_18  and  C14_19 
ROOT
HETATM    1  C1  UNL     1      26.569   3.165  49.888  1.00  0.00     0.038 C 
HETATM    2  C2  UNL     1      26.613   2.536  51.280  1.00  0.00    -0.006 C 
HETATM    3  C3  UNL     1      26.765   1.978  52.374  1.00  0.00     0.007 C 
ENDROOT
BRANCH   3   4
HETATM    4  C4  UNL     1      27.908   1.184  52.772  1.00  0.00     0.125 C 
BRANCH   4   5
HETATM    5  C5  UNL     1      27.810   0.727  54.178  1.00  0.00     0.237 C 
HETATM    6  O1  UNL     1      26.977   0.802  55.092  1.00  0.00    -0.306 OA
ENDBRANCH   4   5
ENDBRANCH   3   4
BRANCH   3   7
HETATM    7  N1  UNL     1      25.635   2.594  52.841  1.00  0.00    -0.390 N 
HETATM    8  H8  UNL     1      25.836   2.039  53.759  1.00  0.00     0.159 HD
BRANCH   7   9
HETATM    9  C6  UNL     1      24.392   3.279  53.335  1.00  0.00     0.147 C 
BRANCH   9  10
HETATM   10  C7  UNL     1      23.307   2.386  52.829  1.00  0.00     0.004 C 
BRANCH  10  11
HETATM   11  C8  UNL     1      22.426   1.565  52.273  1.00  0.00    -0.012 C 
HETATM   12  C9  UNL     1      21.635   0.426  51.806  1.00  0.00     0.189 C 
HETATM   13  N2  UNL     1      21.291   0.265  50.550  1.00  0.00    -0.295 NA
HETATM   14  C10 UNL     1      21.332   0.824  49.486  1.00  0.00     0.134 C 
HETATM   15  C11 UNL     1      21.987   2.058  49.749  1.00  0.00     0.075 C 
HETATM   16  C12 UNL     1      22.261   2.862  48.485  1.00  0.00     0.023 C 
HETATM   17  C13 UNL     1      22.508   2.527  51.010  1.00  0.00     0.061 C 
HETATM   18  N3  UNL     1      22.504   3.512  47.470  1.00  0.00    -0.096 N 
BRANCH  17  19
HETATM   19  N4  UNL     1      22.973   3.839  50.745  1.00  0.00    -0.354 N 
HETATM   20  H15 UNL     1      23.930   3.489  50.522  1.00  0.00     0.166 HD
BRANCH  19  21
HETATM   21  C14 UNL     1      22.623   5.151  50.750  1.00  0.00     0.033 A 
HETATM   22  C15 UNL     1      22.055   6.303  50.746  1.00  0.00     0.029 A 
HETATM   23  C16 UNL     1      21.853   7.596  50.675  1.00  0.00     0.004 A 
HETATM   24  C17 UNL     1      23.109   7.843  50.462  1.00  0.00     0.019 A 
HETATM   25  C18 UNL     1      24.420   7.280  50.299  1.00  0.00     0.013 A 
HETATM   26 BR1  UNL     1      26.147   7.973  50.005  1.00  0.00    -0.051 Br
HETATM   27  C19 UNL     1      24.025   5.872  50.472  1.00  0.00     0.048 A 
ENDBRANCH  19  21
ENDBRANCH  17  19
ENDBRANCH  10  11
ENDBRANCH   9  10
ENDBRANCH   7   9
ENDBRANCH   3   7
TORSDOF 8
ENDMDL
