MODEL 1
REMARK VINA RESULT:      -8.1      0.000      0.000
REMARK  3 active torsions:
REMARK  status: ('A' for Active; 'I' for Inactive)
REMARK    1  A    between atoms: C2_2  and  C3_3 
REMARK    2  A    between atoms: C10_15  and  N6_16 
REMARK    3  A    between atoms: N6_16  and  C11_17 
ROOT
HETATM    1  C3  UNL     1      26.986   0.302  54.293  1.00  0.00     0.035 C 
HETATM    2  C4  UNL     1      26.557   1.337  53.543  1.00  0.00     0.058 C 
HETATM    3  C5  UNL     1      25.220   1.917  53.262  1.00  0.00     0.058 A 
HETATM    4  C6  UNL     1      24.074   1.199  53.098  1.00  0.00     0.056 A 
HETATM    5  N1  UNL     1      24.008   2.639  52.993  1.00  0.00    -0.355 N 
HETATM    6  C7  UNL     1      23.650  -0.243  53.106  1.00  0.00     0.180 A 
HETATM    7  C8  UNL     1      23.933  -0.793  54.455  1.00  0.00     0.164 A 
HETATM    8  N2  UNL     1      24.956  -0.961  55.259  1.00  0.00    -0.158 NA
HETATM    9  N3  UNL     1      26.310  -0.643  55.117  1.00  0.00    -0.280 N 
HETATM   10  N4  UNL     1      22.941  -1.370  55.336  1.00  0.00    -0.224 NA
HETATM   11  C9  UNL     1      21.729  -1.400  54.899  1.00  0.00     0.237 A 
HETATM   12  N5  UNL     1      21.338  -0.902  53.625  1.00  0.00    -0.227 NA
HETATM   13  C10 UNL     1      22.226  -0.375  52.814  1.00  0.00     0.123 A 
HETATM   14  H5  UNL     1      23.617   3.594  52.860  1.00  0.00     0.166 HD
HETATM   15  H7  UNL     1      27.050  -1.116  55.662  1.00  0.00     0.189 HD
ENDROOT
BRANCH  13  16
HETATM   16  N6  UNL     1      21.698   0.090  51.569  1.00  0.00    -0.343 N 
HETATM   17  H9  UNL     1      22.171  -0.210  50.664  1.00  0.00     0.167 HD
BRANCH  16  18
HETATM   18  C11 UNL     1      20.536   0.948  51.570  1.00  0.00     0.035 A 
HETATM   19  C12 UNL     1      20.550   2.257  52.013  1.00  0.00     0.029 A 
HETATM   20  C13 UNL     1      19.379   3.011  51.974  1.00  0.00     0.004 A 
HETATM   21  C14 UNL     1      18.236   2.404  51.483  1.00  0.00     0.024 A 
HETATM   22  C15 UNL     1      18.217   1.091  51.037  1.00  0.00     0.036 A 
HETATM   23 CL1  UNL     1      16.726   0.409  50.432  1.00  0.00    -0.084 Cl
HETATM   24  C16 UNL     1      19.390   0.332  51.075  1.00  0.00     0.053 A 
ENDBRANCH  16  18
ENDBRANCH  13  16
BRANCH   1  25
HETATM   25  C2  UNL     1      28.409   0.308  54.103  1.00  0.00     0.047 C 
HETATM   26  C1  UNL     1      29.650   0.166  53.734  1.00  0.00     0.012 C 
ENDBRANCH   1  25
TORSDOF 3
ENDMDL
MODEL 2
REMARK VINA RESULT:      -7.9      3.924      7.850
REMARK  3 active torsions:
REMARK  status: ('A' for Active; 'I' for Inactive)
REMARK    1  A    between atoms: C2_2  and  C3_3 
REMARK    2  A    between atoms: C10_15  and  N6_16 
REMARK    3  A    between atoms: N6_16  and  C11_17 
ROOT
HETATM    1  C3  UNL     1      21.057   3.592  50.956  1.00  0.00     0.035 C 
HETATM    2  C4  UNL     1      21.412   4.041  52.177  1.00  0.00     0.058 C 
HETATM    3  C5  UNL     1      22.688   4.523  52.762  1.00  0.00     0.058 A 
HETATM    4  C6  UNL     1      23.919   4.011  52.486  1.00  0.00     0.056 A 
HETATM    5  N1  UNL     1      23.823   5.110  53.419  1.00  0.00    -0.355 N 
HETATM    6  C7  UNL     1      24.510   2.920  51.636  1.00  0.00     0.180 A 
HETATM    7  C8  UNL     1      24.198   3.230  50.218  1.00  0.00     0.164 A 
HETATM    8  N2  UNL     1      23.147   3.425  49.457  1.00  0.00    -0.158 NA
HETATM    9  N3  UNL     1      21.778   3.411  49.743  1.00  0.00    -0.280 N 
HETATM   10  N4  UNL     1      25.186   3.419  49.179  1.00  0.00    -0.224 NA
HETATM   11  C9  UNL     1      26.421   3.307  49.529  1.00  0.00     0.237 A 
HETATM   12  N5  UNL     1      26.840   3.014  50.856  1.00  0.00    -0.227 NA
HETATM   13  C10 UNL     1      25.956   2.839  51.812  1.00  0.00     0.123 A 
HETATM   14  H5  UNL     1      24.107   5.850  54.094  1.00  0.00     0.166 HD
HETATM   15  H7  UNL     1      21.064   3.249  49.015  1.00  0.00     0.189 HD
ENDROOT
BRANCH  13  16
HETATM   16  N6  UNL     1      26.513   2.556  53.098  1.00  0.00    -0.343 N 
HETATM   17  H9  UNL     1      26.228   3.159  53.927  1.00  0.00     0.167 HD
BRANCH  16  18
HETATM   18  C11 UNL     1      27.442   1.459  53.240  1.00  0.00     0.035 A 
HETATM   19  C12 UNL     1      28.731   1.603  53.717  1.00  0.00     0.029 A 
HETATM   20  C13 UNL     1      29.556   0.485  53.822  1.00  0.00     0.004 A 
HETATM   21  C14 UNL     1      29.037  -0.739  53.440  1.00  0.00     0.024 A 
HETATM   22  C15 UNL     1      27.744  -0.889  52.961  1.00  0.00     0.036 A 
HETATM   23 CL1  UNL     1      27.174  -2.476  52.502  1.00  0.00    -0.084 Cl
HETATM   24  C16 UNL     1      26.914   0.230  52.853  1.00  0.00     0.053 A 
ENDBRANCH  16  18
ENDBRANCH  13  16
BRANCH   1  25
HETATM   25  C2  UNL     1      19.659   3.290  51.096  1.00  0.00     0.047 C 
HETATM   26  C1  UNL     1      18.438   3.031  51.469  1.00  0.00     0.012 C 
ENDBRANCH   1  25
TORSDOF 3
ENDMDL
MODEL 3
REMARK VINA RESULT:      -7.9      2.650      3.064
REMARK  3 active torsions:
REMARK  status: ('A' for Active; 'I' for Inactive)
REMARK    1  A    between atoms: C2_2  and  C3_3 
REMARK    2  A    between atoms: C10_15  and  N6_16 
REMARK    3  A    between atoms: N6_16  and  C11_17 
ROOT
HETATM    1  C3  UNL     1      27.165  -0.274  53.715  1.00  0.00     0.035 C 
HETATM    2  C4  UNL     1      27.188   1.067  53.570  1.00  0.00     0.058 C 
HETATM    3  C5  UNL     1      26.168   2.134  53.727  1.00  0.00     0.058 A 
HETATM    4  C6  UNL     1      24.857   2.022  53.377  1.00  0.00     0.056 A 
HETATM    5  N1  UNL     1      25.315   3.268  53.948  1.00  0.00    -0.355 N 
HETATM    6  C7  UNL     1      23.947   0.988  52.772  1.00  0.00     0.180 A 
HETATM    7  C8  UNL     1      23.920  -0.183  53.684  1.00  0.00     0.164 A 
HETATM    8  N2  UNL     1      24.756  -1.046  54.209  1.00  0.00    -0.158 NA
HETATM    9  N3  UNL     1      26.141  -1.191  54.085  1.00  0.00    -0.280 N 
HETATM   10  N4  UNL     1      22.727  -0.717  54.304  1.00  0.00    -0.224 NA
HETATM   11  C9  UNL     1      21.618  -0.118  54.034  1.00  0.00     0.237 A 
HETATM   12  N5  UNL     1      21.522   1.013  53.176  1.00  0.00    -0.227 NA
HETATM   13  C10 UNL     1      22.594   1.510  52.605  1.00  0.00     0.123 A 
HETATM   14  H5  UNL     1      25.300   4.245  54.307  1.00  0.00     0.166 HD
HETATM   15  H7  UNL     1      26.622  -2.086  54.272  1.00  0.00     0.189 HD
ENDROOT
BRANCH  13  16
HETATM   16  N6  UNL     1      22.357   2.648  51.773  1.00  0.00    -0.343 N 
HETATM   17  H9  UNL     1      22.295   3.611  52.221  1.00  0.00     0.167 HD
BRANCH  16  18
HETATM   18  C11 UNL     1      22.212   2.464  50.347  1.00  0.00     0.035 A 
HETATM   19  C12 UNL     1      21.901   1.254  49.758  1.00  0.00     0.029 A 
HETATM   20  C13 UNL     1      21.779   1.172  48.372  1.00  0.00     0.004 A 
HETATM   21  C14 UNL     1      21.977   2.328  47.637  1.00  0.00     0.024 A 
HETATM   22  C15 UNL     1      22.289   3.545  48.224  1.00  0.00     0.036 A 
HETATM   23 CL1  UNL     1      22.520   4.953  47.215  1.00  0.00    -0.084 Cl
HETATM   24  C16 UNL     1      22.413   3.630  49.614  1.00  0.00     0.053 A 
ENDBRANCH  16  18
ENDBRANCH  13  16
BRANCH   1  25
HETATM   25  C2  UNL     1      28.507  -0.675  53.399  1.00  0.00     0.047 C 
HETATM   26  C1  UNL     1      29.790  -0.828  53.230  1.00  0.00     0.012 C 
ENDBRANCH   1  25
TORSDOF 3
ENDMDL
MODEL 4
REMARK VINA RESULT:      -7.8      2.630      3.012
REMARK  3 active torsions:
REMARK  status: ('A' for Active; 'I' for Inactive)
REMARK    1  A    between atoms: C2_2  and  C3_3 
REMARK    2  A    between atoms: C10_15  and  N6_16 
REMARK    3  A    between atoms: N6_16  and  C11_17 
ROOT
HETATM    1  C3  UNL     1      27.511  -0.024  53.926  1.00  0.00     0.035 C 
HETATM    2  C4  UNL     1      27.381   1.146  53.268  1.00  0.00     0.058 C 
HETATM    3  C5  UNL     1      26.236   2.053  53.003  1.00  0.00     0.058 A 
HETATM    4  C6  UNL     1      24.964   1.650  52.732  1.00  0.00     0.056 A 
HETATM    5  N1  UNL     1      25.246   3.066  52.769  1.00  0.00    -0.355 N 
HETATM    6  C7  UNL     1      24.211   0.357  52.584  1.00  0.00     0.180 A 
HETATM    7  C8  UNL     1      24.282  -0.363  53.881  1.00  0.00     0.164 A 
HETATM    8  N2  UNL     1      25.190  -0.841  54.696  1.00  0.00    -0.158 NA
HETATM    9  N3  UNL     1      26.587  -0.847  54.630  1.00  0.00    -0.280 N 
HETATM   10  N4  UNL     1      23.135  -0.760  54.667  1.00  0.00    -0.224 NA
HETATM   11  C9  UNL     1      21.976  -0.458  54.191  1.00  0.00     0.237 A 
HETATM   12  N5  UNL     1      21.784   0.230  52.961  1.00  0.00    -0.227 NA
HETATM   13  C10 UNL     1      22.814   0.598  52.234  1.00  0.00     0.123 A 
HETATM   14  H5  UNL     1      25.100   4.096  52.718  1.00  0.00     0.166 HD
HETATM   15  H7  UNL     1      27.162  -1.531  55.148  1.00  0.00     0.189 HD
ENDROOT
BRANCH  13  16
HETATM   16  N6  UNL     1      22.480   1.284  51.026  1.00  0.00    -0.343 N 
HETATM   17  H9  UNL     1      22.269   0.716  50.151  1.00  0.00     0.167 HD
BRANCH  16  18
HETATM   18  C11 UNL     1      22.433   2.728  51.022  1.00  0.00     0.035 A 
HETATM   19  C12 UNL     1      21.791   3.477  51.989  1.00  0.00     0.029 A 
HETATM   20  C13 UNL     1      21.800   4.868  51.904  1.00  0.00     0.004 A 
HETATM   21  C14 UNL     1      22.467   5.445  50.837  1.00  0.00     0.024 A 
HETATM   22  C15 UNL     1      23.114   4.697  49.865  1.00  0.00     0.036 A 
HETATM   23 CL1  UNL     1      23.930   5.514  48.553  1.00  0.00    -0.084 Cl
HETATM   24  C16 UNL     1      23.105   3.302  49.946  1.00  0.00     0.053 A 
ENDBRANCH  16  18
ENDBRANCH  13  16
BRANCH   1  25
HETATM   25  C2  UNL     1      28.904  -0.344  53.783  1.00  0.00     0.047 C 
HETATM   26  C1  UNL     1      30.092  -0.870  53.698  1.00  0.00     0.012 C 
ENDBRANCH   1  25
TORSDOF 3
ENDMDL
MODEL 5
REMARK VINA RESULT:      -7.6      3.201      7.182
REMARK  3 active torsions:
REMARK  status: ('A' for Active; 'I' for Inactive)
REMARK    1  A    between atoms: C2_2  and  C3_3 
REMARK    2  A    between atoms: C10_15  and  N6_16 
REMARK    3  A    between atoms: N6_16  and  C11_17 
ROOT
HETATM    1  C3  UNL     1      20.073   0.245  53.104  1.00  0.00     0.035 C 
HETATM    2  C4  UNL     1      21.073  -0.584  53.464  1.00  0.00     0.058 C 
HETATM    3  C5  UNL     1      22.520  -0.391  53.733  1.00  0.00     0.058 A 
HETATM    4  C6  UNL     1      23.338   0.452  53.045  1.00  0.00     0.056 A 
HETATM    5  N1  UNL     1      23.900  -0.327  54.124  1.00  0.00    -0.355 N 
HETATM    6  C7  UNL     1      23.236   1.418  51.896  1.00  0.00     0.180 A 
HETATM    7  C8  UNL     1      22.277   2.483  52.283  1.00  0.00     0.164 A 
HETATM    8  N2  UNL     1      21.025   2.599  52.654  1.00  0.00    -0.158 NA
HETATM    9  N3  UNL     1      20.020   1.644  52.842  1.00  0.00    -0.280 N 
HETATM   10  N4  UNL     1      22.593   3.894  52.343  1.00  0.00    -0.224 NA
HETATM   11  C9  UNL     1      23.798   4.229  52.035  1.00  0.00     0.237 A 
HETATM   12  N5  UNL     1      24.802   3.298  51.651  1.00  0.00    -0.227 NA
HETATM   13  C10 UNL     1      24.533   2.014  51.591  1.00  0.00     0.123 A 
HETATM   14  H5  UNL     1      24.596  -0.711  54.796  1.00  0.00     0.166 HD
HETATM   15  H7  UNL     1      19.016   1.884  52.808  1.00  0.00     0.189 HD
ENDROOT
BRANCH  13  16
HETATM   16  N6  UNL     1      25.632   1.189  51.197  1.00  0.00    -0.343 N 
HETATM   17  H9  UNL     1      25.717   0.896  50.177  1.00  0.00     0.167 HD
BRANCH  16  18
HETATM   18  C11 UNL     1      26.599   0.777  52.188  1.00  0.00     0.035 A 
HETATM   19  C12 UNL     1      27.134   1.627  53.136  1.00  0.00     0.029 A 
HETATM   20  C13 UNL     1      28.061   1.140  54.056  1.00  0.00     0.004 A 
HETATM   21  C14 UNL     1      28.407  -0.198  53.976  1.00  0.00     0.024 A 
HETATM   22  C15 UNL     1      27.872  -1.055  53.026  1.00  0.00     0.036 A 
HETATM   23 CL1  UNL     1      28.368  -2.731  53.002  1.00  0.00    -0.084 Cl
HETATM   24  C16 UNL     1      26.943  -0.569  52.102  1.00  0.00     0.053 A 
ENDBRANCH  16  18
ENDBRANCH  13  16
BRANCH   1  25
HETATM   25  C2  UNL     1      18.928  -0.617  53.016  1.00  0.00     0.047 C 
HETATM   26  C1  UNL     1      17.889  -1.335  52.693  1.00  0.00     0.012 C 
ENDBRANCH   1  25
TORSDOF 3
ENDMDL
MODEL 6
REMARK VINA RESULT:      -7.3     11.982     13.599
REMARK  3 active torsions:
REMARK  status: ('A' for Active; 'I' for Inactive)
REMARK    1  A    between atoms: C2_2  and  C3_3 
REMARK    2  A    between atoms: C10_15  and  N6_16 
REMARK    3  A    between atoms: N6_16  and  C11_17 
ROOT
HETATM    1  C3  UNL     1      33.279   2.660  47.029  1.00  0.00     0.035 C 
HETATM    2  C4  UNL     1      32.758   3.252  45.935  1.00  0.00     0.058 C 
HETATM    3  C5  UNL     1      32.968   4.568  45.282  1.00  0.00     0.058 A 
HETATM    4  C6  UNL     1      33.174   5.744  45.937  1.00  0.00     0.056 A 
HETATM    5  N1  UNL     1      33.153   5.754  44.493  1.00  0.00    -0.355 N 
HETATM    6  C7  UNL     1      33.270   6.228  47.358  1.00  0.00     0.180 A 
HETATM    7  C8  UNL     1      34.422   5.542  47.996  1.00  0.00     0.164 A 
HETATM    8  N2  UNL     1      34.825   4.321  48.253  1.00  0.00    -0.158 NA
HETATM    9  N3  UNL     1      34.246   3.076  47.988  1.00  0.00    -0.280 N 
HETATM   10  N4  UNL     1      35.563   6.214  48.577  1.00  0.00    -0.224 NA
HETATM   11  C9  UNL     1      35.561   7.502  48.528  1.00  0.00     0.237 A 
HETATM   12  N5  UNL     1      34.514   8.267  47.942  1.00  0.00    -0.227 NA
HETATM   13  C10 UNL     1      33.471   7.673  47.410  1.00  0.00     0.123 A 
HETATM   14  H5  UNL     1      33.196   6.108  43.515  1.00  0.00     0.166 HD
HETATM   15  H7  UNL     1      34.490   2.227  48.523  1.00  0.00     0.189 HD
ENDROOT
BRANCH  13  16
HETATM   16  N6  UNL     1      32.497   8.558  46.853  1.00  0.00    -0.343 N 
HETATM   17  H9  UNL     1      32.591   8.854  45.835  1.00  0.00     0.167 HD
BRANCH  16  18
HETATM   18  C11 UNL     1      31.409   9.025  47.682  1.00  0.00     0.035 A 
HETATM   19  C12 UNL     1      30.371   8.220  48.110  1.00  0.00     0.029 A 
HETATM   20  C13 UNL     1      29.365   8.758  48.910  1.00  0.00     0.004 A 
HETATM   21  C14 UNL     1      29.456  10.098  49.247  1.00  0.00     0.024 A 
HETATM   22  C15 UNL     1      30.496  10.909  48.820  1.00  0.00     0.036 A 
HETATM   23 CL1  UNL     1      30.527  12.590  49.296  1.00  0.00    -0.084 Cl
HETATM   24  C16 UNL     1      31.506  10.373  48.017  1.00  0.00     0.053 A 
ENDBRANCH  16  18
ENDBRANCH  13  16
BRANCH   1  25
HETATM   25  C2  UNL     1      32.619   1.385  47.075  1.00  0.00     0.047 C 
HETATM   26  C1  UNL     1      32.065   0.224  46.870  1.00  0.00     0.012 C 
ENDBRANCH   1  25
TORSDOF 3
ENDMDL
MODEL 7
REMARK VINA RESULT:      -7.2      2.022      3.430
REMARK  3 active torsions:
REMARK  status: ('A' for Active; 'I' for Inactive)
REMARK    1  A    between atoms: C2_2  and  C3_3 
REMARK    2  A    between atoms: C10_15  and  N6_16 
REMARK    3  A    between atoms: N6_16  and  C11_17 
ROOT
HETATM    1  C3  UNL     1      26.313   0.567  53.374  1.00  0.00     0.035 C 
HETATM    2  C4  UNL     1      25.367  -0.260  53.862  1.00  0.00     0.058 C 
HETATM    3  C5  UNL     1      23.987  -0.605  53.438  1.00  0.00     0.058 A 
HETATM    4  C6  UNL     1      23.086   0.272  52.915  1.00  0.00     0.056 A 
HETATM    5  N1  UNL     1      22.690  -1.108  53.081  1.00  0.00    -0.355 N 
HETATM    6  C7  UNL     1      23.022   1.735  52.572  1.00  0.00     0.180 A 
HETATM    7  C8  UNL     1      24.053   2.005  51.539  1.00  0.00     0.164 A 
HETATM    8  N2  UNL     1      25.352   1.898  51.387  1.00  0.00    -0.158 NA
HETATM    9  N3  UNL     1      26.353   1.436  52.247  1.00  0.00    -0.280 N 
HETATM   10  N4  UNL     1      23.782   2.546  50.225  1.00  0.00    -0.224 NA
HETATM   11  C9  UNL     1      22.550   2.806  49.951  1.00  0.00     0.237 A 
HETATM   12  N5  UNL     1      21.477   2.589  50.860  1.00  0.00    -0.227 NA
HETATM   13  C10 UNL     1      21.706   2.098  52.056  1.00  0.00     0.123 A 
HETATM   14  H5  UNL     1      22.104  -1.968  53.061  1.00  0.00     0.166 HD
HETATM   15  H7  UNL     1      27.343   1.711  52.141  1.00  0.00     0.189 HD
ENDROOT
BRANCH  13  16
HETATM   16  N6  UNL     1      20.540   1.925  52.865  1.00  0.00    -0.343 N 
HETATM   17  H9  UNL     1      20.472   2.448  53.789  1.00  0.00     0.167 HD
BRANCH  16  18
HETATM   18  C11 UNL     1      19.485   1.050  52.408  1.00  0.00     0.035 A 
HETATM   19  C12 UNL     1      18.690   1.316  51.310  1.00  0.00     0.029 A 
HETATM   20  C13 UNL     1      17.697   0.411  50.942  1.00  0.00     0.004 A 
HETATM   21  C14 UNL     1      17.552  -0.734  51.706  1.00  0.00     0.024 A 
HETATM   22  C15 UNL     1      18.347  -1.006  52.809  1.00  0.00     0.036 A 
HETATM   23 CL1  UNL     1      18.091  -2.479  53.713  1.00  0.00    -0.084 Cl
HETATM   24  C16 UNL     1      19.344  -0.099  53.181  1.00  0.00     0.053 A 
ENDBRANCH  16  18
ENDBRANCH  13  16
BRANCH   1  25
HETATM   25  C2  UNL     1      27.410   0.410  54.288  1.00  0.00     0.047 C 
HETATM   26  C1  UNL     1      28.529   0.182  54.915  1.00  0.00     0.012 C 
ENDBRANCH   1  25
TORSDOF 3
ENDMDL
MODEL 8
REMARK VINA RESULT:      -7.1      5.846      7.794
REMARK  3 active torsions:
REMARK  status: ('A' for Active; 'I' for Inactive)
REMARK    1  A    between atoms: C2_2  and  C3_3 
REMARK    2  A    between atoms: C10_15  and  N6_16 
REMARK    3  A    between atoms: N6_16  and  C11_17 
ROOT
HETATM    1  C3  UNL     1      28.092   6.589  47.995  1.00  0.00     0.035 C 
HETATM    2  C4  UNL     1      27.837   5.381  48.537  1.00  0.00     0.058 C 
HETATM    3  C5  UNL     1      26.617   4.739  49.086  1.00  0.00     0.058 A 
HETATM    4  C6  UNL     1      25.658   5.375  49.814  1.00  0.00     0.056 A 
HETATM    5  N1  UNL     1      25.496   3.966  49.543  1.00  0.00    -0.355 N 
HETATM    6  C7  UNL     1      25.388   6.759  50.339  1.00  0.00     0.180 A 
HETATM    7  C8  UNL     1      25.268   7.672  49.174  1.00  0.00     0.164 A 
HETATM    8  N2  UNL     1      25.984   8.065  48.149  1.00  0.00    -0.158 NA
HETATM    9  N3  UNL     1      27.276   7.726  47.734  1.00  0.00    -0.280 N 
HETATM   10  N4  UNL     1      24.101   8.471  48.871  1.00  0.00    -0.224 NA
HETATM   11  C9  UNL     1      23.104   8.369  49.682  1.00  0.00     0.237 A 
HETATM   12  N5  UNL     1      23.104   7.528  50.829  1.00  0.00    -0.227 NA
HETATM   13  C10 UNL     1      24.155   6.796  51.119  1.00  0.00     0.123 A 
HETATM   14  H5  UNL     1      25.084   3.010  49.538  1.00  0.00     0.166 HD
HETATM   15  H7  UNL     1      27.838   8.338  47.121  1.00  0.00     0.189 HD
ENDROOT
BRANCH  13  16
HETATM   16  N6  UNL     1      24.020   5.993  52.295  1.00  0.00    -0.343 N 
HETATM   17  H9  UNL     1      24.527   6.290  53.182  1.00  0.00     0.167 HD
BRANCH  16  18
HETATM   18  C11 UNL     1      23.198   4.806  52.250  1.00  0.00     0.035 A 
HETATM   19  C12 UNL     1      21.868   4.808  51.878  1.00  0.00     0.029 A 
HETATM   20  C13 UNL     1      21.153   3.612  51.863  1.00  0.00     0.004 A 
HETATM   21  C14 UNL     1      21.823   2.456  52.226  1.00  0.00     0.024 A 
HETATM   22  C15 UNL     1      23.158   2.449  52.600  1.00  0.00     0.036 A 
HETATM   23 CL1  UNL     1      23.920   0.940  53.042  1.00  0.00    -0.084 Cl
HETATM   24  C16 UNL     1      23.877   3.647  52.617  1.00  0.00     0.053 A 
ENDBRANCH  16  18
ENDBRANCH  13  16
BRANCH   1  25
HETATM   25  C2  UNL     1      29.493   6.536  47.683  1.00  0.00     0.047 C 
HETATM   26  C1  UNL     1      30.692   6.565  47.174  1.00  0.00     0.012 C 
ENDBRANCH   1  25
TORSDOF 3
ENDMDL
MODEL 9
REMARK VINA RESULT:      -7.1      3.388      4.933
REMARK  3 active torsions:
REMARK  status: ('A' for Active; 'I' for Inactive)
REMARK    1  A    between atoms: C2_2  and  C3_3 
REMARK    2  A    between atoms: C10_15  and  N6_16 
REMARK    3  A    between atoms: N6_16  and  C11_17 
ROOT
HETATM    1  C3  UNL     1      25.673   5.419  49.669  1.00  0.00     0.035 C 
HETATM    2  C4  UNL     1      24.679   5.821  50.487  1.00  0.00     0.058 C 
HETATM    3  C5  UNL     1      24.157   5.330  51.786  1.00  0.00     0.058 A 
HETATM    4  C6  UNL     1      24.049   4.019  52.142  1.00  0.00     0.056 A 
HETATM    5  N1  UNL     1      23.628   5.028  53.087  1.00  0.00    -0.355 N 
HETATM    6  C7  UNL     1      24.333   2.672  51.538  1.00  0.00     0.180 A 
HETATM    7  C8  UNL     1      25.790   2.594  51.264  1.00  0.00     0.164 A 
HETATM    8  N2  UNL     1      26.701   3.234  50.572  1.00  0.00    -0.158 NA
HETATM    9  N3  UNL     1      26.618   4.357  49.742  1.00  0.00    -0.280 N 
HETATM   10  N4  UNL     1      26.680   1.597  51.818  1.00  0.00    -0.224 NA
HETATM   11  C9  UNL     1      26.152   0.723  52.604  1.00  0.00     0.237 A 
HETATM   12  N5  UNL     1      24.770   0.699  52.939  1.00  0.00    -0.227 NA
HETATM   13  C10 UNL     1      23.947   1.596  52.445  1.00  0.00     0.123 A 
HETATM   14  H5  UNL     1      23.253   5.459  53.957  1.00  0.00     0.166 HD
HETATM   15  H7  UNL     1      27.318   4.555  49.009  1.00  0.00     0.189 HD
ENDROOT
BRANCH  13  16
HETATM   16  N6  UNL     1      22.588   1.459  52.867  1.00  0.00    -0.343 N 
HETATM   17  H9  UNL     1      22.380   1.339  53.904  1.00  0.00     0.167 HD
BRANCH  16  18
HETATM   18  C11 UNL     1      21.534   1.492  51.880  1.00  0.00     0.035 A 
HETATM   19  C12 UNL     1      21.497   0.669  50.771  1.00  0.00     0.029 A 
HETATM   20  C13 UNL     1      20.437   0.770  49.872  1.00  0.00     0.004 A 
HETATM   21  C14 UNL     1      19.453   1.707  50.137  1.00  0.00     0.024 A 
HETATM   22  C15 UNL     1      19.486   2.535  51.249  1.00  0.00     0.036 A 
HETATM   23 CL1  UNL     1      18.198   3.688  51.502  1.00  0.00    -0.084 Cl
HETATM   24  C16 UNL     1      20.548   2.436  52.152  1.00  0.00     0.053 A 
ENDBRANCH  16  18
ENDBRANCH  13  16
BRANCH   1  25
HETATM   25  C2  UNL     1      25.618   6.352  48.579  1.00  0.00     0.047 C 
HETATM   26  C1  UNL     1      25.635   7.367  47.762  1.00  0.00     0.012 C 
ENDBRANCH   1  25
TORSDOF 3
ENDMDL
