MODEL 1
REMARK VINA RESULT:      -7.2      0.000      0.000
REMARK  5 active torsions:
REMARK  status: ('A' for Active; 'I' for Inactive)
REMARK    1  A    between atoms: O1_2  and  C2_3 
REMARK    2  A    between atoms: C2_3  and  N1_4 
REMARK    3  A    between atoms: C6_9  and  O3_10 
REMARK    4  A    between atoms: C11_17  and  N4_18 
REMARK    5  A    between atoms: C18_27  and  O4_28 
ROOT
HETATM    1  N1  UNL     1      19.543   2.034  51.783  1.00  0.00     0.146 N 
HETATM    2  C3  UNL     1      19.863   0.831  51.064  1.00  0.00     0.305 C 
HETATM    3  C4  UNL     1      18.766  -0.169  51.443  1.00  0.00     0.198 C 
HETATM    4  O2  UNL     1      18.677  -0.328  52.754  1.00  0.00    -0.383 OA
HETATM    5  C5  UNL     1      19.525  -0.821  53.620  1.00  0.00     0.232 C 
HETATM    6  C6  UNL     1      20.868  -0.272  53.800  1.00  0.00     0.071 C 
HETATM    7  C8  UNL     1      21.977   0.499  53.656  1.00  0.00     0.067 C 
HETATM    8  C9  UNL     1      22.515   1.649  52.862  1.00  0.00     0.075 A 
HETATM    9  N2  UNL     1      23.844   1.611  52.938  1.00  0.00    -0.241 NA
HETATM   10  C10 UNL     1      24.693   2.448  52.369  1.00  0.00     0.235 A 
HETATM   11  N3  UNL     1      24.130   3.420  51.652  1.00  0.00    -0.224 NA
HETATM   12  C11 UNL     1      22.791   3.512  51.538  1.00  0.00     0.141 A 
HETATM   13  C17 UNL     1      21.897   2.640  52.128  1.00  0.00     0.075 A 
HETATM   14  C18 UNL     1      20.537   3.058  51.749  1.00  0.00     0.400 C 
ENDROOT
BRANCH  12  15
HETATM   15  N4  UNL     1      22.515   4.663  50.721  1.00  0.00    -0.344 N 
HETATM   16  C12 UNL     1      22.063   6.021  50.959  1.00  0.00     0.133 C 
HETATM   17  C13 UNL     1      23.310   6.907  50.819  1.00  0.00     0.089 C 
HETATM   18  C14 UNL     1      23.934   6.576  49.528  1.00  0.00     0.094 C 
HETATM   19  F1  UNL     1      24.850   7.475  49.026  1.00  0.00    -0.211 F 
HETATM   20  C15 UNL     1      23.723   5.507  48.770  1.00  0.00     0.051 C 
HETATM   21  C16 UNL     1      22.726   4.498  49.284  1.00  0.00     0.209 C 
HETATM   22 CL1  UNL     1      23.378   2.912  48.874  1.00  0.00    -0.098 Cl
ENDBRANCH  12  15
BRANCH  14  23
HETATM   23  O4  UNL     1      20.517   3.547  50.418  1.00  0.00    -0.364 OA
HETATM   24  H24 UNL     1      19.781   3.062  49.931  1.00  0.00     0.212 HD
ENDBRANCH  14  23
BRANCH   1  25
HETATM   25  C2  UNL     1      18.325   2.602  51.268  1.00  0.00     0.444 C 
BRANCH  25  26
HETATM   26  O1  UNL     1      17.989   3.679  52.083  1.00  0.00    -0.367 OA
HETATM   27  C1  UNL     1      16.724   4.179  51.790  1.00  0.00     0.204 C 
ENDBRANCH  25  26
ENDBRANCH   1  25
BRANCH   6  28
HETATM   28  O3  UNL     1      21.253  -1.196  54.847  1.00  0.00    -0.358 OA
HETATM   29  C7  UNL     1      22.626  -1.343  55.169  1.00  0.00     0.209 C 
ENDBRANCH   6  28
TORSDOF 5
ENDMDL
MODEL 2
REMARK VINA RESULT:      -7.1      3.285      6.101
REMARK  5 active torsions:
REMARK  status: ('A' for Active; 'I' for Inactive)
REMARK    1  A    between atoms: O1_2  and  C2_3 
REMARK    2  A    between atoms: C2_3  and  N1_4 
REMARK    3  A    between atoms: C6_9  and  O3_10 
REMARK    4  A    between atoms: C11_17  and  N4_18 
REMARK    5  A    between atoms: C18_27  and  O4_28 
ROOT
HETATM    1  N1  UNL     1      21.814   1.639  52.085  1.00  0.00     0.146 N 
HETATM    2  C3  UNL     1      21.771   3.021  52.482  1.00  0.00     0.305 C 
HETATM    3  C4  UNL     1      20.323   3.463  52.246  1.00  0.00     0.198 C 
HETATM    4  O2  UNL     1      19.939   3.244  50.998  1.00  0.00    -0.383 OA
HETATM    5  C5  UNL     1      20.356   3.757  49.868  1.00  0.00     0.232 C 
HETATM    6  C6  UNL     1      21.748   3.666  49.433  1.00  0.00     0.071 C 
HETATM    7  C8  UNL     1      23.076   3.376  49.405  1.00  0.00     0.067 C 
HETATM    8  C9  UNL     1      24.152   2.715  50.208  1.00  0.00     0.075 A 
HETATM    9  N2  UNL     1      25.324   3.177  49.778  1.00  0.00    -0.241 NA
HETATM   10  C10 UNL     1      26.521   2.848  50.233  1.00  0.00     0.235 A 
HETATM   11  N3  UNL     1      26.519   1.958  51.225  1.00  0.00    -0.224 NA
HETATM   12  C11 UNL     1      25.366   1.454  51.703  1.00  0.00     0.141 A 
HETATM   13  C17 UNL     1      24.113   1.794  51.235  1.00  0.00     0.075 A 
HETATM   14  C18 UNL     1      23.114   1.054  52.025  1.00  0.00     0.400 C 
ENDROOT
BRANCH  12  15
HETATM   15  N4  UNL     1      25.712   0.524  52.745  1.00  0.00    -0.344 N 
HETATM   16  C12 UNL     1      25.788  -0.920  52.864  1.00  0.00     0.133 C 
HETATM   17  C13 UNL     1      27.284  -1.264  52.818  1.00  0.00     0.089 C 
HETATM   18  C14 UNL     1      27.953  -0.427  53.826  1.00  0.00     0.094 C 
HETATM   19  F1  UNL     1      29.221  -0.803  54.213  1.00  0.00    -0.211 F 
HETATM   20  C15 UNL     1      27.485   0.663  54.423  1.00  0.00     0.051 C 
HETATM   21  C16 UNL     1      26.099   1.108  54.028  1.00  0.00     0.209 C 
HETATM   22 CL1  UNL     1      26.146   2.871  53.981  1.00  0.00    -0.098 Cl
ENDBRANCH  12  15
BRANCH  14  23
HETATM   23  O4  UNL     1      23.531   0.940  53.375  1.00  0.00    -0.364 OA
HETATM   24  H24 UNL     1      23.326  -0.000  53.674  1.00  0.00     0.212 HD
ENDBRANCH  14  23
BRANCH   1  25
HETATM   25  C2  UNL     1      21.028   0.845  52.992  1.00  0.00     0.444 C 
BRANCH  25  26
HETATM   26  O1  UNL     1      21.329  -0.491  52.744  1.00  0.00    -0.367 OA
HETATM   27  C1  UNL     1      20.949  -1.315  53.799  1.00  0.00     0.204 C 
ENDBRANCH  25  26
ENDBRANCH   1  25
BRANCH   6  28
HETATM   28  O3  UNL     1      21.546   4.368  48.182  1.00  0.00    -0.358 OA
HETATM   29  C7  UNL     1      22.522   5.299  47.747  1.00  0.00     0.209 C 
ENDBRANCH   6  28
TORSDOF 5
ENDMDL
MODEL 3
REMARK VINA RESULT:      -7.0      3.556      5.551
REMARK  5 active torsions:
REMARK  status: ('A' for Active; 'I' for Inactive)
REMARK    1  A    between atoms: O1_2  and  C2_3 
REMARK    2  A    between atoms: C2_3  and  N1_4 
REMARK    3  A    between atoms: C6_9  and  O3_10 
REMARK    4  A    between atoms: C11_17  and  N4_18 
REMARK    5  A    between atoms: C18_27  and  O4_28 
ROOT
HETATM    1  N1  UNL     1      22.779   1.720  51.462  1.00  0.00     0.146 N 
HETATM    2  C3  UNL     1      22.335   0.534  50.782  1.00  0.00     0.305 C 
HETATM    3  C4  UNL     1      21.051   0.945  50.053  1.00  0.00     0.198 C 
HETATM    4  O2  UNL     1      20.159   1.463  50.883  1.00  0.00    -0.383 OA
HETATM    5  C5  UNL     1      19.505   0.930  51.884  1.00  0.00     0.232 C 
HETATM    6  C6  UNL     1      20.183   0.323  53.028  1.00  0.00     0.071 C 
HETATM    7  C8  UNL     1      21.159  -0.125  53.861  1.00  0.00     0.067 C 
HETATM    8  C9  UNL     1      22.648  -0.217  53.987  1.00  0.00     0.075 A 
HETATM    9  N2  UNL     1      22.924  -1.177  54.867  1.00  0.00    -0.241 NA
HETATM   10  C10 UNL     1      24.124  -1.574  55.254  1.00  0.00     0.235 A 
HETATM   11  N3  UNL     1      25.141  -0.927  54.686  1.00  0.00    -0.224 NA
HETATM   12  C11 UNL     1      24.925   0.053  53.789  1.00  0.00     0.141 A 
HETATM   13  C17 UNL     1      23.676   0.473  53.378  1.00  0.00     0.075 A 
HETATM   14  C18 UNL     1      23.859   1.539  52.378  1.00  0.00     0.400 C 
ENDROOT
BRANCH  12  15
HETATM   15  N4  UNL     1      26.215   0.547  53.385  1.00  0.00    -0.344 N 
HETATM   16  C12 UNL     1      27.020   1.716  53.688  1.00  0.00     0.133 C 
HETATM   17  C13 UNL     1      28.119   1.229  54.645  1.00  0.00     0.089 C 
HETATM   18  C14 UNL     1      28.757   0.063  54.015  1.00  0.00     0.094 C 
HETATM   19  F1  UNL     1      29.984  -0.323  54.509  1.00  0.00    -0.211 F 
HETATM   20  C15 UNL     1      28.299  -0.677  53.013  1.00  0.00     0.051 C 
HETATM   21  C16 UNL     1      26.957  -0.286  52.442  1.00  0.00     0.209 C 
HETATM   22 CL1  UNL     1      26.124  -1.796  52.073  1.00  0.00    -0.098 Cl
ENDBRANCH  12  15
BRANCH  14  23
HETATM   23  O4  UNL     1      24.992   1.273  51.568  1.00  0.00    -0.364 OA
HETATM   24  H24 UNL     1      24.903   1.835  50.736  1.00  0.00     0.212 HD
ENDBRANCH  14  23
BRANCH   1  25
HETATM   25  C2  UNL     1      23.196   2.707  50.501  1.00  0.00     0.444 C 
BRANCH  25  26
HETATM   26  O1  UNL     1      23.613   3.830  51.210  1.00  0.00    -0.367 OA
HETATM   27  C1  UNL     1      24.376   4.688  50.424  1.00  0.00     0.204 C 
ENDBRANCH  25  26
ENDBRANCH   1  25
BRANCH   6  28
HETATM   28  O3  UNL     1      18.969  -0.032  53.734  1.00  0.00    -0.358 OA
HETATM   29  C7  UNL     1      18.202  -1.133  53.278  1.00  0.00     0.209 C 
ENDBRANCH   6  28
TORSDOF 5
ENDMDL
MODEL 4
REMARK VINA RESULT:      -6.9      3.898      7.386
REMARK  5 active torsions:
REMARK  status: ('A' for Active; 'I' for Inactive)
REMARK    1  A    between atoms: O1_2  and  C2_3 
REMARK    2  A    between atoms: C2_3  and  N1_4 
REMARK    3  A    between atoms: C6_9  and  O3_10 
REMARK    4  A    between atoms: C11_17  and  N4_18 
REMARK    5  A    between atoms: C18_27  and  O4_28 
ROOT
HETATM    1  N1  UNL     1      24.203   5.709  48.546  1.00  0.00     0.146 N 
HETATM    2  C3  UNL     1      24.776   6.572  49.543  1.00  0.00     0.305 C 
HETATM    3  C4  UNL     1      25.288   7.793  48.773  1.00  0.00     0.198 C 
HETATM    4  O2  UNL     1      26.124   7.450  47.805  1.00  0.00    -0.383 OA
HETATM    5  C5  UNL     1      27.307   6.893  47.849  1.00  0.00     0.232 C 
HETATM    6  C6  UNL     1      27.538   5.595  48.479  1.00  0.00     0.071 C 
HETATM    7  C8  UNL     1      27.331   4.425  49.140  1.00  0.00     0.067 C 
HETATM    8  C9  UNL     1      26.257   3.626  49.808  1.00  0.00     0.075 A 
HETATM    9  N2  UNL     1      26.844   2.763  50.635  1.00  0.00    -0.241 NA
HETATM   10  C10 UNL     1      26.244   1.882  51.416  1.00  0.00     0.235 A 
HETATM   11  N3  UNL     1      24.913   1.882  51.345  1.00  0.00    -0.224 NA
HETATM   12  C11 UNL     1      24.262   2.731  50.527  1.00  0.00     0.141 A 
HETATM   13  C17 UNL     1      24.881   3.655  49.710  1.00  0.00     0.075 A 
HETATM   14  C18 UNL     1      23.834   4.405  48.995  1.00  0.00     0.400 C 
ENDROOT
BRANCH  12  15
HETATM   15  N4  UNL     1      22.855   2.466  50.678  1.00  0.00    -0.344 N 
HETATM   16  C12 UNL     1      21.836   1.795  49.893  1.00  0.00     0.133 C 
HETATM   17  C13 UNL     1      21.603   0.442  50.581  1.00  0.00     0.089 C 
HETATM   18  C14 UNL     1      21.346   0.717  52.003  1.00  0.00     0.094 C 
HETATM   19  F1  UNL     1      20.767  -0.292  52.742  1.00  0.00    -0.211 F 
HETATM   20  C15 UNL     1      21.601   1.831  52.678  1.00  0.00     0.051 C 
HETATM   21  C16 UNL     1      22.234   2.961  51.904  1.00  0.00     0.209 C 
HETATM   22 CL1  UNL     1      23.399   3.710  52.997  1.00  0.00    -0.098 Cl
ENDBRANCH  12  15
BRANCH  14  23
HETATM   23  O4  UNL     1      22.707   4.608  49.832  1.00  0.00    -0.364 OA
HETATM   24  H24 UNL     1      22.654   3.821  50.460  1.00  0.00     0.212 HD
ENDBRANCH  14  23
BRANCH   1  25
HETATM   25  C2  UNL     1      23.024   6.320  47.991  1.00  0.00     0.444 C 
BRANCH  25  26
HETATM   26  O1  UNL     1      22.500   5.437  47.051  1.00  0.00    -0.367 OA
HETATM   27  C1  UNL     1      22.067   6.094  45.904  1.00  0.00     0.204 C 
ENDBRANCH  25  26
ENDBRANCH   1  25
BRANCH   6  28
HETATM   28  O3  UNL     1      28.956   5.551  48.184  1.00  0.00    -0.358 OA
HETATM   29  C7  UNL     1      29.595   6.715  47.689  1.00  0.00     0.209 C 
ENDBRANCH   6  28
TORSDOF 5
ENDMDL
MODEL 5
REMARK VINA RESULT:      -6.4      2.001      2.976
REMARK  5 active torsions:
REMARK  status: ('A' for Active; 'I' for Inactive)
REMARK    1  A    between atoms: O1_2  and  C2_3 
REMARK    2  A    between atoms: C2_3  and  N1_4 
REMARK    3  A    between atoms: C6_9  and  O3_10 
REMARK    4  A    between atoms: C11_17  and  N4_18 
REMARK    5  A    between atoms: C18_27  and  O4_28 
ROOT
HETATM    1  N1  UNL     1      22.233   1.408  52.900  1.00  0.00     0.146 N 
HETATM    2  C3  UNL     1      22.516   0.225  52.134  1.00  0.00     0.305 C 
HETATM    3  C4  UNL     1      22.182  -0.947  53.063  1.00  0.00     0.198 C 
HETATM    4  O2  UNL     1      22.844  -0.870  54.208  1.00  0.00    -0.383 OA
HETATM    5  C5  UNL     1      24.125  -0.935  54.467  1.00  0.00     0.232 C 
HETATM    6  C6  UNL     1      25.092  -0.015  53.871  1.00  0.00     0.071 C 
HETATM    7  C8  UNL     1      25.633   0.989  53.132  1.00  0.00     0.067 C 
HETATM    8  C9  UNL     1      25.261   2.068  52.164  1.00  0.00     0.075 A 
HETATM    9  N2  UNL     1      26.359   2.412  51.495  1.00  0.00    -0.241 NA
HETATM   10  C10 UNL     1      26.454   3.325  50.544  1.00  0.00     0.235 A 
HETATM   11  N3  UNL     1      25.314   3.949  50.249  1.00  0.00    -0.224 NA
HETATM   12  C11 UNL     1      24.170   3.646  50.891  1.00  0.00     0.141 A 
HETATM   13  C17 UNL     1      24.063   2.692  51.884  1.00  0.00     0.075 A 
HETATM   14  C18 UNL     1      22.656   2.639  52.315  1.00  0.00     0.400 C 
ENDROOT
BRANCH  12  15
HETATM   15  N4  UNL     1      23.144   4.499  50.351  1.00  0.00    -0.344 N 
HETATM   16  C12 UNL     1      22.506   5.737  50.756  1.00  0.00     0.133 C 
HETATM   17  C13 UNL     1      23.113   6.830  49.863  1.00  0.00     0.089 C 
HETATM   18  C14 UNL     1      22.979   6.377  48.470  1.00  0.00     0.094 C 
HETATM   19  F1  UNL     1      23.126   7.328  47.484  1.00  0.00    -0.211 F 
HETATM   20  C15 UNL     1      22.728   5.149  48.032  1.00  0.00     0.051 C 
HETATM   21  C16 UNL     1      22.559   4.077  49.080  1.00  0.00     0.209 C 
HETATM   22 CL1  UNL     1      23.328   2.630  48.429  1.00  0.00    -0.098 Cl
ENDBRANCH  12  15
BRANCH  14  23
HETATM   23  O4  UNL     1      21.788   2.841  51.211  1.00  0.00    -0.364 OA
HETATM   24  H24 UNL     1      22.322   3.300  50.490  1.00  0.00     0.212 HD
ENDBRANCH  14  23
BRANCH   1  25
HETATM   25  C2  UNL     1      20.817   1.510  53.137  1.00  0.00     0.444 C 
BRANCH  25  26
HETATM   26  O1  UNL     1      20.171   0.864  52.086  1.00  0.00    -0.367 OA
HETATM   27  C1  UNL     1      18.847   1.274  51.959  1.00  0.00     0.204 C 
ENDBRANCH  25  26
ENDBRANCH   1  25
BRANCH   6  28
HETATM   28  O3  UNL     1      26.246  -0.580  54.540  1.00  0.00    -0.358 OA
HETATM   29  C7  UNL     1      27.449   0.168  54.591  1.00  0.00     0.209 C 
ENDBRANCH   6  28
TORSDOF 5
ENDMDL
MODEL 6
REMARK VINA RESULT:      -6.4      7.330     10.367
REMARK  5 active torsions:
REMARK  status: ('A' for Active; 'I' for Inactive)
REMARK    1  A    between atoms: O1_2  and  C2_3 
REMARK    2  A    between atoms: C2_3  and  N1_4 
REMARK    3  A    between atoms: C6_9  and  O3_10 
REMARK    4  A    between atoms: C11_17  and  N4_18 
REMARK    5  A    between atoms: C18_27  and  O4_28 
ROOT
HETATM    1  N1  UNL     1      29.158   9.008  47.698  1.00  0.00     0.146 N 
HETATM    2  C3  UNL     1      29.673   8.974  49.040  1.00  0.00     0.305 C 
HETATM    3  C4  UNL     1      31.093   9.541  48.941  1.00  0.00     0.198 C 
HETATM    4  O2  UNL     1      31.827   8.878  48.060  1.00  0.00    -0.383 OA
HETATM    5  C5  UNL     1      32.244   7.638  48.048  1.00  0.00     0.232 C 
HETATM    6  C6  UNL     1      31.326   6.502  48.104  1.00  0.00     0.071 C 
HETATM    7  C8  UNL     1      30.185   5.767  48.174  1.00  0.00     0.067 C 
HETATM    8  C9  UNL     1      28.698   5.908  48.272  1.00  0.00     0.075 A 
HETATM    9  N2  UNL     1      28.209   4.762  48.741  1.00  0.00    -0.241 NA
HETATM   10  C10 UNL     1      26.940   4.482  48.978  1.00  0.00     0.235 A 
HETATM   11  N3  UNL     1      26.086   5.469  48.709  1.00  0.00    -0.224 NA
HETATM   12  C11 UNL     1      26.520   6.651  48.233  1.00  0.00     0.141 A 
HETATM   13  C17 UNL     1      27.844   6.953  47.984  1.00  0.00     0.075 A 
HETATM   14  C18 UNL     1      27.912   8.341  47.497  1.00  0.00     0.400 C 
ENDROOT
BRANCH  12  15
HETATM   15  N4  UNL     1      25.360   7.480  48.040  1.00  0.00    -0.344 N 
HETATM   16  C12 UNL     1      24.575   7.918  46.900  1.00  0.00     0.133 C 
HETATM   17  C13 UNL     1      23.289   7.078  46.932  1.00  0.00     0.089 C 
HETATM   18  C14 UNL     1      22.722   7.205  48.283  1.00  0.00     0.094 C 
HETATM   19  F1  UNL     1      21.404   6.836  48.447  1.00  0.00    -0.211 F 
HETATM   20  C15 UNL     1      23.324   7.637  49.385  1.00  0.00     0.051 C 
HETATM   21  C16 UNL     1      24.768   8.052  49.247  1.00  0.00     0.209 C 
HETATM   22 CL1  UNL     1      25.576   7.508  50.718  1.00  0.00    -0.098 Cl
ENDBRANCH  12  15
BRANCH  14  23
HETATM   23  O4  UNL     1      26.950   9.148  48.157  1.00  0.00    -0.364 OA
HETATM   24  H24 UNL     1      27.446   9.913  48.587  1.00  0.00     0.212 HD
ENDBRANCH  14  23
BRANCH   1  25
HETATM   25  C2  UNL     1      28.986  10.373  47.275  1.00  0.00     0.444 C 
BRANCH  25  26
HETATM   26  O1  UNL     1      28.546  10.348  45.954  1.00  0.00    -0.367 OA
HETATM   27  C1  UNL     1      28.059  11.586  45.545  1.00  0.00     0.204 C 
ENDBRANCH  25  26
ENDBRANCH   1  25
BRANCH   6  28
HETATM   28  O3  UNL     1      32.359   5.489  48.040  1.00  0.00    -0.358 OA
HETATM   29  C7  UNL     1      32.040   4.208  47.523  1.00  0.00     0.209 C 
ENDBRANCH   6  28
TORSDOF 5
ENDMDL
MODEL 7
REMARK VINA RESULT:      -6.3     10.135     12.838
REMARK  5 active torsions:
REMARK  status: ('A' for Active; 'I' for Inactive)
REMARK    1  A    between atoms: O1_2  and  C2_3 
REMARK    2  A    between atoms: C2_3  and  N1_4 
REMARK    3  A    between atoms: C6_9  and  O3_10 
REMARK    4  A    between atoms: C11_17  and  N4_18 
REMARK    5  A    between atoms: C18_27  and  O4_28 
ROOT
HETATM    1  N1  UNL     1      33.552   7.393  47.103  1.00  0.00     0.146 N 
HETATM    2  C3  UNL     1      33.748   7.180  48.511  1.00  0.00     0.305 C 
HETATM    3  C4  UNL     1      35.159   6.597  48.638  1.00  0.00     0.198 C 
HETATM    4  O2  UNL     1      35.310   5.509  47.899  1.00  0.00    -0.383 OA
HETATM    5  C5  UNL     1      34.740   4.334  47.972  1.00  0.00     0.232 C 
HETATM    6  C6  UNL     1      33.291   4.160  47.892  1.00  0.00     0.071 C 
HETATM    7  C8  UNL     1      31.962   4.427  47.784  1.00  0.00     0.067 C 
HETATM    8  C9  UNL     1      30.999   5.563  47.635  1.00  0.00     0.075 A 
HETATM    9  N2  UNL     1      29.802   5.138  48.033  1.00  0.00    -0.241 NA
HETATM   10  C10 UNL     1      28.683   5.840  48.063  1.00  0.00     0.235 A 
HETATM   11  N3  UNL     1      28.798   7.100  47.645  1.00  0.00    -0.224 NA
HETATM   12  C11 UNL     1      29.982   7.588  47.230  1.00  0.00     0.141 A 
HETATM   13  C17 UNL     1      31.156   6.862  47.197  1.00  0.00     0.075 A 
HETATM   14  C18 UNL     1      32.227   7.748  46.709  1.00  0.00     0.400 C 
ENDROOT
BRANCH  12  15
HETATM   15  N4  UNL     1      29.761   8.955  46.838  1.00  0.00    -0.344 N 
HETATM   16  C12 UNL     1      29.619   9.663  45.580  1.00  0.00     0.133 C 
HETATM   17  C13 UNL     1      28.118   9.958  45.435  1.00  0.00     0.089 C 
HETATM   18  C14 UNL     1      27.682  10.612  46.679  1.00  0.00     0.094 C 
HETATM   19  F1  UNL     1      26.478  11.280  46.647  1.00  0.00    -0.211 F 
HETATM   20  C15 UNL     1      28.311  10.644  47.848  1.00  0.00     0.051 C 
HETATM   21  C16 UNL     1      29.635   9.924  47.924  1.00  0.00     0.209 C 
HETATM   22 CL1  UNL     1      29.689   9.166  49.516  1.00  0.00    -0.098 Cl
ENDBRANCH  12  15
BRANCH  14  23
HETATM   23  O4  UNL     1      32.040   9.068  47.191  1.00  0.00    -0.364 OA
HETATM   24  H24 UNL     1      31.304   9.486  46.642  1.00  0.00     0.212 HD
ENDBRANCH  14  23
BRANCH   1  25
HETATM   25  C2  UNL     1      34.430   8.435  46.639  1.00  0.00     0.444 C 
BRANCH  25  26
HETATM   26  O1  UNL     1      34.182   8.615  45.281  1.00  0.00    -0.367 OA
HETATM   27  C1  UNL     1      35.176   9.371  44.667  1.00  0.00     0.204 C 
ENDBRANCH  25  26
ENDBRANCH   1  25
BRANCH   6  28
HETATM   28  O3  UNL     1      33.320   2.717  48.013  1.00  0.00    -0.358 OA
HETATM   29  C7  UNL     1      32.703   1.927  47.010  1.00  0.00     0.209 C 
ENDBRANCH   6  28
TORSDOF 5
ENDMDL
MODEL 8
REMARK VINA RESULT:      -6.2      8.941     11.734
REMARK  5 active torsions:
REMARK  status: ('A' for Active; 'I' for Inactive)
REMARK    1  A    between atoms: O1_2  and  C2_3 
REMARK    2  A    between atoms: C2_3  and  N1_4 
REMARK    3  A    between atoms: C6_9  and  O3_10 
REMARK    4  A    between atoms: C11_17  and  N4_18 
REMARK    5  A    between atoms: C18_27  and  O4_28 
ROOT
HETATM    1  N1  UNL     1      31.595   8.349  47.229  1.00  0.00     0.146 N 
HETATM    2  C3  UNL     1      31.987   8.168  48.601  1.00  0.00     0.305 C 
HETATM    3  C4  UNL     1      33.509   7.997  48.566  1.00  0.00     0.198 C 
HETATM    4  O2  UNL     1      33.874   7.011  47.762  1.00  0.00    -0.383 OA
HETATM    5  C5  UNL     1      33.659   5.721  47.829  1.00  0.00     0.232 C 
HETATM    6  C6  UNL     1      32.313   5.154  47.877  1.00  0.00     0.071 C 
HETATM    7  C8  UNL     1      30.958   5.044  47.908  1.00  0.00     0.067 C 
HETATM    8  C9  UNL     1      29.711   5.871  47.907  1.00  0.00     0.075 A 
HETATM    9  N2  UNL     1      28.724   5.122  48.394  1.00  0.00    -0.241 NA
HETATM   10  C10 UNL     1      27.465   5.484  48.564  1.00  0.00     0.235 A 
HETATM   11  N3  UNL     1      27.186   6.736  48.200  1.00  0.00    -0.224 NA
HETATM   12  C11 UNL     1      28.142   7.543  47.701  1.00  0.00     0.141 A 
HETATM   13  C17 UNL     1      29.459   7.172  47.522  1.00  0.00     0.075 A 
HETATM   14  C18 UNL     1      30.189   8.331  46.981  1.00  0.00     0.400 C 
ENDROOT
BRANCH  12  15
HETATM   15  N4  UNL     1      27.515   8.803  47.401  1.00  0.00    -0.344 N 
HETATM   16  C12 UNL     1      27.069   9.479  46.197  1.00  0.00     0.133 C 
HETATM   17  C13 UNL     1      25.539   9.343  46.185  1.00  0.00     0.089 C 
HETATM   18  C14 UNL     1      25.052   9.811  47.492  1.00  0.00     0.094 C 
HETATM   19  F1  UNL     1      23.711  10.114  47.589  1.00  0.00    -0.211 F 
HETATM   20  C15 UNL     1      25.748   9.985  48.609  1.00  0.00     0.051 C 
HETATM   21  C16 UNL     1      27.222   9.664  48.544  1.00  0.00     0.209 C 
HETATM   22 CL1  UNL     1      27.626   8.906  50.084  1.00  0.00    -0.098 Cl
ENDBRANCH  12  15
BRANCH  14  23
HETATM   23  O4  UNL     1      29.699   9.537  47.544  1.00  0.00    -0.364 OA
HETATM   24  H24 UNL     1      29.665   9.408  48.543  1.00  0.00     0.212 HD
ENDBRANCH  14  23
BRANCH   1  25
HETATM   25  C2  UNL     1      32.100   9.604  46.738  1.00  0.00     0.444 C 
BRANCH  25  26
HETATM   26  O1  UNL     1      31.960   9.597  45.353  1.00  0.00    -0.367 OA
HETATM   27  C1  UNL     1      33.059   9.022  44.722  1.00  0.00     0.204 C 
ENDBRANCH  25  26
ENDBRANCH   1  25
BRANCH   6  28
HETATM   28  O3  UNL     1      32.749   3.773  47.921  1.00  0.00    -0.358 OA
HETATM   29  C7  UNL     1      34.118   3.474  47.711  1.00  0.00     0.209 C 
ENDBRANCH   6  28
TORSDOF 5
ENDMDL
MODEL 9
REMARK VINA RESULT:      -6.2      7.671     11.272
REMARK  5 active torsions:
REMARK  status: ('A' for Active; 'I' for Inactive)
REMARK    1  A    between atoms: O1_2  and  C2_3 
REMARK    2  A    between atoms: C2_3  and  N1_4 
REMARK    3  A    between atoms: C6_9  and  O3_10 
REMARK    4  A    between atoms: C11_17  and  N4_18 
REMARK    5  A    between atoms: C18_27  and  O4_28 
ROOT
HETATM    1  N1  UNL     1      27.421   6.873  48.340  1.00  0.00     0.146 N 
HETATM    2  C3  UNL     1      27.454   8.125  49.047  1.00  0.00     0.305 C 
HETATM    3  C4  UNL     1      25.986   8.494  49.282  1.00  0.00     0.198 C 
HETATM    4  O2  UNL     1      25.300   8.527  48.150  1.00  0.00    -0.383 OA
HETATM    5  C5  UNL     1      25.403   9.307  47.104  1.00  0.00     0.232 C 
HETATM    6  C6  UNL     1      26.639   9.423  46.333  1.00  0.00     0.071 C 
HETATM    7  C8  UNL     1      27.921   9.250  45.914  1.00  0.00     0.067 C 
HETATM    8  C9  UNL     1      29.180   8.514  46.253  1.00  0.00     0.075 A 
HETATM    9  N2  UNL     1      30.193   9.149  45.668  1.00  0.00    -0.241 NA
HETATM   10  C10 UNL     1      31.472   8.822  45.727  1.00  0.00     0.235 A 
HETATM   11  N3  UNL     1      31.742   7.738  46.454  1.00  0.00    -0.224 NA
HETATM   12  C11 UNL     1      30.760   7.053  47.069  1.00  0.00     0.141 A 
HETATM   13  C17 UNL     1      29.422   7.389  47.014  1.00  0.00     0.075 A 
HETATM   14  C18 UNL     1      28.673   6.418  47.829  1.00  0.00     0.400 C 
ENDROOT
BRANCH  12  15
HETATM   15  N4  UNL     1      31.379   5.946  47.748  1.00  0.00    -0.344 N 
HETATM   16  C12 UNL     1      31.527   4.525  47.495  1.00  0.00     0.133 C 
HETATM   17  C13 UNL     1      32.977   4.333  47.026  1.00  0.00     0.089 C 
HETATM   18  C14 UNL     1      33.845   4.977  48.024  1.00  0.00     0.094 C 
HETATM   19  F1  UNL     1      35.180   4.637  48.007  1.00  0.00    -0.211 F 
HETATM   20  C15 UNL     1      33.503   5.858  48.957  1.00  0.00     0.051 C 
HETATM   21  C16 UNL     1      32.048   6.257  49.009  1.00  0.00     0.209 C 
HETATM   22 CL1  UNL     1      32.027   7.981  49.379  1.00  0.00    -0.098 Cl
ENDBRANCH  12  15
BRANCH  14  23
HETATM   23  O4  UNL     1      29.424   6.042  48.972  1.00  0.00    -0.364 OA
HETATM   24  H24 UNL     1      30.307   5.682  48.645  1.00  0.00     0.212 HD
ENDBRANCH  14  23
BRANCH   1  25
HETATM   25  C2  UNL     1      26.909   5.839  49.201  1.00  0.00     0.444 C 
BRANCH  25  26
HETATM   26  O1  UNL     1      27.164   4.618  48.584  1.00  0.00    -0.367 OA
HETATM   27  C1  UNL     1      26.687   3.547  49.334  1.00  0.00     0.204 C 
ENDBRANCH  25  26
ENDBRANCH   1  25
BRANCH   6  28
HETATM   28  O3  UNL     1      26.110  10.365  45.368  1.00  0.00    -0.358 OA
HETATM   29  C7  UNL     1      26.653  11.674  45.312  1.00  0.00     0.209 C 
ENDBRANCH   6  28
TORSDOF 5
ENDMDL
