MODEL 1
REMARK VINA RESULT:      -6.9      0.000      0.000
REMARK  0 active torsions:
REMARK  status: ('A' for Active; 'I' for Inactive)
ROOT
HETATM    1  C1  UNL     1      22.284   1.988  47.833  1.00  0.00     0.151 C 
HETATM    2  N1  UNL     1      22.389   2.105  49.276  1.00  0.00    -0.369 N 
HETATM    3  C2  UNL     1      21.269   2.616  49.989  1.00  0.00     0.108 C 
HETATM    4  C3  UNL     1      20.771   3.714  50.537  1.00  0.00     0.049 C 
HETATM    5 CL1  UNL     1      19.229   3.825  51.362  1.00  0.00    -0.086 Cl
HETATM    6  C4  UNL     1      21.474   5.019  50.519  1.00  0.00     0.151 C 
HETATM    7 CL2  UNL     1      20.542   6.295  49.699  1.00  0.00    -0.115 Cl
HETATM    8  C5  UNL     1      21.874   5.479  51.853  1.00  0.00    -0.001 C 
HETATM    9  C6  UNL     1      22.791   4.769  52.493  1.00  0.00     0.006 C 
HETATM   10  C7  UNL     1      23.464   3.570  52.028  1.00  0.00    -0.038 C 
HETATM   11  C8  UNL     1      23.856   3.130  50.820  1.00  0.00     0.027 C 
HETATM   12  C9  UNL     1      23.372   1.840  50.310  1.00  0.00     0.203 C 
HETATM   13  N2  UNL     1      22.919   0.925  51.297  1.00  0.00    -0.388 N 
HETATM   14  C10 UNL     1      23.123   1.219  52.664  1.00  0.00     0.051 C 
HETATM   15  C11 UNL     1      21.823   1.321  53.421  1.00  0.00     0.062 C 
HETATM   16  C12 UNL     1      21.100   0.015  53.545  1.00  0.00     0.272 C 
HETATM   17  N3  UNL     1      21.972  -1.132  53.479  1.00  0.00     0.083 N 
HETATM   18  C13 UNL     1      23.198  -0.796  54.154  1.00  0.00     0.272 C 
HETATM   19  C14 UNL     1      23.995   0.090  53.229  1.00  0.00     0.062 C 
HETATM   20  C15 UNL     1      23.877   2.499  52.959  1.00  0.00     0.153 C 
HETATM   21  C16 UNL     1      25.302   2.191  52.827  1.00  0.00     0.071 C 
HETATM   22  N4  UNL     1      26.420   1.945  52.706  1.00  0.00    -0.196 NA
HETATM   23  H10 UNL     1      23.142  -0.085  51.046  1.00  0.00     0.156 HD
HETATM   24  H15 UNL     1      21.532  -1.916  54.018  1.00  0.00     0.315 HD
ENDROOT
TORSDOF 0
ENDMDL
MODEL 2
REMARK VINA RESULT:      -6.9     10.949     12.952
REMARK  0 active torsions:
REMARK  status: ('A' for Active; 'I' for Inactive)
ROOT
HETATM    1  C1  UNL     1      35.438   5.513  49.637  1.00  0.00     0.151 C 
HETATM    2  N1  UNL     1      34.424   6.111  48.789  1.00  0.00    -0.369 N 
HETATM    3  C2  UNL     1      33.584   5.244  48.036  1.00  0.00     0.108 C 
HETATM    4  C3  UNL     1      33.415   4.707  46.837  1.00  0.00     0.049 C 
HETATM    5 CL1  UNL     1      32.120   3.616  46.390  1.00  0.00    -0.086 Cl
HETATM    6  C4  UNL     1      34.324   4.970  45.697  1.00  0.00     0.151 C 
HETATM    7 CL2  UNL     1      35.091   3.491  45.069  1.00  0.00    -0.115 Cl
HETATM    8  C5  UNL     1      33.679   5.696  44.598  1.00  0.00    -0.001 C 
HETATM    9  C6  UNL     1      33.294   6.941  44.834  1.00  0.00     0.006 C 
HETATM   10  C7  UNL     1      33.434   7.691  46.069  1.00  0.00    -0.038 C 
HETATM   11  C8  UNL     1      34.354   7.709  47.049  1.00  0.00     0.027 C 
HETATM   12  C9  UNL     1      33.959   7.440  48.438  1.00  0.00     0.203 C 
HETATM   13  N2  UNL     1      32.587   7.654  48.735  1.00  0.00    -0.388 N 
HETATM   14  C10 UNL     1      31.754   8.264  47.771  1.00  0.00     0.051 C 
HETATM   15  C11 UNL     1      30.617   7.364  47.354  1.00  0.00     0.062 C 
HETATM   16  C12 UNL     1      29.617   7.123  48.442  1.00  0.00     0.272 C 
HETATM   17  N3  UNL     1      29.563   8.185  49.418  1.00  0.00     0.083 N 
HETATM   18  C13 UNL     1      29.751   9.433  48.725  1.00  0.00     0.272 C 
HETATM   19  C14 UNL     1      31.221   9.555  48.406  1.00  0.00     0.062 C 
HETATM   20  C15 UNL     1      32.434   8.695  46.487  1.00  0.00     0.153 C 
HETATM   21  C16 UNL     1      33.054   9.994  46.753  1.00  0.00     0.071 C 
HETATM   22  N4  UNL     1      33.551  11.008  46.974  1.00  0.00    -0.196 NA
HETATM   23  H10 UNL     1      32.440   8.033  49.718  1.00  0.00     0.156 HD
HETATM   24  H15 UNL     1      28.601   8.208  49.832  1.00  0.00     0.315 HD
ENDROOT
TORSDOF 0
ENDMDL
MODEL 3
REMARK VINA RESULT:      -6.8     10.474     11.670
REMARK  0 active torsions:
REMARK  status: ('A' for Active; 'I' for Inactive)
ROOT
HETATM    1  C1  UNL     1      31.000   8.927  44.015  1.00  0.00     0.151 C 
HETATM    2  N1  UNL     1      31.400   8.310  45.266  1.00  0.00    -0.369 N 
HETATM    3  C2  UNL     1      30.390   7.717  46.073  1.00  0.00     0.108 C 
HETATM    4  C3  UNL     1      29.608   7.930  47.121  1.00  0.00     0.049 C 
HETATM    5 CL1  UNL     1      28.444   6.791  47.763  1.00  0.00    -0.086 Cl
HETATM    6  C4  UNL     1      29.623   9.192  47.900  1.00  0.00     0.151 C 
HETATM    7 CL2  UNL     1      28.046  10.018  47.908  1.00  0.00    -0.115 Cl
HETATM    8  C5  UNL     1      30.095   9.016  49.277  1.00  0.00    -0.001 C 
HETATM    9  C6  UNL     1      31.361   8.664  49.447  1.00  0.00     0.006 C 
HETATM   10  C7  UNL     1      32.359   8.428  48.419  1.00  0.00    -0.038 C 
HETATM   11  C8  UNL     1      32.589   8.956  47.205  1.00  0.00     0.027 C 
HETATM   12  C9  UNL     1      32.623   8.090  46.017  1.00  0.00     0.203 C 
HETATM   13  N2  UNL     1      32.892   6.719  46.269  1.00  0.00    -0.388 N 
HETATM   14  C10 UNL     1      33.279   6.313  47.565  1.00  0.00     0.051 C 
HETATM   15  C11 UNL     1      32.308   5.326  48.163  1.00  0.00     0.062 C 
HETATM   16  C12 UNL     1      32.303   3.998  47.468  1.00  0.00     0.272 C 
HETATM   17  N3  UNL     1      33.548   3.692  46.808  1.00  0.00     0.083 N 
HETATM   18  C13 UNL     1      34.620   4.195  47.628  1.00  0.00     0.272 C 
HETATM   19  C14 UNL     1      34.675   5.690  47.430  1.00  0.00     0.062 C 
HETATM   20  C15 UNL     1      33.427   7.420  48.589  1.00  0.00     0.153 C 
HETATM   21  C16 UNL     1      34.754   8.004  48.390  1.00  0.00     0.071 C 
HETATM   22  N4  UNL     1      35.793   8.469  48.219  1.00  0.00    -0.196 NA
HETATM   23  H10 UNL     1      33.472   6.273  45.497  1.00  0.00     0.156 HD
HETATM   24  H15 UNL     1      33.657   2.650  46.771  1.00  0.00     0.315 HD
ENDROOT
TORSDOF 0
ENDMDL
MODEL 4
REMARK VINA RESULT:      -6.7      3.597      6.148
REMARK  0 active torsions:
REMARK  status: ('A' for Active; 'I' for Inactive)
ROOT
HETATM    1  C1  UNL     1      22.300   2.066  48.097  1.00  0.00     0.151 C 
HETATM    2  N1  UNL     1      22.870   3.168  48.849  1.00  0.00    -0.369 N 
HETATM    3  C2  UNL     1      24.080   2.939  49.560  1.00  0.00     0.108 C 
HETATM    4  C3  UNL     1      24.570   2.655  50.758  1.00  0.00     0.049 C 
HETATM    5 CL1  UNL     1      26.269   2.462  51.137  1.00  0.00    -0.086 Cl
HETATM    6  C4  UNL     1      23.718   2.461  51.956  1.00  0.00     0.151 C 
HETATM    7 CL2  UNL     1      23.903   0.845  52.681  1.00  0.00    -0.115 Cl
HETATM    8  C5  UNL     1      23.921   3.488  52.982  1.00  0.00    -0.001 C 
HETATM    9  C6  UNL     1      23.561   4.728  52.683  1.00  0.00     0.006 C 
HETATM   10  C7  UNL     1      22.978   5.204  51.442  1.00  0.00    -0.038 C 
HETATM   11  C8  UNL     1      22.148   4.661  50.534  1.00  0.00     0.027 C 
HETATM   12  C9  UNL     1      22.559   4.559  49.126  1.00  0.00     0.203 C 
HETATM   13  N2  UNL     1      23.582   5.457  48.721  1.00  0.00    -0.388 N 
HETATM   14  C10 UNL     1      23.998   6.479  49.603  1.00  0.00     0.051 C 
HETATM   15  C11 UNL     1      25.459   6.359  49.958  1.00  0.00     0.062 C 
HETATM   16  C12 UNL     1      26.378   6.625  48.805  1.00  0.00     0.272 C 
HETATM   17  N3  UNL     1      25.802   7.483  47.799  1.00  0.00     0.083 N 
HETATM   18  C13 UNL     1      25.003   8.476  48.468  1.00  0.00     0.272 C 
HETATM   19  C14 UNL     1      23.718   7.810  48.893  1.00  0.00     0.062 C 
HETATM   20  C15 UNL     1      23.256   6.559  50.921  1.00  0.00     0.153 C 
HETATM   21  C16 UNL     1      22.020   7.301  50.666  1.00  0.00     0.071 C 
HETATM   22  N4  UNL     1      21.044   7.872  50.455  1.00  0.00    -0.196 NA
HETATM   23  H10 UNL     1      23.453   5.791  47.720  1.00  0.00     0.156 HD
HETATM   24  H15 UNL     1      26.578   7.993  47.313  1.00  0.00     0.315 HD
ENDROOT
TORSDOF 0
ENDMDL
MODEL 5
REMARK VINA RESULT:      -6.4      9.608     11.641
REMARK  0 active torsions:
REMARK  status: ('A' for Active; 'I' for Inactive)
ROOT
HETATM    1  C1  UNL     1      30.493  10.995  49.219  1.00  0.00     0.151 C 
HETATM    2  N1  UNL     1      30.702   9.776  48.460  1.00  0.00    -0.369 N 
HETATM    3  C2  UNL     1      29.673   9.355  47.572  1.00  0.00     0.108 C 
HETATM    4  C3  UNL     1      28.638   8.536  47.460  1.00  0.00     0.049 C 
HETATM    5 CL1  UNL     1      27.614   8.387  46.047  1.00  0.00    -0.086 Cl
HETATM    6  C4  UNL     1      28.208   7.622  48.544  1.00  0.00     0.151 C 
HETATM    7 CL2  UNL     1      26.539   7.927  49.084  1.00  0.00    -0.115 Cl
HETATM    8  C5  UNL     1      28.364   6.205  48.202  1.00  0.00    -0.001 C 
HETATM    9  C6  UNL     1      29.598   5.750  48.039  1.00  0.00     0.006 C 
HETATM   10  C7  UNL     1      30.838   6.494  48.160  1.00  0.00    -0.038 C 
HETATM   11  C8  UNL     1      31.236   7.522  48.930  1.00  0.00     0.027 C 
HETATM   12  C9  UNL     1      31.729   8.761  48.312  1.00  0.00     0.203 C 
HETATM   13  N2  UNL     1      32.207   8.631  46.981  1.00  0.00    -0.388 N 
HETATM   14  C10 UNL     1      32.350   7.344  46.416  1.00  0.00     0.051 C 
HETATM   15  C11 UNL     1      31.488   7.166  45.191  1.00  0.00     0.062 C 
HETATM   16  C12 UNL     1      31.922   8.006  44.029  1.00  0.00     0.272 C 
HETATM   17  N3  UNL     1      33.325   8.343  44.056  1.00  0.00     0.083 N 
HETATM   18  C13 UNL     1      34.043   7.207  44.572  1.00  0.00     0.272 C 
HETATM   19  C14 UNL     1      33.835   7.181  46.066  1.00  0.00     0.062 C 
HETATM   20  C15 UNL     1      32.019   6.181  47.328  1.00  0.00     0.153 C 
HETATM   21  C16 UNL     1      33.206   5.937  48.149  1.00  0.00     0.071 C 
HETATM   22  N4  UNL     1      34.137   5.760  48.801  1.00  0.00    -0.196 NA
HETATM   23  H10 UNL     1      33.033   9.271  46.784  1.00  0.00     0.156 HD
HETATM   24  H15 UNL     1      33.651   8.488  43.071  1.00  0.00     0.315 HD
ENDROOT
TORSDOF 0
ENDMDL
MODEL 6
REMARK VINA RESULT:      -6.3      3.153      5.861
REMARK  0 active torsions:
REMARK  status: ('A' for Active; 'I' for Inactive)
ROOT
HETATM    1  C1  UNL     1      26.767   4.163  49.216  1.00  0.00     0.151 C 
HETATM    2  N1  UNL     1      25.344   4.155  49.501  1.00  0.00    -0.369 N 
HETATM    3  C2  UNL     1      24.934   4.033  50.858  1.00  0.00     0.108 C 
HETATM    4  C3  UNL     1      24.511   3.165  51.765  1.00  0.00     0.049 C 
HETATM    5 CL1  UNL     1      24.110   3.551  53.425  1.00  0.00    -0.086 Cl
HETATM    6  C4  UNL     1      24.321   1.723  51.479  1.00  0.00     0.151 C 
HETATM    7 CL2  UNL     1      25.327   0.676  52.508  1.00  0.00    -0.115 Cl
HETATM    8  C5  UNL     1      22.920   1.298  51.562  1.00  0.00    -0.001 C 
HETATM    9  C6  UNL     1      22.079   1.789  50.663  1.00  0.00     0.006 C 
HETATM   10  C7  UNL     1      22.379   2.715  49.586  1.00  0.00    -0.038 C 
HETATM   11  C8  UNL     1      23.454   2.919  48.805  1.00  0.00     0.027 C 
HETATM   12  C9  UNL     1      24.097   4.240  48.764  1.00  0.00     0.203 C 
HETATM   13  N2  UNL     1      23.279   5.330  49.163  1.00  0.00    -0.388 N 
HETATM   14  C10 UNL     1      21.900   5.119  49.387  1.00  0.00     0.051 C 
HETATM   15  C11 UNL     1      21.502   5.442  50.806  1.00  0.00     0.062 C 
HETATM   16  C12 UNL     1      21.596   6.900  51.135  1.00  0.00     0.272 C 
HETATM   17  N3  UNL     1      21.458   7.758  49.984  1.00  0.00     0.083 N 
HETATM   18  C13 UNL     1      20.482   7.168  49.106  1.00  0.00     0.272 C 
HETATM   19  C14 UNL     1      21.152   6.018  48.394  1.00  0.00     0.062 C 
HETATM   20  C15 UNL     1      21.394   3.716  49.124  1.00  0.00     0.153 C 
HETATM   21  C16 UNL     1      21.161   3.615  47.682  1.00  0.00     0.071 C 
HETATM   22  N4  UNL     1      20.994   3.538  46.546  1.00  0.00    -0.196 NA
HETATM   23  H10 UNL     1      23.485   6.214  48.608  1.00  0.00     0.156 HD
HETATM   24  H15 UNL     1      21.066   8.678  50.300  1.00  0.00     0.315 HD
ENDROOT
TORSDOF 0
ENDMDL
MODEL 7
REMARK VINA RESULT:      -6.3      2.204      4.002
REMARK  0 active torsions:
REMARK  status: ('A' for Active; 'I' for Inactive)
ROOT
HETATM    1  C1  UNL     1      23.512   5.790  53.121  1.00  0.00     0.151 C 
HETATM    2  N1  UNL     1      23.688   4.439  52.622  1.00  0.00    -0.369 N 
HETATM    3  C2  UNL     1      24.524   4.249  51.486  1.00  0.00     0.108 C 
HETATM    4  C3  UNL     1      24.508   4.092  50.171  1.00  0.00     0.049 C 
HETATM    5 CL1  UNL     1      25.923   3.880  49.160  1.00  0.00    -0.086 Cl
HETATM    6  C4  UNL     1      23.259   4.074  49.373  1.00  0.00     0.151 C 
HETATM    7 CL2  UNL     1      23.208   5.360  48.142  1.00  0.00    -0.115 Cl
HETATM    8  C5  UNL     1      22.993   2.777  48.743  1.00  0.00    -0.001 C 
HETATM    9  C6  UNL     1      22.730   1.754  49.543  1.00  0.00     0.006 C 
HETATM   10  C7  UNL     1      22.670   1.758  50.993  1.00  0.00    -0.038 C 
HETATM   11  C8  UNL     1      22.294   2.669  51.907  1.00  0.00     0.027 C 
HETATM   12  C9  UNL     1      23.235   3.100  52.951  1.00  0.00     0.203 C 
HETATM   13  N2  UNL     1      24.296   2.198  53.228  1.00  0.00    -0.388 N 
HETATM   14  C10 UNL     1      24.283   0.911  52.645  1.00  0.00     0.051 C 
HETATM   15  C11 UNL     1      25.486   0.677  51.765  1.00  0.00     0.062 C 
HETATM   16  C12 UNL     1      26.776   0.603  52.524  1.00  0.00     0.272 C 
HETATM   17  N3  UNL     1      26.612   0.178  53.892  1.00  0.00     0.083 N 
HETATM   18  C13 UNL     1      25.572  -0.816  53.926  1.00  0.00     0.272 C 
HETATM   19  C14 UNL     1      24.253  -0.094  53.804  1.00  0.00     0.062 C 
HETATM   20  C15 UNL     1      23.075   0.583  51.792  1.00  0.00     0.153 C 
HETATM   21  C16 UNL     1      22.013   0.163  52.708  1.00  0.00     0.071 C 
HETATM   22  N4  UNL     1      21.178  -0.152  53.435  1.00  0.00    -0.196 NA
HETATM   23  H10 UNL     1      24.563   2.191  54.257  1.00  0.00     0.156 HD
HETATM   24  H15 UNL     1      27.495  -0.294  54.201  1.00  0.00     0.315 HD
ENDROOT
TORSDOF 0
ENDMDL
MODEL 8
REMARK VINA RESULT:      -6.2      8.704     10.308
REMARK  0 active torsions:
REMARK  status: ('A' for Active; 'I' for Inactive)
ROOT
HETATM    1  C1  UNL     1      27.415   8.866  44.658  1.00  0.00     0.151 C 
HETATM    2  N1  UNL     1      28.106   8.762  45.930  1.00  0.00    -0.369 N 
HETATM    3  C2  UNL     1      27.761   7.687  46.794  1.00  0.00     0.108 C 
HETATM    4  C3  UNL     1      27.027   7.366  47.849  1.00  0.00     0.049 C 
HETATM    5 CL1  UNL     1      26.946   5.778  48.582  1.00  0.00    -0.086 Cl
HETATM    6  C4  UNL     1      26.161   8.339  48.558  1.00  0.00     0.151 C 
HETATM    7 CL2  UNL     1      24.446   7.861  48.563  1.00  0.00    -0.115 Cl
HETATM    8  C5  UNL     1      26.601   8.612  49.929  1.00  0.00    -0.001 C 
HETATM    9  C6  UNL     1      27.761   9.232  50.085  1.00  0.00     0.006 C 
HETATM   10  C7  UNL     1      28.669   9.684  49.046  1.00  0.00    -0.038 C 
HETATM   11  C8  UNL     1      28.496  10.156  47.799  1.00  0.00     0.027 C 
HETATM   12  C9  UNL     1      29.134   9.482  46.659  1.00  0.00     0.203 C 
HETATM   13  N2  UNL     1      30.264   8.683  46.977  1.00  0.00    -0.388 N 
HETATM   14  C10 UNL     1      30.802   8.726  48.283  1.00  0.00     0.051 C 
HETATM   15  C11 UNL     1      30.758   7.378  48.958  1.00  0.00     0.062 C 
HETATM   16  C12 UNL     1      31.675   6.370  48.336  1.00  0.00     0.272 C 
HETATM   17  N3  UNL     1      32.805   6.961  47.661  1.00  0.00     0.083 N 
HETATM   18  C13 UNL     1      33.227   8.106  48.424  1.00  0.00     0.272 C 
HETATM   19  C14 UNL     1      32.248   9.220  48.145  1.00  0.00     0.062 C 
HETATM   20  C15 UNL     1      30.134   9.691  49.241  1.00  0.00     0.153 C 
HETATM   21  C16 UNL     1      30.705  11.013  48.977  1.00  0.00     0.071 C 
HETATM   22  N4  UNL     1      31.148  12.051  48.754  1.00  0.00    -0.196 NA
HETATM   23  H10 UNL     1      31.006   8.711  46.215  1.00  0.00     0.156 HD
HETATM   24  H15 UNL     1      33.598   6.276  47.677  1.00  0.00     0.315 HD
ENDROOT
TORSDOF 0
ENDMDL
MODEL 9
REMARK VINA RESULT:      -6.0      3.134      5.480
REMARK  0 active torsions:
REMARK  status: ('A' for Active; 'I' for Inactive)
ROOT
HETATM    1  C1  UNL     1      18.026   3.611  51.602  1.00  0.00     0.151 C 
HETATM    2  N1  UNL     1      19.372   3.696  51.066  1.00  0.00    -0.369 N 
HETATM    3  C2  UNL     1      20.059   2.482  50.786  1.00  0.00     0.108 C 
HETATM    4  C3  UNL     1      20.950   1.631  51.272  1.00  0.00     0.049 C 
HETATM    5 CL1  UNL     1      21.497   0.172  50.471  1.00  0.00    -0.086 Cl
HETATM    6  C4  UNL     1      21.612   1.812  52.586  1.00  0.00     0.151 C 
HETATM    7 CL2  UNL     1      21.303   0.464  53.707  1.00  0.00    -0.115 Cl
HETATM    8  C5  UNL     1      23.056   2.045  52.479  1.00  0.00    -0.001 C 
HETATM    9  C6  UNL     1      23.451   3.171  51.903  1.00  0.00     0.006 C 
HETATM   10  C7  UNL     1      22.615   4.223  51.354  1.00  0.00    -0.038 C 
HETATM   11  C8  UNL     1      21.411   4.723  51.681  1.00  0.00     0.027 C 
HETATM   12  C9  UNL     1      20.321   4.730  50.694  1.00  0.00     0.203 C 
HETATM   13  N2  UNL     1      20.727   4.660  49.336  1.00  0.00    -0.388 N 
HETATM   14  C10 UNL     1      22.098   4.772  49.013  1.00  0.00     0.051 C 
HETATM   15  C11 UNL     1      22.618   3.539  48.317  1.00  0.00     0.062 C 
HETATM   16  C12 UNL     1      22.046   3.342  46.946  1.00  0.00     0.272 C 
HETATM   17  N3  UNL     1      21.618   4.570  46.321  1.00  0.00     0.083 N 
HETATM   18  C13 UNL     1      22.548   5.604  46.691  1.00  0.00     0.272 C 
HETATM   19  C14 UNL     1      22.236   6.006  48.111  1.00  0.00     0.062 C 
HETATM   20  C15 UNL     1      23.034   5.016  50.179  1.00  0.00     0.153 C 
HETATM   21  C16 UNL     1      22.996   6.453  50.458  1.00  0.00     0.071 C 
HETATM   22  N4  UNL     1      22.950   7.580  50.681  1.00  0.00    -0.196 NA
HETATM   23  H10 UNL     1      20.096   5.229  48.696  1.00  0.00     0.156 HD
HETATM   24  H15 UNL     1      21.686   4.455  45.282  1.00  0.00     0.315 HD
ENDROOT
TORSDOF 0
ENDMDL
