MODEL 1
REMARK VINA RESULT:      -7.9      0.000      0.000
REMARK  4 active torsions:
REMARK  status: ('A' for Active; 'I' for Inactive)
REMARK    1  A    between atoms: C2_2  and  S1_3 
REMARK    2  A    between atoms: S1_3  and  N1_6 
REMARK    3  A    between atoms: C7_13  and  N4_14 
REMARK    4  A    between atoms: N4_14  and  C8_15 
ROOT
HETATM    1  N1  UNL     1      25.128  -0.352  54.099  1.00  0.00    -0.258 N 
HETATM    2  C3  UNL     1      24.689  -1.087  55.226  1.00  0.00     0.110 A 
HETATM    3  C4  UNL     1      23.393  -1.364  55.399  1.00  0.00     0.032 A 
HETATM    4  C5  UNL     1      22.395  -0.917  54.433  1.00  0.00    -0.002 A 
HETATM    5  C6  UNL     1      21.097  -1.154  54.536  1.00  0.00     0.121 A 
HETATM    6  N2  UNL     1      20.241  -0.656  53.515  1.00  0.00    -0.287 N 
HETATM    7  N3  UNL     1      20.669   0.078  52.387  1.00  0.00    -0.156 NA
HETATM    8  C7  UNL     1      21.949   0.334  52.249  1.00  0.00     0.160 A 
HETATM    9  C14 UNL     1      22.881  -0.162  53.284  1.00  0.00     0.040 A 
HETATM   10  C15 UNL     1      24.188   0.104  53.128  1.00  0.00     0.125 A 
HETATM   11  H7  UNL     1      19.197  -0.835  53.580  1.00  0.00     0.188 HD
ENDROOT
BRANCH   8  12
HETATM   12  N4  UNL     1      22.403   1.079  51.110  1.00  0.00    -0.339 N 
HETATM   13  H8  UNL     1      22.409   0.497  50.217  1.00  0.00     0.167 HD
BRANCH  12  14
HETATM   14  C8  UNL     1      22.772   2.461  51.321  1.00  0.00     0.035 A 
HETATM   15  C9  UNL     1      22.220   3.401  52.135  1.00  0.00     0.029 A 
HETATM   16  C10 UNL     1      22.778   4.652  52.157  1.00  0.00     0.004 A 
HETATM   17  C11 UNL     1      23.866   5.002  51.397  1.00  0.00     0.019 A 
HETATM   18  C12 UNL     1      24.451   4.064  50.558  1.00  0.00     0.013 A 
HETATM   19 BR1  UNL     1      25.960   4.546  49.507  1.00  0.00    -0.051 Br
HETATM   20  C13 UNL     1      23.882   2.802  50.540  1.00  0.00     0.048 A 
ENDBRANCH  12  14
ENDBRANCH   8  12
BRANCH   1  21
HETATM   21  S1  UNL     1      26.797  -0.000  53.875  1.00  0.00     0.257 S 
HETATM   22  O1  UNL     1      27.599  -1.269  53.847  1.00  0.00    -0.201 OA
HETATM   23  O2  UNL     1      27.244   0.809  55.084  1.00  0.00    -0.201 OA
BRANCH  21  24
HETATM   24  C2  UNL     1      27.083   0.853  52.384  1.00  0.00     0.122 C 
HETATM   25  C1  UNL     1      27.172   2.177  52.375  1.00  0.00     0.025 C 
ENDBRANCH  21  24
ENDBRANCH   1  21
TORSDOF 4
ENDMDL
MODEL 2
REMARK VINA RESULT:      -7.6      3.911      5.598
REMARK  4 active torsions:
REMARK  status: ('A' for Active; 'I' for Inactive)
REMARK    1  A    between atoms: C2_2  and  S1_3 
REMARK    2  A    between atoms: S1_3  and  N1_6 
REMARK    3  A    between atoms: C7_13  and  N4_14 
REMARK    4  A    between atoms: N4_14  and  C8_15 
ROOT
HETATM    1  N1  UNL     1      21.235   0.311  52.608  1.00  0.00    -0.258 N 
HETATM    2  C3  UNL     1      20.477  -0.402  53.567  1.00  0.00     0.110 A 
HETATM    3  C4  UNL     1      21.076  -1.036  54.579  1.00  0.00     0.032 A 
HETATM    4  C5  UNL     1      22.528  -1.013  54.724  1.00  0.00    -0.002 A 
HETATM    5  C6  UNL     1      23.192  -1.615  55.698  1.00  0.00     0.121 A 
HETATM    6  N2  UNL     1      24.609  -1.506  55.711  1.00  0.00    -0.287 N 
HETATM    7  N3  UNL     1      25.375  -0.799  54.758  1.00  0.00    -0.156 NA
HETATM    8  C7  UNL     1      24.754  -0.188  53.777  1.00  0.00     0.160 A 
HETATM    9  C14 UNL     1      23.279  -0.271  53.718  1.00  0.00     0.040 A 
HETATM   10  C15 UNL     1      22.657   0.360  52.709  1.00  0.00     0.125 A 
HETATM   11  H7  UNL     1      25.160  -1.982  56.484  1.00  0.00     0.188 HD
ENDROOT
BRANCH   8  12
HETATM   12  N4  UNL     1      25.515   0.535  52.799  1.00  0.00    -0.339 N 
HETATM   13  H8  UNL     1      24.972   0.697  51.896  1.00  0.00     0.167 HD
BRANCH  12  14
HETATM   14  C8  UNL     1      26.858   0.931  53.160  1.00  0.00     0.035 A 
HETATM   15  C9  UNL     1      27.369   2.165  53.420  1.00  0.00     0.029 A 
HETATM   16  C10 UNL     1      28.694   2.265  53.756  1.00  0.00     0.004 A 
HETATM   17  C11 UNL     1      29.530   1.179  53.841  1.00  0.00     0.019 A 
HETATM   18  C12 UNL     1      29.037  -0.092  53.582  1.00  0.00     0.013 A 
HETATM   19 BR1  UNL     1      30.193  -1.597  53.704  1.00  0.00    -0.051 Br
HETATM   20  C13 UNL     1      27.699  -0.186  53.243  1.00  0.00     0.048 A 
ENDBRANCH  12  14
ENDBRANCH   8  12
BRANCH   1  21
HETATM   21  S1  UNL     1      20.462   1.131  51.308  1.00  0.00     0.257 S 
HETATM   22  O1  UNL     1      19.850   2.414  51.792  1.00  0.00    -0.201 OA
HETATM   23  O2  UNL     1      19.336   0.228  50.824  1.00  0.00    -0.201 OA
BRANCH  21  24
HETATM   24  C2  UNL     1      21.580   1.513  50.029  1.00  0.00     0.122 C 
HETATM   25  C1  UNL     1      21.367   1.066  48.797  1.00  0.00     0.025 C 
ENDBRANCH  21  24
ENDBRANCH   1  21
TORSDOF 4
ENDMDL
MODEL 3
REMARK VINA RESULT:      -7.5      2.214      3.336
REMARK  4 active torsions:
REMARK  status: ('A' for Active; 'I' for Inactive)
REMARK    1  A    between atoms: C2_2  and  S1_3 
REMARK    2  A    between atoms: S1_3  and  N1_6 
REMARK    3  A    between atoms: C7_13  and  N4_14 
REMARK    4  A    between atoms: N4_14  and  C8_15 
ROOT
HETATM    1  N1  UNL     1      24.634   0.745  53.416  1.00  0.00    -0.258 N 
HETATM    2  C3  UNL     1      23.637  -0.249  53.272  1.00  0.00     0.110 A 
HETATM    3  C4  UNL     1      22.459   0.040  52.711  1.00  0.00     0.032 A 
HETATM    4  C5  UNL     1      22.167   1.387  52.231  1.00  0.00    -0.002 A 
HETATM    5  C6  UNL     1      21.026   1.747  51.665  1.00  0.00     0.121 A 
HETATM    6  N2  UNL     1      20.883   3.098  51.245  1.00  0.00    -0.287 N 
HETATM    7  N3  UNL     1      21.872   4.098  51.385  1.00  0.00    -0.156 NA
HETATM    8  C7  UNL     1      23.017   3.780  51.941  1.00  0.00     0.160 A 
HETATM    9  C14 UNL     1      23.216   2.387  52.395  1.00  0.00     0.040 A 
HETATM   10  C15 UNL     1      24.393   2.075  52.961  1.00  0.00     0.125 A 
HETATM   11  H7  UNL     1      19.976   3.407  50.789  1.00  0.00     0.188 HD
ENDROOT
BRANCH   8  12
HETATM   12  N4  UNL     1      24.032   4.781  52.092  1.00  0.00    -0.339 N 
HETATM   13  H8  UNL     1      24.067   5.183  53.079  1.00  0.00     0.167 HD
BRANCH  12  14
HETATM   14  C8  UNL     1      24.838   5.093  50.933  1.00  0.00     0.035 A 
HETATM   15  C9  UNL     1      25.564   4.275  50.123  1.00  0.00     0.029 A 
HETATM   16  C10 UNL     1      26.238   4.833  49.069  1.00  0.00     0.004 A 
HETATM   17  C11 UNL     1      26.216   6.178  48.790  1.00  0.00     0.019 A 
HETATM   18  C12 UNL     1      25.484   7.036  49.598  1.00  0.00     0.013 A 
HETATM   19 BR1  UNL     1      25.450   8.898  49.212  1.00  0.00    -0.051 Br
HETATM   20  C13 UNL     1      24.806   6.467  50.662  1.00  0.00     0.048 A 
ENDBRANCH  12  14
ENDBRANCH   8  12
BRANCH   1  21
HETATM   21  S1  UNL     1      26.152   0.371  54.134  1.00  0.00     0.257 S 
HETATM   22  O1  UNL     1      25.959  -0.524  55.324  1.00  0.00    -0.201 OA
HETATM   23  O2  UNL     1      26.743   1.684  54.626  1.00  0.00    -0.201 OA
BRANCH  21  24
HETATM   24  C2  UNL     1      27.214  -0.438  53.016  1.00  0.00     0.122 C 
HETATM   25  C1  UNL     1      26.976  -1.693  52.654  1.00  0.00     0.025 C 
ENDBRANCH  21  24
ENDBRANCH   1  21
TORSDOF 4
ENDMDL
MODEL 4
REMARK VINA RESULT:      -7.3      3.992      5.714
REMARK  4 active torsions:
REMARK  status: ('A' for Active; 'I' for Inactive)
REMARK    1  A    between atoms: C2_2  and  S1_3 
REMARK    2  A    between atoms: S1_3  and  N1_6 
REMARK    3  A    between atoms: C7_13  and  N4_14 
REMARK    4  A    between atoms: N4_14  and  C8_15 
ROOT
HETATM    1  N1  UNL     1      20.645   0.860  51.255  1.00  0.00    -0.258 N 
HETATM    2  C3  UNL     1      19.566   0.291  51.974  1.00  0.00     0.110 A 
HETATM    3  C4  UNL     1      19.780  -0.387  53.105  1.00  0.00     0.032 A 
HETATM    4  C5  UNL     1      21.131  -0.562  53.630  1.00  0.00    -0.002 A 
HETATM    5  C6  UNL     1      21.420  -1.219  54.743  1.00  0.00     0.121 A 
HETATM    6  N2  UNL     1      22.784  -1.309  55.133  1.00  0.00    -0.287 N 
HETATM    7  N3  UNL     1      23.868  -0.746  54.422  1.00  0.00    -0.156 NA
HETATM    8  C7  UNL     1      23.622  -0.086  53.314  1.00  0.00     0.160 A 
HETATM    9  C14 UNL     1      22.219   0.035  52.865  1.00  0.00     0.040 A 
HETATM   10  C15 UNL     1      21.981   0.714  51.731  1.00  0.00     0.125 A 
HETATM   11  H7  UNL     1      23.038  -1.831  56.021  1.00  0.00     0.188 HD
ENDROOT
BRANCH   8  12
HETATM   12  N4  UNL     1      24.709   0.492  52.579  1.00  0.00    -0.339 N 
HETATM   13  H8  UNL     1      24.394   1.283  51.937  1.00  0.00     0.167 HD
BRANCH  12  14
HETATM   14  C8  UNL     1      26.029  -0.053  52.802  1.00  0.00     0.035 A 
HETATM   15  C9  UNL     1      26.511  -1.306  52.574  1.00  0.00     0.029 A 
HETATM   16  C10 UNL     1      27.825  -1.561  52.867  1.00  0.00     0.004 A 
HETATM   17  C11 UNL     1      28.678  -0.615  53.379  1.00  0.00     0.019 A 
HETATM   18  C12 UNL     1      28.215   0.671  53.622  1.00  0.00     0.013 A 
HETATM   19 BR1  UNL     1      29.395   1.983  54.329  1.00  0.00    -0.051 Br
HETATM   20  C13 UNL     1      26.887   0.922  53.325  1.00  0.00     0.048 A 
ENDBRANCH  12  14
ENDBRANCH   8  12
BRANCH   1  21
HETATM   21  S1  UNL     1      20.368   1.737  49.802  1.00  0.00     0.257 S 
HETATM   22  O1  UNL     1      20.606   3.203  50.024  1.00  0.00    -0.201 OA
HETATM   23  O2  UNL     1      18.900   1.550  49.446  1.00  0.00    -0.201 OA
BRANCH  21  24
HETATM   24  C2  UNL     1      21.417   1.207  48.517  1.00  0.00     0.122 C 
HETATM   25  C1  UNL     1      22.315   2.037  48.000  1.00  0.00     0.025 C 
ENDBRANCH  21  24
ENDBRANCH   1  21
TORSDOF 4
ENDMDL
MODEL 5
REMARK VINA RESULT:      -7.3      3.955      5.590
REMARK  4 active torsions:
REMARK  status: ('A' for Active; 'I' for Inactive)
REMARK    1  A    between atoms: C2_2  and  S1_3 
REMARK    2  A    between atoms: S1_3  and  N1_6 
REMARK    3  A    between atoms: C7_13  and  N4_14 
REMARK    4  A    between atoms: N4_14  and  C8_15 
ROOT
HETATM    1  N1  UNL     1      22.708   1.582  51.318  1.00  0.00    -0.258 N 
HETATM    2  C3  UNL     1      22.652   1.190  52.677  1.00  0.00     0.110 A 
HETATM    3  C4  UNL     1      23.737   1.261  53.455  1.00  0.00     0.032 A 
HETATM    4  C5  UNL     1      25.009   1.742  52.926  1.00  0.00    -0.002 A 
HETATM    5  C6  UNL     1      26.123   1.841  53.634  1.00  0.00     0.121 A 
HETATM    6  N2  UNL     1      27.290   2.328  52.983  1.00  0.00    -0.287 N 
HETATM    7  N3  UNL     1      27.356   2.721  51.628  1.00  0.00    -0.156 NA
HETATM    8  C7  UNL     1      26.272   2.638  50.893  1.00  0.00     0.160 A 
HETATM    9  C14 UNL     1      25.032   2.137  51.522  1.00  0.00     0.040 A 
HETATM   10  C15 UNL     1      23.930   2.059  50.759  1.00  0.00     0.125 A 
HETATM   11  H7  UNL     1      28.193   2.414  53.533  1.00  0.00     0.188 HD
ENDROOT
BRANCH   8  12
HETATM   12  N4  UNL     1      26.320   3.032  49.514  1.00  0.00    -0.339 N 
HETATM   13  H8  UNL     1      26.084   2.231  48.852  1.00  0.00     0.167 HD
BRANCH  12  14
HETATM   14  C8  UNL     1      26.666   4.406  49.225  1.00  0.00     0.035 A 
HETATM   15  C9  UNL     1      27.738   4.920  48.563  1.00  0.00     0.029 A 
HETATM   16  C10 UNL     1      27.822   6.279  48.414  1.00  0.00     0.004 A 
HETATM   17  C11 UNL     1      26.877   7.147  48.902  1.00  0.00     0.019 A 
HETATM   18  C12 UNL     1      25.772   6.653  49.582  1.00  0.00     0.013 A 
HETATM   19 BR1  UNL     1      24.461   7.853  50.256  1.00  0.00    -0.051 Br
HETATM   20  C13 UNL     1      25.694   5.279  49.729  1.00  0.00     0.048 A 
ENDBRANCH  12  14
ENDBRANCH   8  12
BRANCH   1  21
HETATM   21  S1  UNL     1      21.310   1.496  50.320  1.00  0.00     0.257 S 
HETATM   22  O1  UNL     1      20.542   2.785  50.386  1.00  0.00    -0.201 OA
HETATM   23  O2  UNL     1      20.427   0.395  50.891  1.00  0.00    -0.201 OA
BRANCH  21  24
HETATM   24  C2  UNL     1      21.722   1.196  48.655  1.00  0.00     0.122 C 
HETATM   25  C1  UNL     1      21.937   2.209  47.825  1.00  0.00     0.025 C 
ENDBRANCH  21  24
ENDBRANCH   1  21
TORSDOF 4
ENDMDL
MODEL 6
REMARK VINA RESULT:      -7.2      2.159      2.597
REMARK  4 active torsions:
REMARK  status: ('A' for Active; 'I' for Inactive)
REMARK    1  A    between atoms: C2_2  and  S1_3 
REMARK    2  A    between atoms: S1_3  and  N1_6 
REMARK    3  A    between atoms: C7_13  and  N4_14 
REMARK    4  A    between atoms: N4_14  and  C8_15 
ROOT
HETATM    1  N1  UNL     1      24.866  -0.194  53.606  1.00  0.00    -0.258 N 
HETATM    2  C3  UNL     1      24.128  -1.032  54.476  1.00  0.00     0.110 A 
HETATM    3  C4  UNL     1      22.810  -0.869  54.628  1.00  0.00     0.032 A 
HETATM    4  C5  UNL     1      22.095   0.175  53.901  1.00  0.00    -0.002 A 
HETATM    5  C6  UNL     1      20.794   0.395  53.998  1.00  0.00     0.121 A 
HETATM    6  N2  UNL     1      20.232   1.451  53.228  1.00  0.00    -0.287 N 
HETATM    7  N3  UNL     1      20.960   2.292  52.357  1.00  0.00    -0.156 NA
HETATM    8  C7  UNL     1      22.254   2.105  52.233  1.00  0.00     0.160 A 
HETATM    9  C14 UNL     1      22.885   1.020  53.013  1.00  0.00     0.040 A 
HETATM   10  C15 UNL     1      24.208   0.839  52.875  1.00  0.00     0.125 A 
HETATM   11  H7  UNL     1      19.191   1.644  53.292  1.00  0.00     0.188 HD
ENDROOT
BRANCH   8  12
HETATM   12  N4  UNL     1      23.009   2.950  51.354  1.00  0.00    -0.339 N 
HETATM   13  H8  UNL     1      23.728   3.542  51.873  1.00  0.00     0.167 HD
BRANCH  12  14
HETATM   14  C8  UNL     1      22.706   2.883  49.941  1.00  0.00     0.035 A 
HETATM   15  C9  UNL     1      22.369   1.817  49.166  1.00  0.00     0.029 A 
HETATM   16  C10 UNL     1      22.116   2.032  47.837  1.00  0.00     0.004 A 
HETATM   17  C11 UNL     1      22.188   3.271  47.250  1.00  0.00     0.019 A 
HETATM   18  C12 UNL     1      22.529   4.377  48.015  1.00  0.00     0.013 A 
HETATM   19 BR1  UNL     1      22.626   6.094  47.205  1.00  0.00    -0.051 Br
HETATM   20  C13 UNL     1      22.784   4.153  49.357  1.00  0.00     0.048 A 
ENDBRANCH  12  14
ENDBRANCH   8  12
BRANCH   1  21
HETATM   21  S1  UNL     1      26.561  -0.408  53.408  1.00  0.00     0.257 S 
HETATM   22  O1  UNL     1      27.039   0.318  52.183  1.00  0.00    -0.201 OA
HETATM   23  O2  UNL     1      26.797  -1.896  53.192  1.00  0.00    -0.201 OA
BRANCH  21  24
HETATM   24  C2  UNL     1      27.452   0.196  54.777  1.00  0.00     0.122 C 
HETATM   25  C1  UNL     1      28.732   0.527  54.651  1.00  0.00     0.025 C 
ENDBRANCH  21  24
ENDBRANCH   1  21
TORSDOF 4
ENDMDL
MODEL 7
REMARK VINA RESULT:      -7.0      8.044     10.399
REMARK  4 active torsions:
REMARK  status: ('A' for Active; 'I' for Inactive)
REMARK    1  A    between atoms: C2_2  and  S1_3 
REMARK    2  A    between atoms: S1_3  and  N1_6 
REMARK    3  A    between atoms: C7_13  and  N4_14 
REMARK    4  A    between atoms: N4_14  and  C8_15 
ROOT
HETATM    1  N1  UNL     1      32.272   6.163  47.475  1.00  0.00    -0.258 N 
HETATM    2  C3  UNL     1      33.232   6.950  48.155  1.00  0.00     0.110 A 
HETATM    3  C4  UNL     1      32.856   7.991  48.905  1.00  0.00     0.032 A 
HETATM    4  C5  UNL     1      31.447   8.345  49.042  1.00  0.00    -0.002 A 
HETATM    5  C6  UNL     1      30.999   9.359  49.766  1.00  0.00     0.121 A 
HETATM    6  N2  UNL     1      29.596   9.586  49.808  1.00  0.00    -0.287 N 
HETATM    7  N3  UNL     1      28.630   8.806  49.132  1.00  0.00    -0.156 NA
HETATM    8  C7  UNL     1      29.035   7.791  48.404  1.00  0.00     0.160 A 
HETATM    9  C14 UNL     1      30.485   7.514  48.328  1.00  0.00     0.040 A 
HETATM   10  C15 UNL     1      30.884   6.472  47.581  1.00  0.00     0.125 A 
HETATM   11  H7  UNL     1      29.216  10.393  50.382  1.00  0.00     0.188 HD
ENDROOT
BRANCH   8  12
HETATM   12  N4  UNL     1      28.069   6.989  47.710  1.00  0.00    -0.339 N 
HETATM   13  H8  UNL     1      27.999   7.237  46.676  1.00  0.00     0.167 HD
BRANCH  12  14
HETATM   14  C8  UNL     1      27.354   5.994  48.478  1.00  0.00     0.035 A 
HETATM   15  C9  UNL     1      27.622   4.673  48.667  1.00  0.00     0.029 A 
HETATM   16  C10 UNL     1      26.778   3.945  49.463  1.00  0.00     0.004 A 
HETATM   17  C11 UNL     1      25.675   4.484  50.079  1.00  0.00     0.019 A 
HETATM   18  C12 UNL     1      25.377   5.828  49.905  1.00  0.00     0.013 A 
HETATM   19 BR1  UNL     1      23.852   6.577  50.759  1.00  0.00    -0.051 Br
HETATM   20  C13 UNL     1      26.233   6.558  49.099  1.00  0.00     0.048 A 
ENDBRANCH  12  14
ENDBRANCH   8  12
BRANCH   1  21
HETATM   21  S1  UNL     1      32.757   4.821  46.515  1.00  0.00     0.257 S 
HETATM   22  O1  UNL     1      32.657   5.160  45.055  1.00  0.00    -0.201 OA
HETATM   23  O2  UNL     1      31.775   3.694  46.802  1.00  0.00    -0.201 OA
BRANCH  21  24
HETATM   24  C2  UNL     1      34.400   4.348  46.849  1.00  0.00     0.122 C 
HETATM   25  C1  UNL     1      34.974   3.378  46.147  1.00  0.00     0.025 C 
ENDBRANCH  21  24
ENDBRANCH   1  21
TORSDOF 4
ENDMDL
MODEL 8
REMARK VINA RESULT:      -7.0      3.770      5.356
REMARK  4 active torsions:
REMARK  status: ('A' for Active; 'I' for Inactive)
REMARK    1  A    between atoms: C2_2  and  S1_3 
REMARK    2  A    between atoms: S1_3  and  N1_6 
REMARK    3  A    between atoms: C7_13  and  N4_14 
REMARK    4  A    between atoms: N4_14  and  C8_15 
ROOT
HETATM    1  N1  UNL     1      22.652   1.233  51.475  1.00  0.00    -0.258 N 
HETATM    2  C3  UNL     1      22.754   0.623  52.748  1.00  0.00     0.110 A 
HETATM    3  C4  UNL     1      23.909   0.633  53.421  1.00  0.00     0.032 A 
HETATM    4  C5  UNL     1      25.096   1.272  52.862  1.00  0.00    -0.002 A 
HETATM    5  C6  UNL     1      26.272   1.324  53.468  1.00  0.00     0.121 A 
HETATM    6  N2  UNL     1      27.342   1.982  52.802  1.00  0.00    -0.287 N 
HETATM    7  N3  UNL     1      27.250   2.593  51.532  1.00  0.00    -0.156 NA
HETATM    8  C7  UNL     1      26.100   2.563  50.899  1.00  0.00     0.160 A 
HETATM    9  C14 UNL     1      24.956   1.890  51.549  1.00  0.00     0.040 A 
HETATM   10  C15 UNL     1      23.786   1.870  50.891  1.00  0.00     0.125 A 
HETATM   11  H7  UNL     1      28.293   2.033  53.271  1.00  0.00     0.188 HD
ENDROOT
BRANCH   8  12
HETATM   12  N4  UNL     1      25.988   3.178  49.607  1.00  0.00    -0.339 N 
HETATM   13  H8  UNL     1      25.839   2.467  48.828  1.00  0.00     0.167 HD
BRANCH  12  14
HETATM   14  C8  UNL     1      26.087   4.619  49.544  1.00  0.00     0.035 A 
HETATM   15  C9  UNL     1      25.299   5.577  50.104  1.00  0.00     0.029 A 
HETATM   16  C10 UNL     1      25.624   6.892  49.896  1.00  0.00     0.004 A 
HETATM   17  C11 UNL     1      26.707   7.288  49.149  1.00  0.00     0.019 A 
HETATM   18  C12 UNL     1      27.528   6.334  48.567  1.00  0.00     0.013 A 
HETATM   19 BR1  UNL     1      29.029   6.880  47.536  1.00  0.00    -0.051 Br
HETATM   20  C13 UNL     1      27.194   5.008  48.780  1.00  0.00     0.048 A 
ENDBRANCH  12  14
ENDBRANCH   8  12
BRANCH   1  21
HETATM   21  S1  UNL     1      21.163   1.223  50.613  1.00  0.00     0.257 S 
HETATM   22  O1  UNL     1      20.255   0.156  51.152  1.00  0.00    -0.201 OA
HETATM   23  O2  UNL     1      21.492   0.873  49.169  1.00  0.00    -0.201 OA
BRANCH  21  24
HETATM   24  C2  UNL     1      20.336   2.751  50.735  1.00  0.00     0.122 C 
HETATM   25  C1  UNL     1      20.549   3.547  51.775  1.00  0.00     0.025 C 
ENDBRANCH  21  24
ENDBRANCH   1  21
TORSDOF 4
ENDMDL
MODEL 9
REMARK VINA RESULT:      -7.0      2.122      2.760
REMARK  4 active torsions:
REMARK  status: ('A' for Active; 'I' for Inactive)
REMARK    1  A    between atoms: C2_2  and  S1_3 
REMARK    2  A    between atoms: S1_3  and  N1_6 
REMARK    3  A    between atoms: C7_13  and  N4_14 
REMARK    4  A    between atoms: N4_14  and  C8_15 
ROOT
HETATM    1  N1  UNL     1      26.261   0.416  53.506  1.00  0.00    -0.258 N 
HETATM    2  C3  UNL     1      25.485  -0.423  54.340  1.00  0.00     0.110 A 
HETATM    3  C4  UNL     1      24.166  -0.541  54.156  1.00  0.00     0.032 A 
HETATM    4  C5  UNL     1      23.490   0.193  53.091  1.00  0.00    -0.002 A 
HETATM    5  C6  UNL     1      22.191   0.126  52.846  1.00  0.00     0.121 A 
HETATM    6  N2  UNL     1      21.669   0.899  51.772  1.00  0.00    -0.287 N 
HETATM    7  N3  UNL     1      22.436   1.739  50.934  1.00  0.00    -0.156 NA
HETATM    8  C7  UNL     1      23.728   1.832  51.144  1.00  0.00     0.160 A 
HETATM    9  C14 UNL     1      24.319   1.049  52.250  1.00  0.00     0.040 A 
HETATM   10  C15 UNL     1      25.642   1.151  52.452  1.00  0.00     0.125 A 
HETATM   11  H7  UNL     1      20.630   0.860  51.560  1.00  0.00     0.188 HD
ENDROOT
BRANCH   8  12
HETATM   12  N4  UNL     1      24.522   2.681  50.304  1.00  0.00    -0.339 N 
HETATM   13  H8  UNL     1      25.556   2.421  50.320  1.00  0.00     0.167 HD
BRANCH  12  14
HETATM   14  C8  UNL     1      23.838   3.727  49.577  1.00  0.00     0.035 A 
HETATM   15  C9  UNL     1      23.105   3.666  48.433  1.00  0.00     0.029 A 
HETATM   16  C10 UNL     1      22.545   4.821  47.955  1.00  0.00     0.004 A 
HETATM   17  C11 UNL     1      22.689   6.038  48.575  1.00  0.00     0.019 A 
HETATM   18  C12 UNL     1      23.431   6.132  49.744  1.00  0.00     0.013 A 
HETATM   19 BR1  UNL     1      23.629   7.815  50.605  1.00  0.00    -0.051 Br
HETATM   20  C13 UNL     1      23.994   4.961  50.221  1.00  0.00     0.048 A 
ENDBRANCH  12  14
ENDBRANCH   8  12
BRANCH   1  21
HETATM   21  S1  UNL     1      27.958   0.562  53.741  1.00  0.00     0.257 S 
HETATM   22  O1  UNL     1      28.255   0.986  55.151  1.00  0.00    -0.201 OA
HETATM   23  O2  UNL     1      28.440   1.666  52.810  1.00  0.00    -0.201 OA
BRANCH  21  24
HETATM   24  C2  UNL     1      28.784  -0.942  53.443  1.00  0.00     0.122 C 
HETATM   25  C1  UNL     1      30.101  -1.023  53.586  1.00  0.00     0.025 C 
ENDBRANCH  21  24
ENDBRANCH   1  21
TORSDOF 4
ENDMDL
