MODEL 1
REMARK VINA RESULT:      -7.4      0.000      0.000
REMARK  3 active torsions:
REMARK  status: ('A' for Active; 'I' for Inactive)
REMARK    1  A    between atoms: C2_2  and  N1_3 
REMARK    2  A    between atoms: C5_6  and  N2_7 
REMARK    3  A    between atoms: C8_10  and  C9_11 
ROOT
HETATM    1  N1  UNL     1      27.705  -0.685  53.474  1.00  0.00    -0.387 N 
HETATM    2  C3  UNL     1      27.001  -0.634  52.233  1.00  0.00     0.163 C 
HETATM    3  C4  UNL     1      26.216   0.686  52.348  1.00  0.00     0.020 C 
HETATM    4  C5  UNL     1      25.039   0.898  53.010  1.00  0.00     0.109 C 
HETATM    5  N3  UNL     1      24.846   0.236  54.325  1.00  0.00    -0.372 N 
HETATM    6  C13 UNL     1      26.025  -0.104  55.194  1.00  0.00     0.167 C 
HETATM    7  C14 UNL     1      27.369   0.226  54.485  1.00  0.00     0.194 C 
HETATM    8  N4  UNL     1      27.734   1.570  54.419  1.00  0.00    -0.383 N 
HETATM    9  C15 UNL     1      28.555   2.156  53.383  1.00  0.00     0.266 C 
HETATM   10  N5  UNL     1      27.700   2.566  52.184  1.00  0.00    -0.282 NA
HETATM   11  C16 UNL     1      26.452   2.126  51.931  1.00  0.00     0.125 C 
HETATM   12  H19 UNL     1      23.839   0.106  54.468  1.00  0.00     0.161 HD
HETATM   13  H23 UNL     1      27.932   2.040  55.332  1.00  0.00     0.157 HD
ENDROOT
BRANCH   4  14
HETATM   14  N2  UNL     1      24.104   1.781  52.437  1.00  0.00    -0.359 N 
HETATM   15  C6  UNL     1      23.908   3.243  52.650  1.00  0.00     0.152 C 
HETATM   16  C7  UNL     1      22.555   3.651  52.225  1.00  0.00    -0.002 C 
HETATM   17  C8  UNL     1      21.993   3.222  51.099  1.00  0.00    -0.052 C 
HETATM   18  C10 UNL     1      22.898   2.293  50.355  1.00  0.00     0.061 C 
HETATM   19  C11 UNL     1      23.264   1.212  51.399  1.00  0.00     0.086 C 
HETATM   20  C12 UNL     1      21.965   0.606  51.754  1.00  0.00     0.032 C 
BRANCH  17  21
HETATM   21  C9  UNL     1      20.632   3.599  50.617  1.00  0.00     0.256 C 
HETATM   22  F1  UNL     1      19.914   4.174  51.633  1.00  0.00    -0.251 F 
ENDBRANCH  17  21
ENDBRANCH   4  14
BRANCH   1  23
HETATM   23  C2  UNL     1      28.968  -1.291  53.439  1.00  0.00     0.115 C 
HETATM   24  C1  UNL     1      28.943  -2.762  53.071  1.00  0.00     0.026 C 
ENDBRANCH   1  23
TORSDOF 3
ENDMDL
MODEL 2
REMARK VINA RESULT:      -7.3      3.706      6.604
REMARK  3 active torsions:
REMARK  status: ('A' for Active; 'I' for Inactive)
REMARK    1  A    between atoms: C2_2  and  N1_3 
REMARK    2  A    between atoms: C5_6  and  N2_7 
REMARK    3  A    between atoms: C8_10  and  C9_11 
ROOT
HETATM    1  N1  UNL     1      24.523   5.680  48.516  1.00  0.00    -0.387 N 
HETATM    2  C3  UNL     1      23.648   4.571  48.724  1.00  0.00     0.163 C 
HETATM    3  C4  UNL     1      24.159   3.987  50.054  1.00  0.00     0.020 C 
HETATM    4  C5  UNL     1      25.232   3.161  50.242  1.00  0.00     0.109 C 
HETATM    5  N3  UNL     1      26.463   3.421  49.453  1.00  0.00    -0.372 N 
HETATM    6  C13 UNL     1      26.791   4.809  48.978  1.00  0.00     0.167 C 
HETATM    7  C14 UNL     1      25.657   5.814  49.327  1.00  0.00     0.194 C 
HETATM    8  N4  UNL     1      25.569   6.228  50.655  1.00  0.00    -0.383 N 
HETATM    9  C15 UNL     1      24.352   6.648  51.315  1.00  0.00     0.266 C 
HETATM   10  N5  UNL     1      23.603   5.442  51.882  1.00  0.00    -0.282 NA
HETATM   11  C16 UNL     1      23.805   4.160  51.520  1.00  0.00     0.125 C 
HETATM   12  H19 UNL     1      26.964   2.532  49.348  1.00  0.00     0.161 HD
HETATM   13  H23 UNL     1      26.376   6.787  51.019  1.00  0.00     0.157 HD
ENDROOT
BRANCH   4  14
HETATM   14  N2  UNL     1      25.130   2.149  51.216  1.00  0.00    -0.359 N 
HETATM   15  C6  UNL     1      23.941   1.380  51.679  1.00  0.00     0.152 C 
HETATM   16  C7  UNL     1      24.195   0.782  53.004  1.00  0.00    -0.002 C 
HETATM   17  C8  UNL     1      25.341   0.185  53.318  1.00  0.00    -0.052 C 
HETATM   18  C10 UNL     1      26.303   0.211  52.174  1.00  0.00     0.061 C 
HETATM   19  C11 UNL     1      26.387   1.708  51.791  1.00  0.00     0.086 C 
HETATM   20  C12 UNL     1      26.908   2.358  53.010  1.00  0.00     0.032 C 
BRANCH  17  21
HETATM   21  C9  UNL     1      25.656  -0.437  54.637  1.00  0.00     0.256 C 
HETATM   22  F1  UNL     1      26.947  -0.151  54.997  1.00  0.00    -0.251 F 
ENDBRANCH  17  21
ENDBRANCH   4  14
BRANCH   1  23
HETATM   23  C2  UNL     1      23.963   6.790  47.868  1.00  0.00     0.115 C 
HETATM   24  C1  UNL     1      24.983   7.778  47.336  1.00  0.00     0.026 C 
ENDBRANCH   1  23
TORSDOF 3
ENDMDL
MODEL 3
REMARK VINA RESULT:      -7.2      2.887      6.426
REMARK  3 active torsions:
REMARK  status: ('A' for Active; 'I' for Inactive)
REMARK    1  A    between atoms: C2_2  and  N1_3 
REMARK    2  A    between atoms: C5_6  and  N2_7 
REMARK    3  A    between atoms: C8_10  and  C9_11 
ROOT
HETATM    1  N1  UNL     1      22.265   3.611  51.925  1.00  0.00    -0.387 N 
HETATM    2  C3  UNL     1      23.370   4.171  52.634  1.00  0.00     0.163 C 
HETATM    3  C4  UNL     1      24.486   3.140  52.382  1.00  0.00     0.020 C 
HETATM    4  C5  UNL     1      24.685   1.954  53.033  1.00  0.00     0.109 C 
HETATM    5  N3  UNL     1      23.495   1.136  53.378  1.00  0.00    -0.372 N 
HETATM    6  C13 UNL     1      22.241   1.218  52.552  1.00  0.00     0.167 C 
HETATM    7  C14 UNL     1      22.360   2.299  51.441  1.00  0.00     0.194 C 
HETATM    8  N4  UNL     1      23.140   1.979  50.330  1.00  0.00    -0.383 N 
HETATM    9  C15 UNL     1      23.848   2.936  49.509  1.00  0.00     0.266 C 
HETATM   10  N5  UNL     1      25.225   3.239  50.100  1.00  0.00    -0.282 NA
HETATM   11  C16 UNL     1      25.602   2.979  51.367  1.00  0.00     0.125 C 
HETATM   12  H19 UNL     1      23.727   0.572  54.202  1.00  0.00     0.161 HD
HETATM   13  H23 UNL     1      22.790   1.194  49.732  1.00  0.00     0.157 HD
ENDROOT
BRANCH   4  14
HETATM   14  N2  UNL     1      26.009   1.548  53.284  1.00  0.00    -0.359 N 
HETATM   15  C6  UNL     1      27.214   2.357  53.621  1.00  0.00     0.152 C 
HETATM   16  C7  UNL     1      28.445   1.596  53.337  1.00  0.00    -0.002 C 
HETATM   17  C8  UNL     1      28.589   0.313  53.655  1.00  0.00    -0.052 C 
HETATM   18  C10 UNL     1      27.363  -0.228  54.316  1.00  0.00     0.061 C 
HETATM   19  C11 UNL     1      26.224   0.113  53.326  1.00  0.00     0.086 C 
HETATM   20  C12 UNL     1      26.594  -0.612  52.094  1.00  0.00     0.032 C 
BRANCH  17  21
HETATM   21  C9  UNL     1      29.808  -0.508  53.394  1.00  0.00     0.256 C 
HETATM   22  F1  UNL     1      29.501  -1.842  53.464  1.00  0.00    -0.251 F 
ENDBRANCH  17  21
ENDBRANCH   4  14
BRANCH   1  23
HETATM   23  C2  UNL     1      21.374   4.529  51.352  1.00  0.00     0.115 C 
HETATM   24  C1  UNL     1      21.984   5.885  51.054  1.00  0.00     0.026 C 
ENDBRANCH   1  23
TORSDOF 3
ENDMDL
MODEL 4
REMARK VINA RESULT:      -6.7      2.786      6.721
REMARK  3 active torsions:
REMARK  status: ('A' for Active; 'I' for Inactive)
REMARK    1  A    between atoms: C2_2  and  N1_3 
REMARK    2  A    between atoms: C5_6  and  N2_7 
REMARK    3  A    between atoms: C8_10  and  C9_11 
ROOT
HETATM    1  N1  UNL     1      21.981   4.145  50.329  1.00  0.00    -0.387 N 
HETATM    2  C3  UNL     1      22.995   3.308  49.773  1.00  0.00     0.163 C 
HETATM    3  C4  UNL     1      23.355   2.389  50.955  1.00  0.00     0.020 C 
HETATM    4  C5  UNL     1      24.182   2.672  52.006  1.00  0.00     0.109 C 
HETATM    5  N3  UNL     1      24.123   4.032  52.598  1.00  0.00    -0.372 N 
HETATM    6  C13 UNL     1      22.857   4.843  52.535  1.00  0.00     0.167 C 
HETATM    7  C14 UNL     1      21.756   4.115  51.712  1.00  0.00     0.194 C 
HETATM    8  N4  UNL     1      21.108   3.047  52.331  1.00  0.00    -0.383 N 
HETATM    9  C15 UNL     1      20.524   1.918  51.641  1.00  0.00     0.266 C 
HETATM   10  N5  UNL     1      21.575   0.837  51.389  1.00  0.00    -0.282 NA
HETATM   11  C16 UNL     1      22.908   1.021  51.439  1.00  0.00     0.125 C 
HETATM   12  H19 UNL     1      25.037   4.236  53.015  1.00  0.00     0.161 HD
HETATM   13  H23 UNL     1      20.530   3.282  53.171  1.00  0.00     0.157 HD
ENDROOT
BRANCH   4  14
HETATM   14  N2  UNL     1      24.999   1.640  52.506  1.00  0.00    -0.359 N 
HETATM   15  C6  UNL     1      24.709   0.598  53.531  1.00  0.00     0.152 C 
HETATM   16  C7  UNL     1      25.963   0.043  54.074  1.00  0.00    -0.002 C 
HETATM   17  C8  UNL     1      27.003  -0.273  53.308  1.00  0.00    -0.052 C 
HETATM   18  C10 UNL     1      26.727   0.010  51.867  1.00  0.00     0.061 C 
HETATM   19  C11 UNL     1      26.288   1.494  51.856  1.00  0.00     0.086 C 
HETATM   20  C12 UNL     1      27.464   2.216  52.381  1.00  0.00     0.032 C 
BRANCH  17  21
HETATM   21  C9  UNL     1      28.295  -0.838  53.798  1.00  0.00     0.256 C 
HETATM   22  F1  UNL     1      28.662  -0.227  54.968  1.00  0.00    -0.251 F 
ENDBRANCH  17  21
ENDBRANCH   4  14
BRANCH   1  23
HETATM   23  C2  UNL     1      20.980   4.568  49.444  1.00  0.00     0.115 C 
HETATM   24  C1  UNL     1      20.928   3.787  48.145  1.00  0.00     0.026 C 
ENDBRANCH   1  23
TORSDOF 3
ENDMDL
MODEL 5
REMARK VINA RESULT:      -6.7      3.656      6.430
REMARK  3 active torsions:
REMARK  status: ('A' for Active; 'I' for Inactive)
REMARK    1  A    between atoms: C2_2  and  N1_3 
REMARK    2  A    between atoms: C5_6  and  N2_7 
REMARK    3  A    between atoms: C8_10  and  C9_11 
ROOT
HETATM    1  N1  UNL     1      24.760   6.136  48.390  1.00  0.00    -0.387 N 
HETATM    2  C3  UNL     1      23.647   5.245  48.299  1.00  0.00     0.163 C 
HETATM    3  C4  UNL     1      23.720   4.482  49.634  1.00  0.00     0.020 C 
HETATM    4  C5  UNL     1      24.527   3.422  49.943  1.00  0.00     0.109 C 
HETATM    5  N3  UNL     1      25.928   3.441  49.450  1.00  0.00    -0.372 N 
HETATM    6  C13 UNL     1      26.637   4.744  49.201  1.00  0.00     0.167 C 
HETATM    7  C14 UNL     1      25.691   5.958  49.423  1.00  0.00     0.194 C 
HETATM    8  N4  UNL     1      25.403   6.301  50.743  1.00  0.00    -0.383 N 
HETATM    9  C15 UNL     1      24.187   6.947  51.186  1.00  0.00     0.266 C 
HETATM   10  N5  UNL     1      23.096   5.912  51.459  1.00  0.00    -0.282 NA
HETATM   11  C16 UNL     1      23.098   4.642  51.009  1.00  0.00     0.125 C 
HETATM   12  H19 UNL     1      26.241   2.470  49.352  1.00  0.00     0.161 HD
HETATM   13  H23 UNL     1      26.210   6.639  51.318  1.00  0.00     0.157 HD
ENDROOT
BRANCH   4  14
HETATM   14  N2  UNL     1      24.004   2.404  50.763  1.00  0.00    -0.359 N 
HETATM   15  C6  UNL     1      22.771   1.583  50.604  1.00  0.00     0.152 C 
HETATM   16  C7  UNL     1      22.371   0.993  51.896  1.00  0.00    -0.002 C 
HETATM   17  C8  UNL     1      23.242   0.445  52.738  1.00  0.00    -0.052 C 
HETATM   18  C10 UNL     1      24.637   0.515  52.205  1.00  0.00     0.061 C 
HETATM   19  C11 UNL     1      24.839   2.015  51.884  1.00  0.00     0.086 C 
HETATM   20  C12 UNL     1      24.676   2.683  53.191  1.00  0.00     0.032 C 
BRANCH  17  21
HETATM   21  C9  UNL     1      22.900  -0.168  54.055  1.00  0.00     0.256 C 
HETATM   22  F1  UNL     1      22.061  -1.237  53.874  1.00  0.00    -0.251 F 
ENDBRANCH  17  21
ENDBRANCH   4  14
BRANCH   1  23
HETATM   23  C2  UNL     1      24.602   7.381  47.767  1.00  0.00     0.115 C 
HETATM   24  C1  UNL     1      23.522   7.412  46.703  1.00  0.00     0.026 C 
ENDBRANCH   1  23
TORSDOF 3
ENDMDL
MODEL 6
REMARK VINA RESULT:      -6.6      3.818      5.737
REMARK  3 active torsions:
REMARK  status: ('A' for Active; 'I' for Inactive)
REMARK    1  A    between atoms: C2_2  and  N1_3 
REMARK    2  A    between atoms: C5_6  and  N2_7 
REMARK    3  A    between atoms: C8_10  and  C9_11 
ROOT
HETATM    1  N1  UNL     1      25.503   5.285  49.694  1.00  0.00    -0.387 N 
HETATM    2  C3  UNL     1      25.557   3.876  49.919  1.00  0.00     0.163 C 
HETATM    3  C4  UNL     1      24.095   3.537  50.266  1.00  0.00     0.020 C 
HETATM    4  C5  UNL     1      23.469   3.693  51.472  1.00  0.00     0.109 C 
HETATM    5  N3  UNL     1      23.764   4.916  52.261  1.00  0.00    -0.372 N 
HETATM    6  C13 UNL     1      24.178   6.190  51.577  1.00  0.00     0.167 C 
HETATM    7  C14 UNL     1      24.341   5.986  50.044  1.00  0.00     0.194 C 
HETATM    8  N4  UNL     1      23.171   5.896  49.292  1.00  0.00    -0.383 N 
HETATM    9  C15 UNL     1      23.037   5.170  48.048  1.00  0.00     0.266 C 
HETATM   10  N5  UNL     1      22.706   3.701  48.315  1.00  0.00    -0.282 NA
HETATM   11  C16 UNL     1      22.880   3.065  49.490  1.00  0.00     0.125 C 
HETATM   12  H19 UNL     1      23.616   4.696  53.251  1.00  0.00     0.161 HD
HETATM   13  H23 UNL     1      22.575   6.756  49.262  1.00  0.00     0.157 HD
ENDROOT
BRANCH   4  14
HETATM   14  N2  UNL     1      22.535   2.717  51.867  1.00  0.00    -0.359 N 
HETATM   15  C6  UNL     1      21.072   2.835  52.121  1.00  0.00     0.152 C 
HETATM   16  C7  UNL     1      20.598   1.710  52.950  1.00  0.00    -0.002 C 
HETATM   17  C8  UNL     1      20.978   0.453  52.744  1.00  0.00    -0.052 C 
HETATM   18  C10 UNL     1      21.926   0.349  51.593  1.00  0.00     0.061 C 
HETATM   19  C11 UNL     1      23.045   1.360  51.940  1.00  0.00     0.086 C 
HETATM   20  C12 UNL     1      23.604   0.850  53.208  1.00  0.00     0.032 C 
BRANCH  17  21
HETATM   21  C9  UNL     1      20.533  -0.724  53.546  1.00  0.00     0.256 C 
HETATM   22  F1  UNL     1      21.569  -1.607  53.703  1.00  0.00    -0.251 F 
ENDBRANCH  17  21
ENDBRANCH   4  14
BRANCH   1  23
HETATM   23  C2  UNL     1      26.385   5.787  48.728  1.00  0.00     0.115 C 
HETATM   24  C1  UNL     1      27.680   5.007  48.603  1.00  0.00     0.026 C 
ENDBRANCH   1  23
TORSDOF 3
ENDMDL
MODEL 7
REMARK VINA RESULT:      -6.5      4.200      6.697
REMARK  3 active torsions:
REMARK  status: ('A' for Active; 'I' for Inactive)
REMARK    1  A    between atoms: C2_2  and  N1_3 
REMARK    2  A    between atoms: C5_6  and  N2_7 
REMARK    3  A    between atoms: C8_10  and  C9_11 
ROOT
HETATM    1  N1  UNL     1      21.662   3.077  52.234  1.00  0.00    -0.387 N 
HETATM    2  C3  UNL     1      21.748   4.331  51.558  1.00  0.00     0.163 C 
HETATM    3  C4  UNL     1      22.981   4.141  50.655  1.00  0.00     0.020 C 
HETATM    4  C5  UNL     1      24.296   4.255  51.009  1.00  0.00     0.109 C 
HETATM    5  N3  UNL     1      24.716   3.718  52.328  1.00  0.00    -0.372 N 
HETATM    6  C13 UNL     1      23.971   2.577  52.965  1.00  0.00     0.167 C 
HETATM    7  C14 UNL     1      22.726   2.171  52.127  1.00  0.00     0.194 C 
HETATM    8  N4  UNL     1      22.960   1.443  50.961  1.00  0.00    -0.383 N 
HETATM    9  C15 UNL     1      22.113   1.457  49.789  1.00  0.00     0.266 C 
HETATM   10  N5  UNL     1      22.488   2.616  48.866  1.00  0.00    -0.282 NA
HETATM   11  C16 UNL     1      23.216   3.692  49.224  1.00  0.00     0.125 C 
HETATM   12  H19 UNL     1      25.538   4.247  52.637  1.00  0.00     0.161 HD
HETATM   13  H23 UNL     1      23.367   0.487  51.088  1.00  0.00     0.157 HD
ENDROOT
BRANCH   4  14
HETATM   14  N2  UNL     1      25.188   4.819  50.078  1.00  0.00    -0.359 N 
HETATM   15  C6  UNL     1      26.298   4.189  49.309  1.00  0.00     0.152 C 
HETATM   16  C7  UNL     1      27.244   5.216  48.830  1.00  0.00    -0.002 C 
HETATM   17  C8  UNL     1      26.848   6.369  48.299  1.00  0.00    -0.052 C 
HETATM   18  C10 UNL     1      25.358   6.473  48.264  1.00  0.00     0.061 C 
HETATM   19  C11 UNL     1      24.930   6.204  49.727  1.00  0.00     0.086 C 
HETATM   20  C12 UNL     1      25.576   7.290  50.491  1.00  0.00     0.032 C 
BRANCH  17  21
HETATM   21  C9  UNL     1      27.755   7.443  47.798  1.00  0.00     0.256 C 
HETATM   22  F1  UNL     1      28.718   6.905  46.985  1.00  0.00    -0.251 F 
ENDBRANCH  17  21
ENDBRANCH   4  14
BRANCH   1  23
HETATM   23  C2  UNL     1      20.369   2.637  52.550  1.00  0.00     0.115 C 
HETATM   24  C1  UNL     1      19.291   3.152  51.616  1.00  0.00     0.026 C 
ENDBRANCH   1  23
TORSDOF 3
ENDMDL
MODEL 8
REMARK VINA RESULT:      -6.5      4.097      5.605
REMARK  3 active torsions:
REMARK  status: ('A' for Active; 'I' for Inactive)
REMARK    1  A    between atoms: C2_2  and  N1_3 
REMARK    2  A    between atoms: C5_6  and  N2_7 
REMARK    3  A    between atoms: C8_10  and  C9_11 
ROOT
HETATM    1  N1  UNL     1      23.796   1.829  52.543  1.00  0.00    -0.387 N 
HETATM    2  C3  UNL     1      24.006   1.750  51.133  1.00  0.00     0.163 C 
HETATM    3  C4  UNL     1      25.092   2.817  50.897  1.00  0.00     0.020 C 
HETATM    4  C5  UNL     1      24.918   4.169  50.783  1.00  0.00     0.109 C 
HETATM    5  N3  UNL     1      23.940   4.827  51.685  1.00  0.00    -0.372 N 
HETATM    6  C13 UNL     1      23.630   4.247  53.037  1.00  0.00     0.167 C 
HETATM    7  C14 UNL     1      24.363   2.893  53.258  1.00  0.00     0.194 C 
HETATM    8  N4  UNL     1      25.729   2.952  53.533  1.00  0.00    -0.383 N 
HETATM    9  C15 UNL     1      26.686   1.917  53.210  1.00  0.00     0.266 C 
HETATM   10  N5  UNL     1      27.200   2.084  51.781  1.00  0.00    -0.282 NA
HETATM   11  C16 UNL     1      26.607   2.821  50.822  1.00  0.00     0.125 C 
HETATM   12  H19 UNL     1      23.594   5.670  51.214  1.00  0.00     0.161 HD
HETATM   13  H23 UNL     1      25.998   3.411  54.434  1.00  0.00     0.157 HD
ENDROOT
BRANCH   4  14
HETATM   14  N2  UNL     1      25.721   4.866  49.861  1.00  0.00    -0.359 N 
HETATM   15  C6  UNL     1      26.865   4.392  49.033  1.00  0.00     0.152 C 
HETATM   16  C7  UNL     1      27.688   5.532  48.585  1.00  0.00    -0.002 C 
HETATM   17  C8  UNL     1      27.163   6.664  48.126  1.00  0.00    -0.052 C 
HETATM   18  C10 UNL     1      25.669   6.616  48.133  1.00  0.00     0.061 C 
HETATM   19  C11 UNL     1      25.315   6.233  49.589  1.00  0.00     0.086 C 
HETATM   20  C12 UNL     1      25.870   7.340  50.394  1.00  0.00     0.032 C 
BRANCH  17  21
HETATM   21  C9  UNL     1      27.942   7.848  47.659  1.00  0.00     0.256 C 
HETATM   22  F1  UNL     1      29.027   7.441  46.928  1.00  0.00    -0.251 F 
ENDBRANCH  17  21
ENDBRANCH   4  14
BRANCH   1  23
HETATM   23  C2  UNL     1      23.462   0.627  53.182  1.00  0.00     0.115 C 
HETATM   24  C1  UNL     1      22.285  -0.101  52.563  1.00  0.00     0.026 C 
ENDBRANCH   1  23
TORSDOF 3
ENDMDL
MODEL 9
REMARK VINA RESULT:      -6.5      2.944      6.712
REMARK  3 active torsions:
REMARK  status: ('A' for Active; 'I' for Inactive)
REMARK    1  A    between atoms: C2_2  and  N1_3 
REMARK    2  A    between atoms: C5_6  and  N2_7 
REMARK    3  A    between atoms: C8_10  and  C9_11 
ROOT
HETATM    1  N1  UNL     1      21.019   3.505  51.157  1.00  0.00    -0.387 N 
HETATM    2  C3  UNL     1      21.190   2.700  52.323  1.00  0.00     0.163 C 
HETATM    3  C4  UNL     1      22.720   2.543  52.401  1.00  0.00     0.020 C 
HETATM    4  C5  UNL     1      23.502   1.669  51.698  1.00  0.00     0.109 C 
HETATM    5  N3  UNL     1      23.176   1.429  50.270  1.00  0.00    -0.372 N 
HETATM    6  C13 UNL     1      22.493   2.489  49.450  1.00  0.00     0.167 C 
HETATM    7  C14 UNL     1      22.118   3.726  50.315  1.00  0.00     0.194 C 
HETATM    8  N4  UNL     1      23.156   4.587  50.667  1.00  0.00    -0.383 N 
HETATM    9  C15 UNL     1      23.187   5.405  51.860  1.00  0.00     0.266 C 
HETATM   10  N5  UNL     1      23.749   4.616  53.042  1.00  0.00    -0.282 NA
HETATM   11  C16 UNL     1      23.849   3.273  53.103  1.00  0.00     0.125 C 
HETATM   12  H19 UNL     1      23.507   0.491  50.023  1.00  0.00     0.161 HD
HETATM   13  H23 UNL     1      23.621   5.096  49.880  1.00  0.00     0.157 HD
ENDROOT
BRANCH   4  14
HETATM   14  N2  UNL     1      24.608   1.094  52.352  1.00  0.00    -0.359 N 
HETATM   15  C6  UNL     1      24.685   0.368  53.651  1.00  0.00     0.152 C 
HETATM   16  C7  UNL     1      26.070   0.362  54.160  1.00  0.00    -0.002 C 
HETATM   17  C8  UNL     1      27.122   0.125  53.382  1.00  0.00    -0.052 C 
HETATM   18  C10 UNL     1      26.712  -0.121  51.966  1.00  0.00     0.061 C 
HETATM   19  C11 UNL     1      25.854   1.115  51.607  1.00  0.00     0.086 C 
HETATM   20  C12 UNL     1      26.784   2.251  51.759  1.00  0.00     0.032 C 
BRANCH  17  21
HETATM   21  C9  UNL     1      28.543   0.104  53.838  1.00  0.00     0.256 C 
HETATM   22  F1  UNL     1      29.129  -1.089  53.501  1.00  0.00    -0.251 F 
ENDBRANCH  17  21
ENDBRANCH   4  14
BRANCH   1  23
HETATM   23  C2  UNL     1      19.936   4.395  51.177  1.00  0.00     0.115 C 
HETATM   24  C1  UNL     1      19.696   5.112  49.863  1.00  0.00     0.026 C 
ENDBRANCH   1  23
TORSDOF 3
ENDMDL
