MODEL 1
REMARK VINA RESULT:      -7.7      0.000      0.000
REMARK  7 active torsions:
REMARK  status: ('A' for Active; 'I' for Inactive)
REMARK    1  A    between atoms: C2_2  and  N1_3 
REMARK    2  A    between atoms: N1_3  and  C3_4 
REMARK    3  A    between atoms: N1_3  and  C18_27 
REMARK    4  A    between atoms: C4_5  and  C5_6 
REMARK       I    between atoms: C5_6  and  N2_8 
REMARK    5  A    between atoms: N2_8  and  N3_9 
REMARK    6  A    between atoms: C10_15  and  N5_16 
REMARK    7  A    between atoms: N5_16  and  C11_17 
ROOT
HETATM    1  N3  UNL     1      25.855   4.692  49.764  1.00  0.00    -0.240 N 
HETATM    2  C6  UNL     1      24.998   5.577  50.300  1.00  0.00     0.233 C 
HETATM    3  N4  UNL     1      23.812   5.951  49.798  1.00  0.00    -0.254 NA
HETATM    4  C7  UNL     1      22.672   5.293  50.050  1.00  0.00     0.118 C 
HETATM    5  C8  UNL     1      21.645   4.379  50.314  1.00  0.00     0.023 C 
HETATM    6  C9  UNL     1      21.809   3.206  49.561  1.00  0.00     0.052 C 
HETATM    7  C10 UNL     1      23.022   2.614  49.817  1.00  0.00     0.129 C 
HETATM    8  N6  UNL     1      23.858   3.365  49.135  1.00  0.00    -0.225 NA
HETATM    9  C17 UNL     1      25.088   3.604  49.624  1.00  0.00     0.236 C 
ENDROOT
BRANCH   1  10
HETATM   10  N2  UNL     1      27.197   4.704  49.385  1.00  0.00    -0.251 N 
HETATM   11  C5  UNL     1      27.722   5.664  48.491  1.00  0.00     0.317 C 
HETATM   12  O1  UNL     1      26.978   6.552  48.003  1.00  0.00    -0.256 OA
HETATM   13  H6  UNL     1      27.795   3.963  49.797  1.00  0.00     0.191 HD
BRANCH  11  14
HETATM   14  C4  UNL     1      29.133   5.553  48.190  1.00  0.00     0.019 C 
HETATM   15  C3  UNL     1      30.306   5.472  47.942  1.00  0.00     0.018 C 
BRANCH  15  16
HETATM   16  N1  UNL     1      31.685   5.359  47.662  1.00  0.00    -0.342 N 
BRANCH  16  17
HETATM   17  C2  UNL     1      32.505   6.481  47.246  1.00  0.00     0.128 C 
HETATM   18  C1  UNL     1      33.741   6.573  48.104  1.00  0.00     0.027 C 
ENDBRANCH  16  17
BRANCH  16  19
HETATM   19  C18 UNL     1      32.384   4.087  47.783  1.00  0.00     0.128 C 
HETATM   20  C19 UNL     1      32.044   3.268  46.571  1.00  0.00     0.027 C 
ENDBRANCH  16  19
ENDBRANCH  15  16
ENDBRANCH  11  14
ENDBRANCH   1  10
BRANCH   7  21
HETATM   21  N5  UNL     1      22.452   1.625  50.634  1.00  0.00    -0.341 N 
HETATM   22  H11 UNL     1      21.564   1.638  50.087  1.00  0.00     0.167 HD
BRANCH  21  23
HETATM   23  C11 UNL     1      23.017   0.974  51.742  1.00  0.00     0.035 A 
HETATM   24  C12 UNL     1      24.323   1.152  52.118  1.00  0.00     0.032 A 
HETATM   25  C13 UNL     1      24.791   0.434  53.205  1.00  0.00     0.046 A 
HETATM   26  C14 UNL     1      23.966  -0.448  53.907  1.00  0.00     0.138 A 
HETATM   27  F1  UNL     1      24.387  -1.170  54.980  1.00  0.00    -0.204 F 
HETATM   28  C15 UNL     1      22.650  -0.632  53.531  1.00  0.00     0.074 A 
HETATM   29 CL1  UNL     1      21.568  -1.741  54.385  1.00  0.00    -0.081 Cl
HETATM   30  C16 UNL     1      22.195   0.092  52.443  1.00  0.00     0.056 A 
ENDBRANCH  21  23
ENDBRANCH   7  21
TORSDOF 7
ENDMDL
MODEL 2
REMARK VINA RESULT:      -7.6      2.027      2.755
REMARK  7 active torsions:
REMARK  status: ('A' for Active; 'I' for Inactive)
REMARK    1  A    between atoms: C2_2  and  N1_3 
REMARK    2  A    between atoms: N1_3  and  C3_4 
REMARK    3  A    between atoms: N1_3  and  C18_27 
REMARK    4  A    between atoms: C4_5  and  C5_6 
REMARK       I    between atoms: C5_6  and  N2_8 
REMARK    5  A    between atoms: N2_8  and  N3_9 
REMARK    6  A    between atoms: C10_15  and  N5_16 
REMARK    7  A    between atoms: N5_16  and  C11_17 
ROOT
HETATM    1  N3  UNL     1      24.437   4.168  51.183  1.00  0.00    -0.240 N 
HETATM    2  C6  UNL     1      23.566   4.700  52.056  1.00  0.00     0.233 C 
HETATM    3  N4  UNL     1      22.245   4.853  51.881  1.00  0.00    -0.254 NA
HETATM    4  C7  UNL     1      21.354   3.898  52.180  1.00  0.00     0.118 C 
HETATM    5  C8  UNL     1      20.624   2.726  52.411  1.00  0.00     0.023 C 
HETATM    6  C9  UNL     1      20.844   1.787  51.391  1.00  0.00     0.052 C 
HETATM    7  C10 UNL     1      22.178   1.478  51.276  1.00  0.00     0.129 C 
HETATM    8  N6  UNL     1      22.662   2.524  50.643  1.00  0.00    -0.225 NA
HETATM    9  C17 UNL     1      23.897   2.968  50.940  1.00  0.00     0.236 C 
ENDROOT
BRANCH   1  10
HETATM   10  N2  UNL     1      25.622   4.581  50.576  1.00  0.00    -0.251 N 
HETATM   11  C5  UNL     1      25.650   5.171  49.292  1.00  0.00     0.317 C 
HETATM   12  O1  UNL     1      24.584   5.342  48.649  1.00  0.00    -0.256 OA
HETATM   13  H6  UNL     1      26.492   4.430  51.122  1.00  0.00     0.191 HD
BRANCH  11  14
HETATM   14  C4  UNL     1      26.952   5.551  48.791  1.00  0.00     0.019 C 
HETATM   15  C3  UNL     1      28.034   5.859  48.366  1.00  0.00     0.018 C 
BRANCH  15  16
HETATM   16  N1  UNL     1      29.300   6.242  47.871  1.00  0.00    -0.342 N 
BRANCH  16  17
HETATM   17  C2  UNL     1      29.577   7.563  47.341  1.00  0.00     0.128 C 
HETATM   18  C1  UNL     1      29.061   8.623  48.280  1.00  0.00     0.027 C 
ENDBRANCH  16  17
BRANCH  16  19
HETATM   19  C18 UNL     1      30.427   5.319  47.869  1.00  0.00     0.128 C 
HETATM   20  C19 UNL     1      31.469   5.879  48.795  1.00  0.00     0.027 C 
ENDBRANCH  16  19
ENDBRANCH  15  16
ENDBRANCH  11  14
ENDBRANCH   1  10
BRANCH   7  21
HETATM   21  N5  UNL     1      22.027   0.247  51.934  1.00  0.00    -0.341 N 
HETATM   22  H11 UNL     1      21.278  -0.051  51.273  1.00  0.00     0.167 HD
BRANCH  21  23
HETATM   23  C11 UNL     1      22.715  -0.233  53.059  1.00  0.00     0.035 A 
HETATM   24  C12 UNL     1      22.080  -0.834  54.115  1.00  0.00     0.032 A 
HETATM   25  C13 UNL     1      22.850  -1.239  55.192  1.00  0.00     0.046 A 
HETATM   26  C14 UNL     1      24.234  -1.046  55.214  1.00  0.00     0.138 A 
HETATM   27  F1  UNL     1      25.024  -1.432  56.252  1.00  0.00    -0.204 F 
HETATM   28  C15 UNL     1      24.878  -0.441  54.153  1.00  0.00     0.074 A 
HETATM   29 CL1  UNL     1      26.626  -0.171  54.137  1.00  0.00    -0.081 Cl
HETATM   30  C16 UNL     1      24.097  -0.041  53.083  1.00  0.00     0.056 A 
ENDBRANCH  21  23
ENDBRANCH   7  21
TORSDOF 7
ENDMDL
MODEL 3
REMARK VINA RESULT:      -7.5      3.023      3.732
REMARK  7 active torsions:
REMARK  status: ('A' for Active; 'I' for Inactive)
REMARK    1  A    between atoms: C2_2  and  N1_3 
REMARK    2  A    between atoms: N1_3  and  C3_4 
REMARK    3  A    between atoms: N1_3  and  C18_27 
REMARK    4  A    between atoms: C4_5  and  C5_6 
REMARK       I    between atoms: C5_6  and  N2_8 
REMARK    5  A    between atoms: N2_8  and  N3_9 
REMARK    6  A    between atoms: C10_15  and  N5_16 
REMARK    7  A    between atoms: N5_16  and  C11_17 
ROOT
HETATM    1  N3  UNL     1      24.882   5.820  50.570  1.00  0.00    -0.240 N 
HETATM    2  C6  UNL     1      23.566   5.990  50.773  1.00  0.00     0.233 C 
HETATM    3  N4  UNL     1      22.566   5.469  50.046  1.00  0.00    -0.254 NA
HETATM    4  C7  UNL     1      22.044   4.258  50.286  1.00  0.00     0.118 C 
HETATM    5  C8  UNL     1      21.759   2.926  50.610  1.00  0.00     0.023 C 
HETATM    6  C9  UNL     1      22.782   2.072  50.169  1.00  0.00     0.052 C 
HETATM    7  C10 UNL     1      23.994   2.422  50.711  1.00  0.00     0.129 C 
HETATM    8  N6  UNL     1      24.337   3.471  49.995  1.00  0.00    -0.225 NA
HETATM    9  C17 UNL     1      25.000   4.486  50.578  1.00  0.00     0.236 C 
ENDROOT
BRANCH   1  10
HETATM   10  N2  UNL     1      25.981   6.656  50.380  1.00  0.00    -0.251 N 
HETATM   11  C5  UNL     1      26.329   7.172  49.111  1.00  0.00     0.317 C 
HETATM   12  O1  UNL     1      25.644   6.882  48.098  1.00  0.00    -0.256 OA
HETATM   13  H6  UNL     1      26.536   6.883  51.227  1.00  0.00     0.191 HD
BRANCH  11  14
HETATM   14  C4  UNL     1      27.494   8.028  49.066  1.00  0.00     0.019 C 
HETATM   15  C3  UNL     1      28.462   8.740  49.018  1.00  0.00     0.018 C 
BRANCH  15  16
HETATM   16  N1  UNL     1      29.590   9.587  48.978  1.00  0.00    -0.342 N 
BRANCH  16  17
HETATM   17  C2  UNL     1      30.873   9.228  49.552  1.00  0.00     0.128 C 
HETATM   18  C1  UNL     1      31.262   7.834  49.132  1.00  0.00     0.027 C 
ENDBRANCH  16  17
BRANCH  16  19
HETATM   19  C18 UNL     1      29.537  10.896  48.340  1.00  0.00     0.128 C 
HETATM   20  C19 UNL     1      30.538  11.776  49.032  1.00  0.00     0.027 C 
ENDBRANCH  16  19
ENDBRANCH  15  16
ENDBRANCH  11  14
ENDBRANCH   1  10
BRANCH   7  21
HETATM   21  N5  UNL     1      23.964   1.376  51.647  1.00  0.00    -0.341 N 
HETATM   22  H11 UNL     1      22.996   1.109  51.365  1.00  0.00     0.167 HD
BRANCH  21  23
HETATM   23  C11 UNL     1      24.962   0.984  52.551  1.00  0.00     0.035 A 
HETATM   24  C12 UNL     1      24.834  -0.111  53.368  1.00  0.00     0.032 A 
HETATM   25  C13 UNL     1      25.864  -0.389  54.250  1.00  0.00     0.046 A 
HETATM   26  C14 UNL     1      27.006   0.414  54.315  1.00  0.00     0.138 A 
HETATM   27  F1  UNL     1      28.039   0.172  55.167  1.00  0.00    -0.204 F 
HETATM   28  C15 UNL     1      27.140   1.517  53.496  1.00  0.00     0.074 A 
HETATM   29 CL1  UNL     1      28.563   2.565  53.546  1.00  0.00    -0.081 Cl
HETATM   30  C16 UNL     1      26.103   1.784  52.619  1.00  0.00     0.056 A 
ENDBRANCH  21  23
ENDBRANCH   7  21
TORSDOF 7
ENDMDL
MODEL 4
REMARK VINA RESULT:      -7.4      3.913      5.056
REMARK  7 active torsions:
REMARK  status: ('A' for Active; 'I' for Inactive)
REMARK    1  A    between atoms: C2_2  and  N1_3 
REMARK    2  A    between atoms: N1_3  and  C3_4 
REMARK    3  A    between atoms: N1_3  and  C18_27 
REMARK    4  A    between atoms: C4_5  and  C5_6 
REMARK       I    between atoms: C5_6  and  N2_8 
REMARK    5  A    between atoms: N2_8  and  N3_9 
REMARK    6  A    between atoms: C10_15  and  N5_16 
REMARK    7  A    between atoms: N5_16  and  C11_17 
ROOT
HETATM    1  N3  UNL     1      23.790   5.044  51.738  1.00  0.00    -0.240 N 
HETATM    2  C6  UNL     1      22.648   4.876  52.425  1.00  0.00     0.233 C 
HETATM    3  N4  UNL     1      21.593   4.132  52.059  1.00  0.00    -0.254 NA
HETATM    4  C7  UNL     1      21.490   2.826  52.339  1.00  0.00     0.118 C 
HETATM    5  C8  UNL     1      21.658   1.460  52.598  1.00  0.00     0.023 C 
HETATM    6  C9  UNL     1      22.601   0.896  51.724  1.00  0.00     0.052 C 
HETATM    7  C10 UNL     1      23.816   1.531  51.823  1.00  0.00     0.129 C 
HETATM    8  N6  UNL     1      23.614   2.642  51.149  1.00  0.00    -0.225 NA
HETATM    9  C17 UNL     1      24.200   3.782  51.558  1.00  0.00     0.236 C 
ENDROOT
BRANCH   1  10
HETATM   10  N2  UNL     1      24.514   6.132  51.253  1.00  0.00    -0.251 N 
HETATM   11  C5  UNL     1      24.060   6.923  50.174  1.00  0.00     0.317 C 
HETATM   12  O1  UNL     1      22.968   6.660  49.609  1.00  0.00    -0.256 OA
HETATM   13  H6  UNL     1      25.413   6.333  51.731  1.00  0.00     0.191 HD
BRANCH  11  14
HETATM   14  C4  UNL     1      24.916   8.021  49.780  1.00  0.00     0.019 C 
HETATM   15  C3  UNL     1      25.625   8.931  49.443  1.00  0.00     0.018 C 
BRANCH  15  16
HETATM   16  N1  UNL     1      26.450  10.012  49.064  1.00  0.00    -0.342 N 
BRANCH  16  17
HETATM   17  C2  UNL     1      27.861  10.086  49.393  1.00  0.00     0.128 C 
HETATM   18  C1  UNL     1      28.558   8.810  48.994  1.00  0.00     0.027 C 
ENDBRANCH  16  17
BRANCH  16  19
HETATM   19  C18 UNL     1      25.928  11.136  48.299  1.00  0.00     0.128 C 
HETATM   20  C19 UNL     1      26.187  10.852  46.847  1.00  0.00     0.027 C 
ENDBRANCH  16  19
ENDBRANCH  15  16
ENDBRANCH  11  14
ENDBRANCH   1  10
BRANCH   7  21
HETATM   21  N5  UNL     1      24.381   0.496  52.585  1.00  0.00    -0.341 N 
HETATM   22  H11 UNL     1      23.439   0.136  52.854  1.00  0.00     0.167 HD
BRANCH  21  23
HETATM   23  C11 UNL     1      25.738   0.209  52.798  1.00  0.00     0.035 A 
HETATM   24  C12 UNL     1      26.248  -1.062  52.714  1.00  0.00     0.032 A 
HETATM   25  C13 UNL     1      27.595  -1.240  52.978  1.00  0.00     0.046 A 
HETATM   26  C14 UNL     1      28.420  -0.167  53.320  1.00  0.00     0.138 A 
HETATM   27  F1  UNL     1      29.748  -0.302  53.585  1.00  0.00    -0.204 F 
HETATM   28  C15 UNL     1      27.912   1.114  53.406  1.00  0.00     0.074 A 
HETATM   29 CL1  UNL     1      28.916   2.504  53.841  1.00  0.00    -0.081 Cl
HETATM   30  C16 UNL     1      26.564   1.279  53.141  1.00  0.00     0.056 A 
ENDBRANCH  21  23
ENDBRANCH   7  21
TORSDOF 7
ENDMDL
MODEL 5
REMARK VINA RESULT:      -7.3      4.014      5.484
REMARK  7 active torsions:
REMARK  status: ('A' for Active; 'I' for Inactive)
REMARK    1  A    between atoms: C2_2  and  N1_3 
REMARK    2  A    between atoms: N1_3  and  C3_4 
REMARK    3  A    between atoms: N1_3  and  C18_27 
REMARK    4  A    between atoms: C4_5  and  C5_6 
REMARK       I    between atoms: C5_6  and  N2_8 
REMARK    5  A    between atoms: N2_8  and  N3_9 
REMARK    6  A    between atoms: C10_15  and  N5_16 
REMARK    7  A    between atoms: N5_16  and  C11_17 
ROOT
HETATM    1  N3  UNL     1      25.864   2.749  51.358  1.00  0.00    -0.240 N 
HETATM    2  C6  UNL     1      26.778   1.765  51.335  1.00  0.00     0.233 C 
HETATM    3  N4  UNL     1      27.321   1.148  52.396  1.00  0.00    -0.254 NA
HETATM    4  C7  UNL     1      26.764   0.079  52.981  1.00  0.00     0.118 C 
HETATM    5  C8  UNL     1      25.941  -0.916  53.525  1.00  0.00     0.023 C 
HETATM    6  C9  UNL     1      24.835  -0.350  54.179  1.00  0.00     0.052 C 
HETATM    7  C10 UNL     1      24.097   0.434  53.325  1.00  0.00     0.129 C 
HETATM    8  N6  UNL     1      24.819   1.531  53.247  1.00  0.00    -0.225 NA
HETATM    9  C17 UNL     1      24.880   2.205  52.084  1.00  0.00     0.236 C 
ENDROOT
BRANCH   1  10
HETATM   10  N2  UNL     1      25.772   4.040  50.840  1.00  0.00    -0.251 N 
HETATM   11  C5  UNL     1      26.454   4.435  49.667  1.00  0.00     0.317 C 
HETATM   12  O1  UNL     1      27.177   3.616  49.046  1.00  0.00    -0.256 OA
HETATM   13  H6  UNL     1      25.171   4.703  51.367  1.00  0.00     0.191 HD
BRANCH  11  14
HETATM   14  C4  UNL     1      26.262   5.806  49.247  1.00  0.00     0.019 C 
HETATM   15  C3  UNL     1      26.092   6.944  48.896  1.00  0.00     0.018 C 
BRANCH  15  16
HETATM   16  N1  UNL     1      25.905   8.286  48.501  1.00  0.00    -0.342 N 
BRANCH  16  17
HETATM   17  C2  UNL     1      25.633   8.679  47.131  1.00  0.00     0.128 C 
HETATM   18  C1  UNL     1      24.420   7.951  46.610  1.00  0.00     0.027 C 
ENDBRANCH  16  17
BRANCH  16  19
HETATM   19  C18 UNL     1      25.967   9.378  49.463  1.00  0.00     0.128 C 
HETATM   20  C19 UNL     1      27.261   9.243  50.214  1.00  0.00     0.027 C 
ENDBRANCH  16  19
ENDBRANCH  15  16
ENDBRANCH  11  14
ENDBRANCH   1  10
BRANCH   7  21
HETATM   21  N5  UNL     1      23.099  -0.541  53.169  1.00  0.00    -0.341 N 
HETATM   22  H11 UNL     1      23.776  -1.311  53.364  1.00  0.00     0.167 HD
BRANCH  21  23
HETATM   23  C11 UNL     1      21.743  -0.361  52.858  1.00  0.00     0.035 A 
HETATM   24  C12 UNL     1      20.732  -0.779  53.686  1.00  0.00     0.032 A 
HETATM   25  C13 UNL     1      19.427  -0.585  53.267  1.00  0.00     0.046 A 
HETATM   26  C14 UNL     1      19.136   0.018  52.041  1.00  0.00     0.138 A 
HETATM   27  F1  UNL     1      17.867   0.228  51.596  1.00  0.00    -0.204 F 
HETATM   28  C15 UNL     1      20.149   0.439  51.204  1.00  0.00     0.074 A 
HETATM   29 CL1  UNL     1      19.830   1.202  49.640  1.00  0.00    -0.081 Cl
HETATM   30  C16 UNL     1      21.449   0.239  51.634  1.00  0.00     0.056 A 
ENDBRANCH  21  23
ENDBRANCH   7  21
TORSDOF 7
ENDMDL
MODEL 6
REMARK VINA RESULT:      -7.3      2.682      3.157
REMARK  7 active torsions:
REMARK  status: ('A' for Active; 'I' for Inactive)
REMARK    1  A    between atoms: C2_2  and  N1_3 
REMARK    2  A    between atoms: N1_3  and  C3_4 
REMARK    3  A    between atoms: N1_3  and  C18_27 
REMARK    4  A    between atoms: C4_5  and  C5_6 
REMARK       I    between atoms: C5_6  and  N2_8 
REMARK    5  A    between atoms: N2_8  and  N3_9 
REMARK    6  A    between atoms: C10_15  and  N5_16 
REMARK    7  A    between atoms: N5_16  and  C11_17 
ROOT
HETATM    1  N3  UNL     1      24.960   6.134  50.527  1.00  0.00    -0.240 N 
HETATM    2  C6  UNL     1      23.670   6.324  50.849  1.00  0.00     0.233 C 
HETATM    3  N4  UNL     1      22.599   5.917  50.150  1.00  0.00    -0.254 NA
HETATM    4  C7  UNL     1      22.048   4.705  50.301  1.00  0.00     0.118 C 
HETATM    5  C8  UNL     1      21.734   3.355  50.505  1.00  0.00     0.023 C 
HETATM    6  C9  UNL     1      22.686   2.521  49.899  1.00  0.00     0.052 C 
HETATM    7  C10 UNL     1      23.949   2.772  50.379  1.00  0.00     0.129 C 
HETATM    8  N6  UNL     1      24.279   3.880  49.753  1.00  0.00    -0.225 NA
HETATM    9  C17 UNL     1      25.024   4.804  50.386  1.00  0.00     0.236 C 
ENDROOT
BRANCH   1  10
HETATM   10  N2  UNL     1      26.075   6.950  50.341  1.00  0.00    -0.251 N 
HETATM   11  C5  UNL     1      26.418   7.487  49.079  1.00  0.00     0.317 C 
HETATM   12  O1  UNL     1      25.713   7.236  48.070  1.00  0.00    -0.256 OA
HETATM   13  H6  UNL     1      26.645   7.145  51.186  1.00  0.00     0.191 HD
BRANCH  11  14
HETATM   14  C4  UNL     1      27.601   8.318  49.039  1.00  0.00     0.019 C 
HETATM   15  C3  UNL     1      28.581   9.015  49.015  1.00  0.00     0.018 C 
BRANCH  15  16
HETATM   16  N1  UNL     1      29.744   9.815  48.980  1.00  0.00    -0.342 N 
BRANCH  16  17
HETATM   17  C2  UNL     1      29.774  11.145  48.403  1.00  0.00     0.128 C 
HETATM   18  C1  UNL     1      30.726  12.026  49.170  1.00  0.00     0.027 C 
ENDBRANCH  16  17
BRANCH  16  19
HETATM   19  C18 UNL     1      31.005   9.348  49.540  1.00  0.00     0.128 C 
HETATM   20  C19 UNL     1      31.524   8.264  48.639  1.00  0.00     0.027 C 
ENDBRANCH  16  19
ENDBRANCH  15  16
ENDBRANCH  11  14
ENDBRANCH   1  10
BRANCH   7  21
HETATM   21  N5  UNL     1      23.945   1.632  51.200  1.00  0.00    -0.341 N 
HETATM   22  H11 UNL     1      22.979   1.379  50.899  1.00  0.00     0.167 HD
BRANCH  21  23
HETATM   23  C11 UNL     1      24.959   1.164  52.049  1.00  0.00     0.035 A 
HETATM   24  C12 UNL     1      26.290   1.395  51.810  1.00  0.00     0.032 A 
HETATM   25  C13 UNL     1      27.212   0.857  52.693  1.00  0.00     0.046 A 
HETATM   26  C14 UNL     1      26.810   0.101  53.797  1.00  0.00     0.138 A 
HETATM   27  F1  UNL     1      27.685  -0.441  54.687  1.00  0.00    -0.204 F 
HETATM   28  C15 UNL     1      25.472  -0.134  54.041  1.00  0.00     0.074 A 
HETATM   29 CL1  UNL     1      24.916  -1.089  55.422  1.00  0.00    -0.081 Cl
HETATM   30  C16 UNL     1      24.562   0.408  53.152  1.00  0.00     0.056 A 
ENDBRANCH  21  23
ENDBRANCH   7  21
TORSDOF 7
ENDMDL
MODEL 7
REMARK VINA RESULT:      -7.3      4.988      6.611
REMARK  7 active torsions:
REMARK  status: ('A' for Active; 'I' for Inactive)
REMARK    1  A    between atoms: C2_2  and  N1_3 
REMARK    2  A    between atoms: N1_3  and  C3_4 
REMARK    3  A    between atoms: N1_3  and  C18_27 
REMARK    4  A    between atoms: C4_5  and  C5_6 
REMARK       I    between atoms: C5_6  and  N2_8 
REMARK    5  A    between atoms: N2_8  and  N3_9 
REMARK    6  A    between atoms: C10_15  and  N5_16 
REMARK    7  A    between atoms: N5_16  and  C11_17 
ROOT
HETATM    1  N3  UNL     1      21.615   2.474  51.348  1.00  0.00    -0.240 N 
HETATM    2  C6  UNL     1      20.840   2.513  52.444  1.00  0.00     0.233 C 
HETATM    3  N4  UNL     1      20.147   1.494  52.975  1.00  0.00    -0.254 NA
HETATM    4  C7  UNL     1      20.673   0.638  53.861  1.00  0.00     0.118 C 
HETATM    5  C8  UNL     1      21.457  -0.219  54.643  1.00  0.00     0.023 C 
HETATM    6  C9  UNL     1      22.325  -0.977  53.841  1.00  0.00     0.052 C 
HETATM    7  C10 UNL     1      23.144  -0.168  53.090  1.00  0.00     0.129 C 
HETATM    8  N6  UNL     1      22.344   0.236  52.128  1.00  0.00    -0.225 NA
HETATM    9  C17 UNL     1      22.468   1.484  51.640  1.00  0.00     0.236 C 
ENDROOT
BRANCH   1  10
HETATM   10  N2  UNL     1      21.680   3.172  50.144  1.00  0.00    -0.251 N 
HETATM   11  C5  UNL     1      22.462   4.339  49.987  1.00  0.00     0.317 C 
HETATM   12  O1  UNL     1      23.133   4.788  50.950  1.00  0.00    -0.256 OA
HETATM   13  H6  UNL     1      21.118   2.787  49.361  1.00  0.00     0.191 HD
BRANCH  11  14
HETATM   14  C4  UNL     1      22.433   4.957  48.679  1.00  0.00     0.019 C 
HETATM   15  C3  UNL     1      22.400   5.476  47.595  1.00  0.00     0.018 C 
BRANCH  15  16
HETATM   16  N1  UNL     1      22.383   6.088  46.323  1.00  0.00    -0.342 N 
BRANCH  16  17
HETATM   17  C2  UNL     1      21.895   5.423  45.130  1.00  0.00     0.128 C 
HETATM   18  C1  UNL     1      21.869   3.930  45.337  1.00  0.00     0.027 C 
ENDBRANCH  16  17
BRANCH  16  19
HETATM   19  C18 UNL     1      22.855   7.452  46.129  1.00  0.00     0.128 C 
HETATM   20  C19 UNL     1      24.159   7.586  46.863  1.00  0.00     0.027 C 
ENDBRANCH  16  19
ENDBRANCH  15  16
ENDBRANCH  11  14
ENDBRANCH   1  10
BRANCH   7  21
HETATM   21  N5  UNL     1      24.251  -0.382  53.927  1.00  0.00    -0.341 N 
HETATM   22  H11 UNL     1      23.685  -0.969  54.578  1.00  0.00     0.167 HD
BRANCH  21  23
HETATM   23  C11 UNL     1      25.560   0.102  53.785  1.00  0.00     0.035 A 
HETATM   24  C12 UNL     1      25.857   1.441  53.775  1.00  0.00     0.032 A 
HETATM   25  C13 UNL     1      27.178   1.813  53.593  1.00  0.00     0.046 A 
HETATM   26  C14 UNL     1      28.187   0.862  53.424  1.00  0.00     0.138 A 
HETATM   27  F1  UNL     1      29.496   1.187  53.245  1.00  0.00    -0.204 F 
HETATM   28  C15 UNL     1      27.893  -0.487  53.434  1.00  0.00     0.074 A 
HETATM   29 CL1  UNL     1      29.136  -1.728  53.219  1.00  0.00    -0.081 Cl
HETATM   30  C16 UNL     1      26.570  -0.845  53.616  1.00  0.00     0.056 A 
ENDBRANCH  21  23
ENDBRANCH   7  21
TORSDOF 7
ENDMDL
MODEL 8
REMARK VINA RESULT:      -7.3      1.406      2.047
REMARK  7 active torsions:
REMARK  status: ('A' for Active; 'I' for Inactive)
REMARK    1  A    between atoms: C2_2  and  N1_3 
REMARK    2  A    between atoms: N1_3  and  C3_4 
REMARK    3  A    between atoms: N1_3  and  C18_27 
REMARK    4  A    between atoms: C4_5  and  C5_6 
REMARK       I    between atoms: C5_6  and  N2_8 
REMARK    5  A    between atoms: N2_8  and  N3_9 
REMARK    6  A    between atoms: C10_15  and  N5_16 
REMARK    7  A    between atoms: N5_16  and  C11_17 
ROOT
HETATM    1  N3  UNL     1      24.802   5.445  50.499  1.00  0.00    -0.240 N 
HETATM    2  C6  UNL     1      23.861   6.025  51.263  1.00  0.00     0.233 C 
HETATM    3  N4  UNL     1      22.586   6.265  50.922  1.00  0.00    -0.254 NA
HETATM    4  C7  UNL     1      21.605   5.367  51.091  1.00  0.00     0.118 C 
HETATM    5  C8  UNL     1      20.779   4.242  51.210  1.00  0.00     0.023 C 
HETATM    6  C9  UNL     1      21.069   3.298  50.211  1.00  0.00     0.052 C 
HETATM    7  C10 UNL     1      22.385   2.905  50.263  1.00  0.00     0.129 C 
HETATM    8  N6  UNL     1      23.011   3.922  49.713  1.00  0.00    -0.225 NA
HETATM    9  C17 UNL     1      24.223   4.283  50.171  1.00  0.00     0.236 C 
ENDROOT
BRANCH   1  10
HETATM   10  N2  UNL     1      26.079   5.785  50.055  1.00  0.00    -0.251 N 
HETATM   11  C5  UNL     1      26.299   6.472  48.840  1.00  0.00     0.317 C 
HETATM   12  O1  UNL     1      25.329   6.801  48.111  1.00  0.00    -0.256 OA
HETATM   13  H6  UNL     1      26.867   5.504  50.670  1.00  0.00     0.191 HD
BRANCH  11  14
HETATM   14  C4  UNL     1      27.678   6.759  48.509  1.00  0.00     0.019 C 
HETATM   15  C3  UNL     1      28.827   6.989  48.240  1.00  0.00     0.018 C 
BRANCH  15  16
HETATM   16  N1  UNL     1      30.170   7.263  47.904  1.00  0.00    -0.342 N 
BRANCH  16  17
HETATM   17  C2  UNL     1      31.274   6.402  48.283  1.00  0.00     0.128 C 
HETATM   18  C1  UNL     1      31.140   5.056  47.619  1.00  0.00     0.027 C 
ENDBRANCH  16  17
BRANCH  16  19
HETATM   19  C18 UNL     1      30.537   8.445  47.135  1.00  0.00     0.128 C 
HETATM   20  C19 UNL     1      30.784   9.559  48.112  1.00  0.00     0.027 C 
ENDBRANCH  16  19
ENDBRANCH  15  16
ENDBRANCH  11  14
ENDBRANCH   1  10
BRANCH   7  21
HETATM   21  N5  UNL     1      22.074   1.681  50.877  1.00  0.00    -0.341 N 
HETATM   22  H11 UNL     1      21.214   1.572  50.297  1.00  0.00     0.167 HD
BRANCH  21  23
HETATM   23  C11 UNL     1      22.776   1.008  51.889  1.00  0.00     0.035 A 
HETATM   24  C12 UNL     1      24.119   1.184  52.100  1.00  0.00     0.032 A 
HETATM   25  C13 UNL     1      24.722   0.444  53.103  1.00  0.00     0.046 A 
HETATM   26  C14 UNL     1      23.994  -0.458  53.882  1.00  0.00     0.138 A 
HETATM   27  F1  UNL     1      24.550  -1.202  54.877  1.00  0.00    -0.204 F 
HETATM   28  C15 UNL     1      22.642  -0.639  53.673  1.00  0.00     0.074 A 
HETATM   29 CL1  UNL     1      21.679  -1.773  54.631  1.00  0.00    -0.081 Cl
HETATM   30  C16 UNL     1      22.051   0.106  52.668  1.00  0.00     0.056 A 
ENDBRANCH  21  23
ENDBRANCH   7  21
TORSDOF 7
ENDMDL
MODEL 9
REMARK VINA RESULT:      -7.2      3.419      4.355
REMARK  7 active torsions:
REMARK  status: ('A' for Active; 'I' for Inactive)
REMARK    1  A    between atoms: C2_2  and  N1_3 
REMARK    2  A    between atoms: N1_3  and  C3_4 
REMARK    3  A    between atoms: N1_3  and  C18_27 
REMARK    4  A    between atoms: C4_5  and  C5_6 
REMARK       I    between atoms: C5_6  and  N2_8 
REMARK    5  A    between atoms: N2_8  and  N3_9 
REMARK    6  A    between atoms: C10_15  and  N5_16 
REMARK    7  A    between atoms: N5_16  and  C11_17 
ROOT
HETATM    1  N3  UNL     1      24.989   5.090  50.635  1.00  0.00    -0.240 N 
HETATM    2  C6  UNL     1      23.893   5.232  51.397  1.00  0.00     0.233 C 
HETATM    3  N4  UNL     1      22.755   4.526  51.308  1.00  0.00    -0.254 NA
HETATM    4  C7  UNL     1      22.566   3.363  51.947  1.00  0.00     0.118 C 
HETATM    5  C8  UNL     1      22.641   2.111  52.568  1.00  0.00     0.023 C 
HETATM    6  C9  UNL     1      23.465   1.237  51.840  1.00  0.00     0.052 C 
HETATM    7  C10 UNL     1      24.731   1.750  51.696  1.00  0.00     0.129 C 
HETATM    8  N6  UNL     1      24.571   2.649  50.750  1.00  0.00    -0.225 NA
HETATM    9  C17 UNL     1      25.279   3.793  50.793  1.00  0.00     0.236 C 
ENDROOT
BRANCH   1  10
HETATM   10  N2  UNL     1      25.761   5.926  49.829  1.00  0.00    -0.251 N 
HETATM   11  C5  UNL     1      25.302   6.413  48.585  1.00  0.00     0.317 C 
HETATM   12  O1  UNL     1      24.161   6.099  48.162  1.00  0.00    -0.256 OA
HETATM   13  H6  UNL     1      26.701   6.173  50.195  1.00  0.00     0.191 HD
BRANCH  11  14
HETATM   14  C4  UNL     1      26.212   7.272  47.859  1.00  0.00     0.019 C 
HETATM   15  C3  UNL     1      26.963   7.986  47.247  1.00  0.00     0.018 C 
BRANCH  15  16
HETATM   16  N1  UNL     1      27.845   8.836  46.547  1.00  0.00    -0.342 N 
BRANCH  16  17
HETATM   17  C2  UNL     1      27.478   9.527  45.326  1.00  0.00     0.128 C 
HETATM   18  C1  UNL     1      26.915   8.554  44.322  1.00  0.00     0.027 C 
ENDBRANCH  16  17
BRANCH  16  19
HETATM   19  C18 UNL     1      29.201   9.081  47.019  1.00  0.00     0.128 C 
HETATM   20  C19 UNL     1      30.109   8.125  46.299  1.00  0.00     0.027 C 
ENDBRANCH  16  19
ENDBRANCH  15  16
ENDBRANCH  11  14
ENDBRANCH   1  10
BRANCH   7  21
HETATM   21  N5  UNL     1      25.266   0.912  52.688  1.00  0.00    -0.341 N 
HETATM   22  H11 UNL     1      24.314   0.638  53.014  1.00  0.00     0.167 HD
BRANCH  21  23
HETATM   23  C11 UNL     1      26.614   0.662  52.987  1.00  0.00     0.035 A 
HETATM   24  C12 UNL     1      27.502   1.662  53.289  1.00  0.00     0.032 A 
HETATM   25  C13 UNL     1      28.819   1.310  53.534  1.00  0.00     0.046 A 
HETATM   26  C14 UNL     1      29.241  -0.021  53.479  1.00  0.00     0.138 A 
HETATM   27  F1  UNL     1      30.524  -0.406  53.716  1.00  0.00    -0.204 F 
HETATM   28  C15 UNL     1      28.350  -1.031  53.175  1.00  0.00     0.074 A 
HETATM   29 CL1  UNL     1      28.838  -2.729  53.089  1.00  0.00    -0.081 Cl
HETATM   30  C16 UNL     1      27.038  -0.666  52.932  1.00  0.00     0.056 A 
ENDBRANCH  21  23
ENDBRANCH   7  21
TORSDOF 7
ENDMDL
