MODEL 1
REMARK VINA RESULT:      -7.2      0.000      0.000
REMARK  4 active torsions:
REMARK  status: ('A' for Active; 'I' for Inactive)
REMARK    1  A    between atoms: C3_3  and  C4_4 
REMARK    2  A    between atoms: C12_12  and  S1_13 
REMARK    3  A    between atoms: S1_13  and  C13_14 
REMARK    4  A    between atoms: C13_14  and  S2_15 
ROOT
HETATM    1  C4  UNL     1      25.004   1.377  51.960  1.00  0.00    -0.061 C 
HETATM    2  C5  UNL     1      25.874   2.157  51.209  1.00  0.00    -0.015 C 
HETATM    3  C6  UNL     1      25.530   3.492  50.388  1.00  0.00     0.062 C 
HETATM    4  C7  UNL     1      24.177   3.127  50.636  1.00  0.00    -0.066 C 
HETATM    5  C8  UNL     1      24.122   4.130  51.562  1.00  0.00    -0.004 C 
HETATM    6  C9  UNL     1      23.694   4.339  53.034  1.00  0.00     0.099 C 
HETATM    7  C10 UNL     1      22.390   4.750  52.246  1.00  0.00     0.012 C 
HETATM    8  C11 UNL     1      21.282   4.056  52.048  1.00  0.00     0.014 C 
HETATM    9  C12 UNL     1      21.327   2.522  51.986  1.00  0.00     0.077 C 
HETATM   10  C14 UNL     1      22.448   1.756  51.480  1.00  0.00     0.011 C 
HETATM   11  C15 UNL     1      23.575   1.219  52.271  1.00  0.00     0.044 C 
HETATM   12  C16 UNL     1      23.123   2.123  50.251  1.00  0.00     0.041 C 
HETATM   13  N1  UNL     1      22.940   5.995  51.639  1.00  0.00    -0.344 N 
HETATM   14  C17 UNL     1      24.314   5.562  51.081  1.00  0.00     0.127 C 
HETATM   15  N2  UNL     1      25.392   5.685  50.477  1.00  0.00    -0.283 NA
HETATM   16  H21 UNL     1      22.366   6.809  51.638  1.00  0.00     0.167 HD
HETATM   17  H22 UNL     1      25.785   6.520  50.047  1.00  0.00     0.188 HD
ENDROOT
BRANCH   9  18
HETATM   18  S1  UNL     1      19.694   2.037  51.547  1.00  0.00    -0.150 SA
BRANCH  18  19
HETATM   19  C13 UNL     1      19.207   0.353  51.677  1.00  0.00     0.145 C 
BRANCH  19  20
HETATM   20  S2  UNL     1      19.720  -0.383  53.248  1.00  0.00    -0.172 SA
HETATM   21  H15 UNL     1      20.999   0.162  53.558  1.00  0.00     0.102 HD
ENDBRANCH  19  20
ENDBRANCH  18  19
ENDBRANCH   9  18
BRANCH   1  22
HETATM   22  C3  UNL     1      25.817   0.344  52.709  1.00  0.00     0.002 C 
HETATM   23  C2  UNL     1      26.737  -0.380  52.155  1.00  0.00    -0.030 C 
HETATM   24  C1  UNL     1      27.537  -1.401  52.904  1.00  0.00     0.036 C 
ENDBRANCH   1  22
TORSDOF 4
ENDMDL
MODEL 2
REMARK VINA RESULT:      -7.2      2.740      4.997
REMARK  4 active torsions:
REMARK  status: ('A' for Active; 'I' for Inactive)
REMARK    1  A    between atoms: C3_3  and  C4_4 
REMARK    2  A    between atoms: C12_12  and  S1_13 
REMARK    3  A    between atoms: S1_13  and  C13_14 
REMARK    4  A    between atoms: C13_14  and  S2_15 
ROOT
HETATM    1  C4  UNL     1      21.985   2.376  51.964  1.00  0.00    -0.061 C 
HETATM    2  C5  UNL     1      21.653   3.690  52.269  1.00  0.00    -0.015 C 
HETATM    3  C6  UNL     1      22.649   4.938  52.433  1.00  0.00     0.062 C 
HETATM    4  C7  UNL     1      23.669   3.945  52.412  1.00  0.00    -0.066 C 
HETATM    5  C8  UNL     1      23.973   4.348  51.143  1.00  0.00    -0.004 C 
HETATM    6  C9  UNL     1      24.193   3.729  49.742  1.00  0.00     0.099 C 
HETATM    7  C10 UNL     1      25.664   3.798  50.310  1.00  0.00     0.012 C 
HETATM    8  C11 UNL     1      26.405   2.832  50.827  1.00  0.00     0.014 C 
HETATM    9  C12 UNL     1      25.745   1.651  51.553  1.00  0.00     0.077 C 
HETATM   10  C14 UNL     1      24.512   1.740  52.309  1.00  0.00     0.011 C 
HETATM   11  C15 UNL     1      23.147   1.490  51.798  1.00  0.00     0.044 C 
HETATM   12  C16 UNL     1      24.266   2.831  53.231  1.00  0.00     0.041 C 
HETATM   13  N1  UNL     1      25.785   5.283  50.293  1.00  0.00    -0.344 N 
HETATM   14  C17 UNL     1      24.472   5.773  50.942  1.00  0.00     0.127 C 
HETATM   15  N2  UNL     1      23.658   6.594  51.396  1.00  0.00    -0.283 NA
HETATM   16  H21 UNL     1      26.635   5.680  49.955  1.00  0.00     0.167 HD
HETATM   17  H22 UNL     1      23.722   7.610  51.405  1.00  0.00     0.188 HD
ENDROOT
BRANCH   9  18
HETATM   18  S1  UNL     1      27.083   0.717  52.211  1.00  0.00    -0.150 SA
BRANCH  18  19
HETATM   19  C13 UNL     1      28.098   1.395  53.476  1.00  0.00     0.145 C 
BRANCH  19  20
HETATM   20  S2  UNL     1      28.617   0.143  54.675  1.00  0.00    -0.172 SA
HETATM   21  H15 UNL     1      29.571   0.766  55.530  1.00  0.00     0.102 HD
ENDBRANCH  19  20
ENDBRANCH  18  19
ENDBRANCH   9  18
BRANCH   1  22
HETATM   22  C3  UNL     1      20.705   1.607  51.719  1.00  0.00     0.002 C 
HETATM   23  C2  UNL     1      20.334   0.592  52.432  1.00  0.00    -0.030 C 
HETATM   24  C1  UNL     1      19.065  -0.164  52.182  1.00  0.00     0.036 C 
ENDBRANCH   1  22
TORSDOF 4
ENDMDL
MODEL 3
REMARK VINA RESULT:      -7.1      0.906      1.390
REMARK  4 active torsions:
REMARK  status: ('A' for Active; 'I' for Inactive)
REMARK    1  A    between atoms: C3_3  and  C4_4 
REMARK    2  A    between atoms: C12_12  and  S1_13 
REMARK    3  A    between atoms: S1_13  and  C13_14 
REMARK    4  A    between atoms: C13_14  and  S2_15 
ROOT
HETATM    1  C4  UNL     1      24.983   1.475  51.862  1.00  0.00    -0.061 C 
HETATM    2  C5  UNL     1      25.889   2.262  51.163  1.00  0.00    -0.015 C 
HETATM    3  C6  UNL     1      25.591   3.616  50.356  1.00  0.00     0.062 C 
HETATM    4  C7  UNL     1      24.225   3.259  50.541  1.00  0.00    -0.066 C 
HETATM    5  C8  UNL     1      24.142   4.244  51.484  1.00  0.00    -0.004 C 
HETATM    6  C9  UNL     1      23.656   4.428  52.942  1.00  0.00     0.099 C 
HETATM    7  C10 UNL     1      22.388   4.866  52.110  1.00  0.00     0.012 C 
HETATM    8  C11 UNL     1      21.283   4.187  51.854  1.00  0.00     0.014 C 
HETATM    9  C12 UNL     1      21.318   2.654  51.763  1.00  0.00     0.077 C 
HETATM   10  C14 UNL     1      22.451   1.887  51.287  1.00  0.00     0.011 C 
HETATM   11  C15 UNL     1      23.541   1.324  52.112  1.00  0.00     0.044 C 
HETATM   12  C16 UNL     1      23.179   2.272  50.095  1.00  0.00     0.041 C 
HETATM   13  N1  UNL     1      22.974   6.118  51.551  1.00  0.00    -0.344 N 
HETATM   14  C17 UNL     1      24.365   5.683  51.040  1.00  0.00     0.127 C 
HETATM   15  N2  UNL     1      25.468   5.808  50.483  1.00  0.00    -0.283 NA
HETATM   16  H21 UNL     1      22.406   6.937  51.543  1.00  0.00     0.167 HD
HETATM   17  H22 UNL     1      25.885   6.647  50.086  1.00  0.00     0.188 HD
ENDROOT
BRANCH   9  18
HETATM   18  S1  UNL     1      19.699   2.193  51.249  1.00  0.00    -0.150 SA
BRANCH  18  19
HETATM   19  C13 UNL     1      19.427   1.588  49.621  1.00  0.00     0.145 C 
BRANCH  19  20
HETATM   20  S2  UNL     1      19.863   2.812  48.361  1.00  0.00    -0.172 SA
HETATM   21  H15 UNL     1      20.913   3.605  48.906  1.00  0.00     0.102 HD
ENDBRANCH  19  20
ENDBRANCH  18  19
ENDBRANCH   9  18
BRANCH   1  22
HETATM   22  C3  UNL     1      25.756   0.420  52.622  1.00  0.00     0.002 C 
HETATM   23  C2  UNL     1      26.701  -0.291  52.097  1.00  0.00    -0.030 C 
HETATM   24  C1  UNL     1      27.462  -1.334  52.857  1.00  0.00     0.036 C 
ENDBRANCH   1  22
TORSDOF 4
ENDMDL
MODEL 4
REMARK VINA RESULT:      -6.9      2.825      3.892
REMARK  4 active torsions:
REMARK  status: ('A' for Active; 'I' for Inactive)
REMARK    1  A    between atoms: C3_3  and  C4_4 
REMARK    2  A    between atoms: C12_12  and  S1_13 
REMARK    3  A    between atoms: S1_13  and  C13_14 
REMARK    4  A    between atoms: C13_14  and  S2_15 
ROOT
HETATM    1  C4  UNL     1      22.791   1.023  52.146  1.00  0.00    -0.061 C 
HETATM    2  C5  UNL     1      23.651   1.645  53.042  1.00  0.00    -0.015 C 
HETATM    3  C6  UNL     1      24.240   3.135  52.959  1.00  0.00     0.062 C 
HETATM    4  C7  UNL     1      23.713   3.119  51.637  1.00  0.00    -0.066 C 
HETATM    5  C8  UNL     1      22.712   3.939  52.074  1.00  0.00    -0.004 C 
HETATM    6  C9  UNL     1      21.167   4.022  52.032  1.00  0.00     0.099 C 
HETATM    7  C10 UNL     1      21.582   4.892  50.782  1.00  0.00     0.012 C 
HETATM    8  C11 UNL     1      21.574   4.567  49.500  1.00  0.00     0.014 C 
HETATM    9  C12 UNL     1      21.787   3.109  49.068  1.00  0.00     0.077 C 
HETATM   10  C14 UNL     1      22.614   2.156  49.780  1.00  0.00     0.011 C 
HETATM   11  C15 UNL     1      22.166   1.213  50.828  1.00  0.00     0.044 C 
HETATM   12  C16 UNL     1      23.928   2.514  50.275  1.00  0.00     0.041 C 
HETATM   13  N1  UNL     1      22.184   6.019  51.549  1.00  0.00    -0.344 N 
HETATM   14  C17 UNL     1      23.090   5.322  52.587  1.00  0.00     0.127 C 
HETATM   15  N2  UNL     1      23.919   5.240  53.509  1.00  0.00    -0.283 NA
HETATM   16  H21 UNL     1      21.974   6.949  51.259  1.00  0.00     0.167 HD
HETATM   17  H22 UNL     1      24.351   5.993  54.041  1.00  0.00     0.188 HD
ENDROOT
BRANCH   9  18
HETATM   18  S1  UNL     1      21.869   3.164  47.311  1.00  0.00    -0.150 SA
BRANCH  18  19
HETATM   19  C13 UNL     1      20.505   3.769  46.381  1.00  0.00     0.145 C 
BRANCH  19  20
HETATM   20  S2  UNL     1      20.941   4.061  44.649  1.00  0.00    -0.172 SA
HETATM   21  H15 UNL     1      21.388   2.815  44.124  1.00  0.00     0.102 HD
ENDBRANCH  19  20
ENDBRANCH  18  19
ENDBRANCH   9  18
BRANCH   1  22
HETATM   22  C3  UNL     1      22.356  -0.298  52.742  1.00  0.00     0.002 C 
HETATM   23  C2  UNL     1      21.726  -0.399  53.868  1.00  0.00    -0.030 C 
HETATM   24  C1  UNL     1      21.298  -1.711  54.452  1.00  0.00     0.036 C 
ENDBRANCH   1  22
TORSDOF 4
ENDMDL
MODEL 5
REMARK VINA RESULT:      -6.8      2.873      4.672
REMARK  4 active torsions:
REMARK  status: ('A' for Active; 'I' for Inactive)
REMARK    1  A    between atoms: C3_3  and  C4_4 
REMARK    2  A    between atoms: C12_12  and  S1_13 
REMARK    3  A    between atoms: S1_13  and  C13_14 
REMARK    4  A    between atoms: C13_14  and  S2_15 
ROOT
HETATM    1  C4  UNL     1      25.846   5.350  48.993  1.00  0.00    -0.061 C 
HETATM    2  C5  UNL     1      24.815   6.033  48.359  1.00  0.00    -0.015 C 
HETATM    3  C6  UNL     1      23.242   5.921  48.653  1.00  0.00     0.062 C 
HETATM    4  C7  UNL     1      23.611   4.791  49.436  1.00  0.00    -0.066 C 
HETATM    5  C8  UNL     1      23.386   5.547  50.552  1.00  0.00    -0.004 C 
HETATM    6  C9  UNL     1      24.102   5.928  51.870  1.00  0.00     0.099 C 
HETATM    7  C10 UNL     1      23.228   4.690  52.311  1.00  0.00     0.012 C 
HETATM    8  C11 UNL     1      23.596   3.435  52.502  1.00  0.00     0.014 C 
HETATM    9  C12 UNL     1      24.769   2.840  51.709  1.00  0.00     0.077 C 
HETATM   10  C14 UNL     1      25.120   3.223  50.356  1.00  0.00     0.011 C 
HETATM   11  C15 UNL     1      26.088   4.269  49.961  1.00  0.00     0.044 C 
HETATM   12  C16 UNL     1      24.112   3.376  49.326  1.00  0.00     0.041 C 
HETATM   13  N1  UNL     1      21.903   5.360  52.178  1.00  0.00    -0.344 N 
HETATM   14  C17 UNL     1      21.972   6.055  50.801  1.00  0.00     0.127 C 
HETATM   15  N2  UNL     1      21.561   6.712  49.830  1.00  0.00    -0.283 NA
HETATM   16  H21 UNL     1      21.231   5.215  52.900  1.00  0.00     0.167 HD
HETATM   17  H22 UNL     1      20.660   7.170  49.712  1.00  0.00     0.188 HD
ENDROOT
BRANCH   9  18
HETATM   18  S1  UNL     1      24.798   1.137  52.148  1.00  0.00    -0.150 SA
BRANCH  18  19
HETATM   19  C13 UNL     1      26.304   0.375  52.638  1.00  0.00     0.145 C 
BRANCH  19  20
HETATM   20  S2  UNL     1      26.491   0.333  54.437  1.00  0.00    -0.172 SA
HETATM   21  H15 UNL     1      27.752  -0.273  54.704  1.00  0.00     0.102 HD
ENDBRANCH  19  20
ENDBRANCH  18  19
ENDBRANCH   9  18
BRANCH   1  22
HETATM   22  C3  UNL     1      27.161   5.928  48.520  1.00  0.00     0.002 C 
HETATM   23  C2  UNL     1      28.256   5.242  48.440  1.00  0.00    -0.030 C 
HETATM   24  C1  UNL     1      29.555   5.822  47.971  1.00  0.00     0.036 C 
ENDBRANCH   1  22
TORSDOF 4
ENDMDL
MODEL 6
REMARK VINA RESULT:      -6.7      3.086      4.735
REMARK  4 active torsions:
REMARK  status: ('A' for Active; 'I' for Inactive)
REMARK    1  A    between atoms: C3_3  and  C4_4 
REMARK    2  A    between atoms: C12_12  and  S1_13 
REMARK    3  A    between atoms: S1_13  and  C13_14 
REMARK    4  A    between atoms: C13_14  and  S2_15 
ROOT
HETATM    1  C4  UNL     1      25.034   0.839  52.222  1.00  0.00    -0.061 C 
HETATM    2  C5  UNL     1      24.058   0.263  53.026  1.00  0.00    -0.015 C 
HETATM    3  C6  UNL     1      22.584   0.820  53.328  1.00  0.00     0.062 C 
HETATM    4  C7  UNL     1      23.059   2.009  52.707  1.00  0.00    -0.066 C 
HETATM    5  C8  UNL     1      22.307   1.685  51.613  1.00  0.00    -0.004 C 
HETATM    6  C9  UNL     1      22.472   1.547  50.081  1.00  0.00     0.099 C 
HETATM    7  C10 UNL     1      21.947   3.028  50.228  1.00  0.00     0.012 C 
HETATM    8  C11 UNL     1      22.624   4.163  50.175  1.00  0.00     0.014 C 
HETATM    9  C12 UNL     1      24.096   4.210  50.611  1.00  0.00     0.077 C 
HETATM   10  C14 UNL     1      24.669   3.379  51.651  1.00  0.00     0.011 C 
HETATM   11  C15 UNL     1      25.326   2.067  51.467  1.00  0.00     0.044 C 
HETATM   12  C16 UNL     1      23.991   3.173  52.915  1.00  0.00     0.041 C 
HETATM   13  N1  UNL     1      20.570   2.678  50.678  1.00  0.00    -0.344 N 
HETATM   14  C17 UNL     1      20.795   1.616  51.777  1.00  0.00     0.127 C 
HETATM   15  N2  UNL     1      20.483   0.821  52.679  1.00  0.00    -0.283 NA
HETATM   16  H21 UNL     1      19.805   3.179  50.281  1.00  0.00     0.167 HD
HETATM   17  H22 UNL     1      19.553   0.573  53.010  1.00  0.00     0.188 HD
ENDROOT
BRANCH   9  18
HETATM   18  S1  UNL     1      24.538   5.911  50.537  1.00  0.00    -0.150 SA
BRANCH  18  19
HETATM   19  C13 UNL     1      25.942   6.421  49.611  1.00  0.00     0.145 C 
BRANCH  19  20
HETATM   20  S2  UNL     1      26.265   8.192  49.788  1.00  0.00    -0.172 SA
HETATM   21  H15 UNL     1      26.604   8.412  51.154  1.00  0.00     0.102 HD
ENDBRANCH  19  20
ENDBRANCH  18  19
ENDBRANCH   9  18
BRANCH   1  22
HETATM   22  C3  UNL     1      26.176  -0.142  52.082  1.00  0.00     0.002 C 
HETATM   23  C2  UNL     1      26.268  -1.234  52.770  1.00  0.00    -0.030 C 
HETATM   24  C1  UNL     1      27.403  -2.201  52.624  1.00  0.00     0.036 C 
ENDBRANCH   1  22
TORSDOF 4
ENDMDL
MODEL 7
REMARK VINA RESULT:      -6.6      2.651      3.937
REMARK  4 active torsions:
REMARK  status: ('A' for Active; 'I' for Inactive)
REMARK    1  A    between atoms: C3_3  and  C4_4 
REMARK    2  A    between atoms: C12_12  and  S1_13 
REMARK    3  A    between atoms: S1_13  and  C13_14 
REMARK    4  A    between atoms: C13_14  and  S2_15 
ROOT
HETATM    1  C4  UNL     1      25.896   4.952  48.964  1.00  0.00    -0.061 C 
HETATM    2  C5  UNL     1      25.542   6.226  48.539  1.00  0.00    -0.015 C 
HETATM    3  C6  UNL     1      24.107   6.934  48.659  1.00  0.00     0.062 C 
HETATM    4  C7  UNL     1      23.652   5.634  49.017  1.00  0.00    -0.066 C 
HETATM    5  C8  UNL     1      23.559   6.070  50.308  1.00  0.00    -0.004 C 
HETATM    6  C9  UNL     1      24.008   5.636  51.724  1.00  0.00     0.099 C 
HETATM    7  C10 UNL     1      22.555   5.027  51.634  1.00  0.00     0.012 C 
HETATM    8  C11 UNL     1      22.187   3.779  51.395  1.00  0.00     0.014 C 
HETATM    9  C12 UNL     1      23.064   2.863  50.530  1.00  0.00     0.077 C 
HETATM   10  C14 UNL     1      23.890   3.319  49.430  1.00  0.00     0.011 C 
HETATM   11  C15 UNL     1      25.313   3.714  49.502  1.00  0.00     0.044 C 
HETATM   12  C16 UNL     1      23.391   4.263  48.450  1.00  0.00     0.041 C 
HETATM   13  N1  UNL     1      21.823   6.325  51.651  1.00  0.00    -0.344 N 
HETATM   14  C17 UNL     1      22.576   7.191  50.617  1.00  0.00     0.127 C 
HETATM   15  N2  UNL     1      22.808   8.189  49.914  1.00  0.00    -0.283 NA
HETATM   16  H21 UNL     1      21.011   6.398  52.223  1.00  0.00     0.167 HD
HETATM   17  H22 UNL     1      22.318   9.081  49.900  1.00  0.00     0.188 HD
ENDROOT
BRANCH   9  18
HETATM   18  S1  UNL     1      22.129   1.385  50.340  1.00  0.00    -0.150 SA
BRANCH  18  19
HETATM   19  C13 UNL     1      21.372   0.631  51.736  1.00  0.00     0.145 C 
BRANCH  19  20
HETATM   20  S2  UNL     1      19.567   0.638  51.615  1.00  0.00    -0.172 SA
HETATM   21  H15 UNL     1      19.091   1.496  52.648  1.00  0.00     0.102 HD
ENDBRANCH  19  20
ENDBRANCH  18  19
ENDBRANCH   9  18
BRANCH   1  22
HETATM   22  C3  UNL     1      27.395   4.803  48.823  1.00  0.00     0.002 C 
HETATM   23  C2  UNL     1      28.161   5.724  48.333  1.00  0.00    -0.030 C 
HETATM   24  C1  UNL     1      29.645   5.568  48.197  1.00  0.00     0.036 C 
ENDBRANCH   1  22
TORSDOF 4
ENDMDL
MODEL 8
REMARK VINA RESULT:      -6.5      2.716      4.257
REMARK  4 active torsions:
REMARK  status: ('A' for Active; 'I' for Inactive)
REMARK    1  A    between atoms: C3_3  and  C4_4 
REMARK    2  A    between atoms: C12_12  and  S1_13 
REMARK    3  A    between atoms: S1_13  and  C13_14 
REMARK    4  A    between atoms: C13_14  and  S2_15 
ROOT
HETATM    1  C4  UNL     1      26.017   5.160  48.949  1.00  0.00    -0.061 C 
HETATM    2  C5  UNL     1      25.694   6.318  48.253  1.00  0.00    -0.015 C 
HETATM    3  C6  UNL     1      24.281   7.078  48.218  1.00  0.00     0.062 C 
HETATM    4  C7  UNL     1      23.794   5.903  48.858  1.00  0.00    -0.066 C 
HETATM    5  C8  UNL     1      23.727   6.617  50.020  1.00  0.00    -0.004 C 
HETATM    6  C9  UNL     1      24.178   6.495  51.495  1.00  0.00     0.099 C 
HETATM    7  C10 UNL     1      22.707   5.925  51.548  1.00  0.00     0.012 C 
HETATM    8  C11 UNL     1      22.301   4.667  51.593  1.00  0.00     0.014 C 
HETATM    9  C12 UNL     1      23.143   3.556  50.950  1.00  0.00     0.077 C 
HETATM   10  C14 UNL     1      23.970   3.732  49.772  1.00  0.00     0.011 C 
HETATM   11  C15 UNL     1      25.404   4.089  49.750  1.00  0.00     0.044 C 
HETATM   12  C16 UNL     1      23.488   4.450  48.610  1.00  0.00     0.041 C 
HETATM   13  N1  UNL     1      22.013   7.216  51.279  1.00  0.00    -0.344 N 
HETATM   14  C17 UNL     1      22.779   7.808  50.077  1.00  0.00     0.127 C 
HETATM   15  N2  UNL     1      23.032   8.618  49.169  1.00  0.00    -0.283 NA
HETATM   16  H21 UNL     1      21.209   7.437  51.825  1.00  0.00     0.167 HD
HETATM   17  H22 UNL     1      22.568   9.499  48.959  1.00  0.00     0.188 HD
ENDROOT
BRANCH   9  18
HETATM   18  S1  UNL     1      22.164   2.101  51.096  1.00  0.00    -0.150 SA
BRANCH  18  19
HETATM   19  C13 UNL     1      22.768   0.715  51.993  1.00  0.00     0.145 C 
BRANCH  19  20
HETATM   20  S2  UNL     1      24.325   1.080  52.840  1.00  0.00    -0.172 SA
HETATM   21  H15 UNL     1      24.723   2.382  52.420  1.00  0.00     0.102 HD
ENDBRANCH  19  20
ENDBRANCH  18  19
ENDBRANCH   9  18
BRANCH   1  22
HETATM   22  C3  UNL     1      27.509   4.938  48.839  1.00  0.00     0.002 C 
HETATM   23  C2  UNL     1      28.321   5.795  48.308  1.00  0.00    -0.030 C 
HETATM   24  C1  UNL     1      29.798   5.568  48.203  1.00  0.00     0.036 C 
ENDBRANCH   1  22
TORSDOF 4
ENDMDL
MODEL 9
REMARK VINA RESULT:      -6.5     10.318     12.675
REMARK  4 active torsions:
REMARK  status: ('A' for Active; 'I' for Inactive)
REMARK    1  A    between atoms: C3_3  and  C4_4 
REMARK    2  A    between atoms: C12_12  and  S1_13 
REMARK    3  A    between atoms: S1_13  and  C13_14 
REMARK    4  A    between atoms: C13_14  and  S2_15 
ROOT
HETATM    1  C4  UNL     1      31.134   6.237  47.411  1.00  0.00    -0.061 C 
HETATM    2  C5  UNL     1      31.691   5.077  47.932  1.00  0.00    -0.015 C 
HETATM    3  C6  UNL     1      33.244   4.673  47.979  1.00  0.00     0.062 C 
HETATM    4  C7  UNL     1      33.413   5.781  47.102  1.00  0.00    -0.066 C 
HETATM    5  C8  UNL     1      33.946   6.474  48.152  1.00  0.00    -0.004 C 
HETATM    6  C9  UNL     1      33.777   7.841  48.857  1.00  0.00     0.099 C 
HETATM    7  C10 UNL     1      34.943   8.135  47.836  1.00  0.00     0.012 C 
HETATM    8  C11 UNL     1      34.894   8.757  46.670  1.00  0.00     0.014 C 
HETATM    9  C12 UNL     1      33.614   8.719  45.823  1.00  0.00     0.077 C 
HETATM   10  C14 UNL     1      32.686   7.607  45.791  1.00  0.00     0.011 C 
HETATM   11  C15 UNL     1      31.486   7.438  46.638  1.00  0.00     0.044 C 
HETATM   12  C16 UNL     1      33.148   6.237  45.692  1.00  0.00     0.041 C 
HETATM   13  N1  UNL     1      35.972   7.285  48.500  1.00  0.00    -0.344 N 
HETATM   14  C17 UNL     1      35.236   5.954  48.773  1.00  0.00     0.127 C 
HETATM   15  N2  UNL     1      35.105   4.777  49.146  1.00  0.00    -0.283 NA
HETATM   16  H21 UNL     1      36.893   7.653  48.596  1.00  0.00     0.167 HD
HETATM   17  H22 UNL     1      35.793   4.173  49.592  1.00  0.00     0.188 HD
ENDROOT
BRANCH   9  18
HETATM   18  S1  UNL     1      34.044   9.515  44.314  1.00  0.00    -0.150 SA
BRANCH  18  19
HETATM   19  C13 UNL     1      35.463   8.999  43.414  1.00  0.00     0.145 C 
BRANCH  19  20
HETATM   20  S2  UNL     1      35.218   7.388  42.627  1.00  0.00    -0.172 SA
HETATM   21  H15 UNL     1      36.415   7.096  41.911  1.00  0.00     0.102 HD
ENDBRANCH  19  20
ENDBRANCH  18  19
ENDBRANCH   9  18
BRANCH   1  22
HETATM   22  C3  UNL     1      29.665   6.263  47.771  1.00  0.00     0.002 C 
HETATM   23  C2  UNL     1      29.020   5.232  48.217  1.00  0.00    -0.030 C 
HETATM   24  C1  UNL     1      27.565   5.266  48.571  1.00  0.00     0.036 C 
ENDBRANCH   1  22
TORSDOF 4
ENDMDL
