MODEL 1
REMARK VINA RESULT:      -7.2      0.000      0.000
REMARK  1 active torsions:
REMARK  status: ('A' for Active; 'I' for Inactive)
REMARK    1  A    between atoms: C2_2  and  N1_3 
ROOT
HETATM    1  N1  UNL     1      22.903  -0.440  53.206  1.00  0.00    -0.360 N 
HETATM    2  C3  UNL     1      24.336  -0.730  52.915  1.00  0.00     0.253 C 
HETATM    3  N2  UNL     1      25.104   0.384  53.381  1.00  0.00    -0.320 N 
HETATM    4  C4  UNL     1      26.100   0.196  54.303  1.00  0.00     0.211 A 
HETATM    5  N3  UNL     1      26.745   1.346  54.656  1.00  0.00    -0.253 NA
HETATM    6  C5  UNL     1      26.096   2.288  53.899  1.00  0.00     0.152 A 
HETATM    7  C6  UNL     1      25.095   1.687  53.124  1.00  0.00     0.113 A 
HETATM    8  C7  UNL     1      24.398   2.671  52.307  1.00  0.00     0.238 C 
HETATM    9  F1  UNL     1      23.543   3.501  52.997  1.00  0.00    -0.182 F 
HETATM   10  N4  UNL     1      24.479   2.869  51.025  1.00  0.00    -0.222 NA
HETATM   11  C8  UNL     1      23.731   3.877  50.364  1.00  0.00     0.049 C 
HETATM   12  C9  UNL     1      24.217   5.180  50.845  1.00  0.00     0.072 C 
HETATM   13  C10 UNL     1      22.770   3.815  49.466  1.00  0.00     0.112 C 
HETATM   14  N5  UNL     1      22.128   2.726  48.827  1.00  0.00    -0.392 N 
HETATM   15  C11 UNL     1      21.508   3.002  47.518  1.00  0.00     0.148 C 
HETATM   16  C12 UNL     1      21.971   1.353  49.255  1.00  0.00     0.129 C 
HETATM   17  C13 UNL     1      21.072   1.175  50.413  1.00  0.00     0.046 C 
HETATM   18  C14 UNL     1      20.890   0.758  51.651  1.00  0.00     0.191 A 
HETATM   19  C15 UNL     1      21.677   0.128  52.692  1.00  0.00     0.214 A 
HETATM   20  O1  UNL     1      22.356   0.300  51.672  1.00  0.00    -0.343 OA
ENDROOT
BRANCH   1  21
HETATM   21  C2  UNL     1      22.537  -0.856  54.535  1.00  0.00     0.117 C 
HETATM   22  C1  UNL     1      21.238  -1.614  54.586  1.00  0.00     0.026 C 
ENDBRANCH   1  21
TORSDOF 1
ENDMDL
MODEL 2
REMARK VINA RESULT:      -7.2      2.183      5.997
REMARK  1 active torsions:
REMARK  status: ('A' for Active; 'I' for Inactive)
REMARK    1  A    between atoms: C2_2  and  N1_3 
ROOT
HETATM    1  N1  UNL     1      21.389   2.889  51.225  1.00  0.00    -0.360 N 
HETATM    2  C3  UNL     1      20.878   1.755  50.405  1.00  0.00     0.253 C 
HETATM    3  N2  UNL     1      20.108   0.912  51.269  1.00  0.00    -0.320 N 
HETATM    4  C4  UNL     1      18.796   0.644  50.978  1.00  0.00     0.211 A 
HETATM    5  N3  UNL     1      18.187  -0.170  51.888  1.00  0.00    -0.253 NA
HETATM    6  C5  UNL     1      19.196  -0.408  52.786  1.00  0.00     0.152 A 
HETATM    7  C6  UNL     1      20.365   0.259  52.395  1.00  0.00     0.113 A 
HETATM    8  C7  UNL     1      21.452   0.013  53.334  1.00  0.00     0.238 C 
HETATM    9  F1  UNL     1      21.335   0.660  54.544  1.00  0.00    -0.182 F 
HETATM   10  N4  UNL     1      22.505  -0.733  53.182  1.00  0.00    -0.222 NA
HETATM   11  C8  UNL     1      23.487  -0.876  54.196  1.00  0.00     0.049 C 
HETATM   12  C9  UNL     1      22.857  -1.569  55.331  1.00  0.00     0.072 C 
HETATM   13  C10 UNL     1      24.753  -0.521  54.254  1.00  0.00     0.112 C 
HETATM   14  N5  UNL     1      25.606   0.133  53.329  1.00  0.00    -0.392 N 
HETATM   15  C11 UNL     1      27.052  -0.110  53.481  1.00  0.00     0.148 C 
HETATM   16  C12 UNL     1      25.288   1.024  52.236  1.00  0.00     0.129 C 
HETATM   17  C13 UNL     1      24.769   2.342  52.655  1.00  0.00     0.046 C 
HETATM   18  C14 UNL     1      23.800   3.236  52.632  1.00  0.00     0.191 A 
HETATM   19  C15 UNL     1      22.484   3.371  52.038  1.00  0.00     0.214 A 
HETATM   20  O1  UNL     1      23.001   2.292  51.721  1.00  0.00    -0.343 OA
ENDROOT
BRANCH   1  21
HETATM   21  C2  UNL     1      20.439   3.970  51.288  1.00  0.00     0.117 C 
HETATM   22  C1  UNL     1      21.006   5.289  50.838  1.00  0.00     0.026 C 
ENDBRANCH   1  21
TORSDOF 1
ENDMDL
MODEL 3
REMARK VINA RESULT:      -7.0      2.193      5.063
REMARK  1 active torsions:
REMARK  status: ('A' for Active; 'I' for Inactive)
REMARK    1  A    between atoms: C2_2  and  N1_3 
ROOT
HETATM    1  N1  UNL     1      21.191   2.199  52.151  1.00  0.00    -0.360 N 
HETATM    2  C3  UNL     1      21.059   3.674  52.309  1.00  0.00     0.253 C 
HETATM    3  N2  UNL     1      21.389   4.274  51.052  1.00  0.00    -0.320 N 
HETATM    4  C4  UNL     1      20.483   5.083  50.417  1.00  0.00     0.211 A 
HETATM    5  N3  UNL     1      20.932   5.582  49.228  1.00  0.00    -0.253 NA
HETATM    6  C5  UNL     1      22.187   5.038  49.140  1.00  0.00     0.152 A 
HETATM    7  C6  UNL     1      22.455   4.241  50.261  1.00  0.00     0.113 A 
HETATM    8  C7  UNL     1      23.788   3.658  50.189  1.00  0.00     0.238 C 
HETATM    9  F1  UNL     1      23.932   2.641  49.273  1.00  0.00    -0.182 F 
HETATM   10  N4  UNL     1      24.851   3.973  50.867  1.00  0.00    -0.222 NA
HETATM   11  C8  UNL     1      26.092   3.310  50.685  1.00  0.00     0.049 C 
HETATM   12  C9  UNL     1      26.567   3.619  49.327  1.00  0.00     0.072 C 
HETATM   13  C10 UNL     1      26.808   2.545  51.482  1.00  0.00     0.112 C 
HETATM   14  N5  UNL     1      26.609   2.100  52.813  1.00  0.00    -0.392 N 
HETATM   15  C11 UNL     1      27.818   1.729  53.571  1.00  0.00     0.148 C 
HETATM   16  C12 UNL     1      25.388   1.942  53.571  1.00  0.00     0.129 C 
HETATM   17  C13 UNL     1      24.515   0.849  53.099  1.00  0.00     0.046 C 
HETATM   18  C14 UNL     1      23.347   0.457  52.629  1.00  0.00     0.191 A 
HETATM   19  C15 UNL     1      22.078   1.064  52.277  1.00  0.00     0.214 A 
HETATM   20  O1  UNL     1      22.869   1.915  52.701  1.00  0.00    -0.343 OA
ENDROOT
BRANCH   1  21
HETATM   21  C2  UNL     1      19.977   1.608  51.651  1.00  0.00     0.117 C 
HETATM   22  C1  UNL     1      19.721   0.225  52.187  1.00  0.00     0.026 C 
ENDBRANCH   1  21
TORSDOF 1
ENDMDL
MODEL 4
REMARK VINA RESULT:      -6.9      2.182      4.177
REMARK  1 active torsions:
REMARK  status: ('A' for Active; 'I' for Inactive)
REMARK    1  A    between atoms: C2_2  and  N1_3 
ROOT
HETATM    1  N1  UNL     1      26.058   1.433  52.041  1.00  0.00    -0.360 N 
HETATM    2  C3  UNL     1      25.246   1.506  53.288  1.00  0.00     0.253 C 
HETATM    3  N2  UNL     1      23.988   0.878  53.020  1.00  0.00    -0.320 N 
HETATM    4  C4  UNL     1      23.571  -0.180  53.784  1.00  0.00     0.211 A 
HETATM    5  N3  UNL     1      22.355  -0.679  53.413  1.00  0.00    -0.253 NA
HETATM    6  C5  UNL     1      22.018   0.130  52.359  1.00  0.00     0.152 A 
HETATM    7  C6  UNL     1      23.025   1.078  52.128  1.00  0.00     0.113 A 
HETATM    8  C7  UNL     1      22.682   1.952  51.014  1.00  0.00     0.238 C 
HETATM    9  F1  UNL     1      22.768   1.370  49.769  1.00  0.00    -0.182 F 
HETATM   10  N4  UNL     1      22.305   3.195  51.042  1.00  0.00    -0.222 NA
HETATM   11  C8  UNL     1      22.002   3.923  49.862  1.00  0.00     0.049 C 
HETATM   12  C9  UNL     1      20.804   3.316  49.261  1.00  0.00     0.072 C 
HETATM   13  C10 UNL     1      22.577   4.962  49.295  1.00  0.00     0.112 C 
HETATM   14  N5  UNL     1      23.707   5.740  49.650  1.00  0.00    -0.392 N 
HETATM   15  C11 UNL     1      23.750   7.118  49.125  1.00  0.00     0.148 C 
HETATM   16  C12 UNL     1      24.858   5.401  50.457  1.00  0.00     0.129 C 
HETATM   17  C13 UNL     1      25.762   4.408  49.844  1.00  0.00     0.046 C 
HETATM   18  C14 UNL     1      26.358   3.233  49.901  1.00  0.00     0.191 A 
HETATM   19  C15 UNL     1      26.417   2.108  50.814  1.00  0.00     0.214 A 
HETATM   20  O1  UNL     1      25.687   3.000  51.263  1.00  0.00    -0.343 OA
ENDROOT
BRANCH   1  21
HETATM   21  C2  UNL     1      26.793   0.196  51.957  1.00  0.00     0.117 C 
HETATM   22  C1  UNL     1      27.518  -0.153  53.228  1.00  0.00     0.026 C 
ENDBRANCH   1  21
TORSDOF 1
ENDMDL
MODEL 5
REMARK VINA RESULT:      -6.9      2.080      4.543
REMARK  1 active torsions:
REMARK  status: ('A' for Active; 'I' for Inactive)
REMARK    1  A    between atoms: C2_2  and  N1_3 
ROOT
HETATM    1  N1  UNL     1      22.028   0.044  53.607  1.00  0.00    -0.360 N 
HETATM    2  C3  UNL     1      20.730   0.755  53.776  1.00  0.00     0.253 C 
HETATM    3  N2  UNL     1      19.934   0.480  52.619  1.00  0.00    -0.320 N 
HETATM    4  C4  UNL     1      18.700  -0.100  52.755  1.00  0.00     0.211 A 
HETATM    5  N3  UNL     1      18.056  -0.306  51.568  1.00  0.00    -0.253 NA
HETATM    6  C5  UNL     1      18.960   0.179  50.659  1.00  0.00     0.152 A 
HETATM    7  C6  UNL     1      20.104   0.657  51.314  1.00  0.00     0.113 A 
HETATM    8  C7  UNL     1      21.075   1.183  50.364  1.00  0.00     0.238 C 
HETATM    9  F1  UNL     1      21.740   0.232  49.623  1.00  0.00    -0.182 F 
HETATM   10  N4  UNL     1      21.389   2.421  50.123  1.00  0.00    -0.222 NA
HETATM   11  C8  UNL     1      22.365   2.783  49.159  1.00  0.00     0.049 C 
HETATM   12  C9  UNL     1      21.845   2.400  47.836  1.00  0.00     0.072 C 
HETATM   13  C10 UNL     1      23.542   3.362  49.269  1.00  0.00     0.112 C 
HETATM   14  N5  UNL     1      24.271   3.839  50.387  1.00  0.00    -0.392 N 
HETATM   15  C11 UNL     1      25.267   4.893  50.122  1.00  0.00     0.148 C 
HETATM   16  C12 UNL     1      24.204   3.453  51.779  1.00  0.00     0.129 C 
HETATM   17  C13 UNL     1      24.706   2.093  52.059  1.00  0.00     0.046 C 
HETATM   18  C14 UNL     1      24.486   0.879  52.525  1.00  0.00     0.191 A 
HETATM   19  C15 UNL     1      23.386   0.147  53.121  1.00  0.00     0.214 A 
HETATM   20  O1  UNL     1      23.052   1.311  52.867  1.00  0.00    -0.343 OA
ENDROOT
BRANCH   1  21
HETATM   21  C2  UNL     1      21.957  -1.312  54.088  1.00  0.00     0.117 C 
HETATM   22  C1  UNL     1      22.800  -1.556  55.309  1.00  0.00     0.026 C 
ENDBRANCH   1  21
TORSDOF 1
ENDMDL
MODEL 6
REMARK VINA RESULT:      -6.6      1.988      5.480
REMARK  1 active torsions:
REMARK  status: ('A' for Active; 'I' for Inactive)
REMARK    1  A    between atoms: C2_2  and  N1_3 
ROOT
HETATM    1  N1  UNL     1      20.863   3.909  49.375  1.00  0.00    -0.360 N 
HETATM    2  C3  UNL     1      20.614   4.957  50.404  1.00  0.00     0.253 C 
HETATM    3  N2  UNL     1      21.878   5.536  50.745  1.00  0.00    -0.320 N 
HETATM    4  C4  UNL     1      22.079   6.883  50.600  1.00  0.00     0.211 A 
HETATM    5  N3  UNL     1      23.331   7.293  50.960  1.00  0.00    -0.253 NA
HETATM    6  C5  UNL     1      23.922   6.118  51.346  1.00  0.00     0.152 A 
HETATM    7  C6  UNL     1      23.023   5.050  51.210  1.00  0.00     0.113 A 
HETATM    8  C7  UNL     1      23.631   3.792  51.622  1.00  0.00     0.238 C 
HETATM    9  F1  UNL     1      24.566   3.283  50.749  1.00  0.00    -0.182 F 
HETATM   10  N4  UNL     1      23.412   3.097  52.697  1.00  0.00    -0.222 NA
HETATM   11  C8  UNL     1      24.088   1.878  52.964  1.00  0.00     0.049 C 
HETATM   12  C9  UNL     1      25.511   2.193  53.161  1.00  0.00     0.072 C 
HETATM   13  C10 UNL     1      23.661   0.636  53.059  1.00  0.00     0.112 C 
HETATM   14  N5  UNL     1      22.376   0.054  52.933  1.00  0.00    -0.392 N 
HETATM   15  C11 UNL     1      22.164  -1.232  53.621  1.00  0.00     0.148 C 
HETATM   16  C12 UNL     1      21.206   0.521  52.222  1.00  0.00     0.129 C 
HETATM   17  C13 UNL     1      21.337   0.496  50.751  1.00  0.00     0.046 C 
HETATM   18  C14 UNL     1      21.328   1.144  49.603  1.00  0.00     0.191 A 
HETATM   19  C15 UNL     1      21.133   2.507  49.147  1.00  0.00     0.214 A 
HETATM   20  O1  UNL     1      21.023   2.435  50.377  1.00  0.00    -0.343 OA
ENDROOT
BRANCH   1  21
HETATM   21  C2  UNL     1      20.869   4.461  48.045  1.00  0.00     0.117 C 
HETATM   22  C1  UNL     1      22.180   4.279  47.329  1.00  0.00     0.026 C 
ENDBRANCH   1  21
TORSDOF 1
ENDMDL
MODEL 7
REMARK VINA RESULT:      -6.5      2.921      4.718
REMARK  1 active torsions:
REMARK  status: ('A' for Active; 'I' for Inactive)
REMARK    1  A    between atoms: C2_2  and  N1_3 
ROOT
HETATM    1  N1  UNL     1      25.987   2.649  51.112  1.00  0.00    -0.360 N 
HETATM    2  C3  UNL     1      26.171   2.834  49.645  1.00  0.00     0.253 C 
HETATM    3  N2  UNL     1      26.344   4.235  49.406  1.00  0.00    -0.320 N 
HETATM    4  C4  UNL     1      27.473   4.691  48.778  1.00  0.00     0.211 A 
HETATM    5  N3  UNL     1      27.503   6.047  48.619  1.00  0.00    -0.253 NA
HETATM    6  C5  UNL     1      26.317   6.432  49.189  1.00  0.00     0.152 A 
HETATM    7  C6  UNL     1      25.617   5.315  49.666  1.00  0.00     0.113 A 
HETATM    8  C7  UNL     1      24.350   5.704  50.269  1.00  0.00     0.238 C 
HETATM    9  F1  UNL     1      24.453   6.322  51.495  1.00  0.00    -0.182 F 
HETATM   10  N4  UNL     1      23.146   5.549  49.804  1.00  0.00    -0.222 NA
HETATM   11  C8  UNL     1      21.996   5.983  50.514  1.00  0.00     0.049 C 
HETATM   12  C9  UNL     1      22.046   7.452  50.583  1.00  0.00     0.072 C 
HETATM   13  C10 UNL     1      20.992   5.325  51.053  1.00  0.00     0.112 C 
HETATM   14  N5  UNL     1      20.684   3.944  51.126  1.00  0.00    -0.392 N 
HETATM   15  C11 UNL     1      19.263   3.594  51.305  1.00  0.00     0.148 C 
HETATM   16  C12 UNL     1      21.552   2.789  51.056  1.00  0.00     0.129 C 
HETATM   17  C13 UNL     1      22.446   2.628  52.220  1.00  0.00     0.046 C 
HETATM   18  C14 UNL     1      23.671   2.540  52.703  1.00  0.00     0.191 A 
HETATM   19  C15 UNL     1      25.026   2.561  52.189  1.00  0.00     0.214 A 
HETATM   20  O1  UNL     1      24.205   2.675  51.269  1.00  0.00    -0.343 OA
ENDROOT
BRANCH   1  21
HETATM   21  C2  UNL     1      27.250   2.520  51.793  1.00  0.00     0.117 C 
HETATM   22  C1  UNL     1      27.355   1.269  52.623  1.00  0.00     0.026 C 
ENDBRANCH   1  21
TORSDOF 1
ENDMDL
MODEL 8
REMARK VINA RESULT:      -6.3      2.056      5.534
REMARK  1 active torsions:
REMARK  status: ('A' for Active; 'I' for Inactive)
REMARK    1  A    between atoms: C2_2  and  N1_3 
ROOT
HETATM    1  N1  UNL     1      21.503   4.241  49.409  1.00  0.00    -0.360 N 
HETATM    2  C3  UNL     1      21.788   5.393  50.309  1.00  0.00     0.253 C 
HETATM    3  N2  UNL     1      23.168   5.737  50.144  1.00  0.00    -0.320 N 
HETATM    4  C4  UNL     1      23.520   7.004  49.759  1.00  0.00     0.211 A 
HETATM    5  N3  UNL     1      24.867   7.187  49.639  1.00  0.00    -0.253 NA
HETATM    6  C5  UNL     1      25.359   5.951  49.974  1.00  0.00     0.152 A 
HETATM    7  C6  UNL     1      24.310   5.074  50.281  1.00  0.00     0.113 A 
HETATM    8  C7  UNL     1      24.813   3.756  50.645  1.00  0.00     0.238 C 
HETATM    9  F1  UNL     1      25.302   3.008  49.597  1.00  0.00    -0.182 F 
HETATM   10  N4  UNL     1      24.865   3.202  51.819  1.00  0.00    -0.222 NA
HETATM   11  C8  UNL     1      25.388   1.898  52.020  1.00  0.00     0.049 C 
HETATM   12  C9  UNL     1      26.825   1.942  51.706  1.00  0.00     0.072 C 
HETATM   13  C10 UNL     1      24.828   0.775  52.417  1.00  0.00     0.112 C 
HETATM   14  N5  UNL     1      23.500   0.448  52.790  1.00  0.00    -0.392 N 
HETATM   15  C11 UNL     1      23.333  -0.715  53.680  1.00  0.00     0.148 C 
HETATM   16  C12 UNL     1      22.249   1.079  52.434  1.00  0.00     0.129 C 
HETATM   17  C13 UNL     1      21.867   0.916  51.017  1.00  0.00     0.046 C 
HETATM   18  C14 UNL     1      21.570   1.464  49.854  1.00  0.00     0.191 A 
HETATM   19  C15 UNL     1      21.452   2.799  49.301  1.00  0.00     0.214 A 
HETATM   20  O1  UNL     1      21.757   2.846  50.500  1.00  0.00    -0.343 OA
ENDROOT
BRANCH   1  21
HETATM   21  C2  UNL     1      21.144   4.678  48.085  1.00  0.00     0.117 C 
HETATM   22  C1  UNL     1      22.099   4.206  47.022  1.00  0.00     0.026 C 
ENDBRANCH   1  21
TORSDOF 1
ENDMDL
MODEL 9
REMARK VINA RESULT:      -6.2      3.690      6.182
REMARK  1 active torsions:
REMARK  status: ('A' for Active; 'I' for Inactive)
REMARK    1  A    between atoms: C2_2  and  N1_3 
ROOT
HETATM    1  N1  UNL     1      24.876   3.627  50.958  1.00  0.00    -0.360 N 
HETATM    2  C3  UNL     1      23.936   4.423  51.797  1.00  0.00     0.253 C 
HETATM    3  N2  UNL     1      22.704   4.534  51.076  1.00  0.00    -0.320 N 
HETATM    4  C4  UNL     1      21.537   4.089  51.637  1.00  0.00     0.211 A 
HETATM    5  N3  UNL     1      20.444   4.256  50.836  1.00  0.00    -0.253 NA
HETATM    6  C5  UNL     1      20.988   4.839  49.721  1.00  0.00     0.152 A 
HETATM    7  C6  UNL     1      22.371   5.004  49.880  1.00  0.00     0.113 A 
HETATM    8  C7  UNL     1      22.966   5.628  48.706  1.00  0.00     0.238 C 
HETATM    9  F1  UNL     1      23.062   4.815  47.599  1.00  0.00    -0.182 F 
HETATM   10  N4  UNL     1      23.411   6.841  48.568  1.00  0.00    -0.222 NA
HETATM   11  C8  UNL     1      23.970   7.310  47.351  1.00  0.00     0.049 C 
HETATM   12  C9  UNL     1      22.896   7.326  46.345  1.00  0.00     0.072 C 
HETATM   13  C10 UNL     1      25.186   7.702  47.033  1.00  0.00     0.112 C 
HETATM   14  N5  UNL     1      26.385   7.802  47.782  1.00  0.00    -0.392 N 
HETATM   15  C11 UNL     1      27.389   8.764  47.292  1.00  0.00     0.148 C 
HETATM   16  C12 UNL     1      26.801   7.099  48.974  1.00  0.00     0.129 C 
HETATM   17  C13 UNL     1      27.075   5.662  48.770  1.00  0.00     0.046 C 
HETATM   18  C14 UNL     1      26.809   4.405  49.070  1.00  0.00     0.191 A 
HETATM   19  C15 UNL     1      25.914   3.684  49.953  1.00  0.00     0.214 A 
HETATM   20  O1  UNL     1      25.760   4.906  50.074  1.00  0.00    -0.343 OA
ENDROOT
BRANCH   1  21
HETATM   21  C2  UNL     1      24.720   2.213  51.183  1.00  0.00     0.117 C 
HETATM   22  C1  UNL     1      25.933   1.568  51.796  1.00  0.00     0.026 C 
ENDBRANCH   1  21
TORSDOF 1
ENDMDL
