MODEL 1
REMARK VINA RESULT:      -8.9      0.000      0.000
REMARK  2 active torsions:
REMARK  status: ('A' for Active; 'I' for Inactive)
REMARK    1  A    between atoms: O1_2  and  C2_3 
REMARK    2  A    between atoms: C6_9  and  N3_10 
ROOT
HETATM    1  C2  UNL     1      22.239   1.246  52.079  1.00  0.00     0.103 A 
HETATM    2  C3  UNL     1      22.750   2.020  51.031  1.00  0.00     0.072 A 
HETATM    3  C4  UNL     1      24.115   2.212  51.036  1.00  0.00     0.075 A 
HETATM    4  N1  UNL     1      24.635   2.953  50.045  1.00  0.00    -0.241 NA
HETATM    5  C5  UNL     1      25.963   3.166  50.016  1.00  0.00     0.236 A 
HETATM    6  N2  UNL     1      26.800   2.650  50.963  1.00  0.00    -0.223 NA
HETATM    7  C6  UNL     1      26.297   1.905  51.964  1.00  0.00     0.144 A 
HETATM    8  C15 UNL     1      24.947   1.685  51.999  1.00  0.00     0.042 A 
HETATM    9  C16 UNL     1      24.426   0.922  53.028  1.00  0.00     0.057 A 
HETATM   10  C17 UNL     1      23.047   0.696  53.072  1.00  0.00     0.102 A 
HETATM   11  O2  UNL     1      22.486   0.007  53.981  1.00  0.00    -0.353 OA
HETATM   12  C18 UNL     1      21.923  -0.702  54.921  1.00  0.00     0.210 C 
ENDROOT
BRANCH   1  13
HETATM   13  O1  UNL     1      20.874   1.050  52.080  1.00  0.00    -0.353 OA
HETATM   14  C1  UNL     1      19.999   2.131  52.339  1.00  0.00     0.210 C 
ENDBRANCH   1  13
BRANCH   7  15
HETATM   15  N3  UNL     1      27.226   1.388  52.922  1.00  0.00    -0.330 N 
HETATM   16  C7  UNL     1      28.018   1.914  54.020  1.00  0.00     0.135 C 
HETATM   17  C8  UNL     1      29.286   1.097  53.902  1.00  0.00     0.061 C 
HETATM   18  C9  UNL     1      28.765  -0.217  53.447  1.00  0.00    -0.030 A 
HETATM   19  C10 UNL     1      29.318  -1.476  53.532  1.00  0.00     0.009 A 
HETATM   20  C14 UNL     1      27.512  -0.006  52.855  1.00  0.00     0.042 A 
HETATM   21  C11 UNL     1      28.641  -2.567  53.030  1.00  0.00     0.001 A 
HETATM   22  C12 UNL     1      27.385  -2.418  52.426  1.00  0.00     0.002 A 
HETATM   23  C13 UNL     1      26.883  -1.134  52.371  1.00  0.00     0.030 A 
ENDBRANCH   7  15
TORSDOF 2
ENDMDL
MODEL 2
REMARK VINA RESULT:      -8.5      2.334      3.632
REMARK  2 active torsions:
REMARK  status: ('A' for Active; 'I' for Inactive)
REMARK    1  A    between atoms: O1_2  and  C2_3 
REMARK    2  A    between atoms: C6_9  and  N3_10 
ROOT
HETATM    1  C2  UNL     1      23.814   3.079  49.659  1.00  0.00     0.103 A 
HETATM    2  C3  UNL     1      22.854   2.221  50.207  1.00  0.00     0.072 A 
HETATM    3  C4  UNL     1      23.266   1.469  51.285  1.00  0.00     0.075 A 
HETATM    4  N1  UNL     1      22.368   0.634  51.830  1.00  0.00    -0.241 NA
HETATM    5  C5  UNL     1      22.733  -0.120  52.883  1.00  0.00     0.236 A 
HETATM    6  N2  UNL     1      23.988  -0.062  53.416  1.00  0.00    -0.223 NA
HETATM    7  C6  UNL     1      24.902   0.769  52.883  1.00  0.00     0.144 A 
HETATM    8  C15 UNL     1      24.537   1.539  51.811  1.00  0.00     0.042 A 
HETATM    9  C16 UNL     1      25.474   2.392  51.258  1.00  0.00     0.057 A 
HETATM   10  C17 UNL     1      25.109   3.179  50.162  1.00  0.00     0.102 A 
HETATM   11  O2  UNL     1      25.907   3.988  49.594  1.00  0.00    -0.353 OA
HETATM   12  C18 UNL     1      26.738   4.816  49.019  1.00  0.00     0.210 C 
ENDROOT
BRANCH   1  13
HETATM   13  O1  UNL     1      23.407   3.835  48.579  1.00  0.00    -0.353 OA
HETATM   14  C1  UNL     1      22.274   3.449  47.825  1.00  0.00     0.210 C 
ENDBRANCH   1  13
BRANCH   7  15
HETATM   15  N3  UNL     1      26.198   0.789  53.489  1.00  0.00    -0.330 N 
HETATM   16  C7  UNL     1      26.968   1.704  54.311  1.00  0.00     0.135 C 
HETATM   17  C8  UNL     1      28.368   1.492  53.778  1.00  0.00     0.061 C 
HETATM   18  C9  UNL     1      28.357   0.044  53.452  1.00  0.00    -0.030 A 
HETATM   19  C10 UNL     1      29.397  -0.849  53.313  1.00  0.00     0.009 A 
HETATM   20  C14 UNL     1      27.024  -0.353  53.281  1.00  0.00     0.042 A 
HETATM   21  C11 UNL     1      29.144  -2.167  52.998  1.00  0.00     0.001 A 
HETATM   22  C12 UNL     1      27.831  -2.623  52.815  1.00  0.00     0.002 A 
HETATM   23  C13 UNL     1      26.832  -1.683  52.968  1.00  0.00     0.030 A 
ENDBRANCH   7  15
TORSDOF 2
ENDMDL
MODEL 3
REMARK VINA RESULT:      -8.2      2.871      6.524
REMARK  2 active torsions:
REMARK  status: ('A' for Active; 'I' for Inactive)
REMARK    1  A    between atoms: O1_2  and  C2_3 
REMARK    2  A    between atoms: C6_9  and  N3_10 
ROOT
HETATM    1  C2  UNL     1      26.465   0.022  53.908  1.00  0.00     0.103 A 
HETATM    2  C3  UNL     1      25.285  -0.731  53.895  1.00  0.00     0.072 A 
HETATM    3  C4  UNL     1      24.164  -0.081  53.425  1.00  0.00     0.075 A 
HETATM    4  N1  UNL     1      23.016  -0.776  53.403  1.00  0.00    -0.241 NA
HETATM    5  C5  UNL     1      21.898  -0.177  52.954  1.00  0.00     0.236 A 
HETATM    6  N2  UNL     1      21.895   1.117  52.518  1.00  0.00    -0.223 NA
HETATM    7  C6  UNL     1      23.035   1.829  52.533  1.00  0.00     0.144 A 
HETATM    8  C15 UNL     1      24.176   1.225  52.989  1.00  0.00     0.042 A 
HETATM    9  C16 UNL     1      25.350   1.955  53.009  1.00  0.00     0.057 A 
HETATM   10  C17 UNL     1      26.519   1.345  53.476  1.00  0.00     0.102 A 
HETATM   11  O2  UNL     1      27.639   1.943  53.528  1.00  0.00    -0.353 OA
HETATM   12  C18 UNL     1      28.784   2.569  53.576  1.00  0.00     0.210 C 
ENDROOT
BRANCH   1  13
HETATM   13  O1  UNL     1      27.591  -0.622  54.377  1.00  0.00    -0.353 OA
HETATM   14  C1  UNL     1      28.514  -1.195  53.471  1.00  0.00     0.210 C 
ENDBRANCH   1  13
BRANCH   7  15
HETATM   15  N3  UNL     1      22.969   3.178  52.059  1.00  0.00    -0.330 N 
HETATM   16  C7  UNL     1      22.994   4.507  52.641  1.00  0.00     0.135 C 
HETATM   17  C8  UNL     1      22.019   5.250  51.754  1.00  0.00     0.061 C 
HETATM   18  C9  UNL     1      22.264   4.619  50.432  1.00  0.00    -0.030 A 
HETATM   19  C10 UNL     1      22.012   5.082  49.160  1.00  0.00     0.009 A 
HETATM   20  C14 UNL     1      22.841   3.360  50.652  1.00  0.00     0.042 A 
HETATM   21  C11 UNL     1      22.325   4.308  48.064  1.00  0.00     0.001 A 
HETATM   22  C12 UNL     1      22.903   3.040  48.220  1.00  0.00     0.002 A 
HETATM   23  C13 UNL     1      23.132   2.631  49.518  1.00  0.00     0.030 A 
ENDBRANCH   7  15
TORSDOF 2
ENDMDL
MODEL 4
REMARK VINA RESULT:      -8.2      1.869      5.847
REMARK  2 active torsions:
REMARK  status: ('A' for Active; 'I' for Inactive)
REMARK    1  A    between atoms: O1_2  and  C2_3 
REMARK    2  A    between atoms: C6_9  and  N3_10 
ROOT
HETATM    1  C2  UNL     1      26.546   0.300  53.307  1.00  0.00     0.103 A 
HETATM    2  C3  UNL     1      27.226   1.120  52.399  1.00  0.00     0.072 A 
HETATM    3  C4  UNL     1      26.456   2.056  51.743  1.00  0.00     0.075 A 
HETATM    4  N1  UNL     1      27.078   2.855  50.862  1.00  0.00    -0.241 NA
HETATM    5  C5  UNL     1      26.361   3.781  50.199  1.00  0.00     0.236 A 
HETATM    6  N2  UNL     1      25.019   3.933  50.395  1.00  0.00    -0.223 NA
HETATM    7  C6  UNL     1      24.378   3.142  51.272  1.00  0.00     0.144 A 
HETATM    8  C15 UNL     1      25.102   2.198  51.950  1.00  0.00     0.042 A 
HETATM    9  C16 UNL     1      24.446   1.380  52.852  1.00  0.00     0.057 A 
HETATM   10  C17 UNL     1      25.179   0.412  53.545  1.00  0.00     0.102 A 
HETATM   11  O2  UNL     1      24.655  -0.379  54.390  1.00  0.00    -0.353 OA
HETATM   12  C18 UNL     1      24.105  -1.187  55.256  1.00  0.00     0.210 C 
ENDROOT
BRANCH   1  13
HETATM   13  O1  UNL     1      27.312  -0.639  53.967  1.00  0.00    -0.353 OA
HETATM   14  C1  UNL     1      28.672  -0.376  54.253  1.00  0.00     0.210 C 
ENDBRANCH   1  13
BRANCH   7  15
HETATM   15  N3  UNL     1      22.972   3.354  51.437  1.00  0.00    -0.330 N 
HETATM   16  C7  UNL     1      22.118   4.222  52.228  1.00  0.00     0.135 C 
HETATM   17  C8  UNL     1      20.958   3.303  52.546  1.00  0.00     0.061 C 
HETATM   18  C9  UNL     1      20.862   2.489  51.308  1.00  0.00    -0.030 A 
HETATM   19  C10 UNL     1      19.806   1.770  50.791  1.00  0.00     0.009 A 
HETATM   20  C14 UNL     1      22.102   2.539  50.657  1.00  0.00     0.042 A 
HETATM   21  C11 UNL     1      19.951   1.077  49.609  1.00  0.00     0.001 A 
HETATM   22  C12 UNL     1      21.167   1.089  48.912  1.00  0.00     0.002 A 
HETATM   23  C13 UNL     1      22.187   1.827  49.479  1.00  0.00     0.030 A 
ENDBRANCH   7  15
TORSDOF 2
ENDMDL
MODEL 5
REMARK VINA RESULT:      -7.8      2.890      4.780
REMARK  2 active torsions:
REMARK  status: ('A' for Active; 'I' for Inactive)
REMARK    1  A    between atoms: O1_2  and  C2_3 
REMARK    2  A    between atoms: C6_9  and  N3_10 
ROOT
HETATM    1  C2  UNL     1      18.932   0.704  50.640  1.00  0.00     0.103 A 
HETATM    2  C3  UNL     1      18.840  -0.029  51.829  1.00  0.00     0.072 A 
HETATM    3  C4  UNL     1      19.949   0.008  52.645  1.00  0.00     0.075 A 
HETATM    4  N1  UNL     1      19.892  -0.689  53.791  1.00  0.00    -0.241 NA
HETATM    5  C5  UNL     1      20.956  -0.680  54.614  1.00  0.00     0.236 A 
HETATM    6  N2  UNL     1      22.093   0.017  54.321  1.00  0.00    -0.223 NA
HETATM    7  C6  UNL     1      22.169   0.720  53.178  1.00  0.00     0.144 A 
HETATM    8  C15 UNL     1      21.089   0.715  52.336  1.00  0.00     0.042 A 
HETATM    9  C16 UNL     1      21.164   1.435  51.158  1.00  0.00     0.057 A 
HETATM   10  C17 UNL     1      20.067   1.433  50.292  1.00  0.00     0.102 A 
HETATM   11  O2  UNL     1      20.052   2.066  49.190  1.00  0.00    -0.353 OA
HETATM   12  C18 UNL     1      20.050   2.722  48.061  1.00  0.00     0.210 C 
ENDROOT
BRANCH   1  13
HETATM   13  O1  UNL     1      17.825   0.671  49.819  1.00  0.00    -0.353 OA
HETATM   14  C1  UNL     1      16.830  -0.318  50.002  1.00  0.00     0.210 C 
ENDBRANCH   1  13
BRANCH   7  15
HETATM   15  N3  UNL     1      23.384   1.434  52.930  1.00  0.00    -0.330 N 
HETATM   16  C7  UNL     1      23.781   2.818  52.747  1.00  0.00     0.135 C 
HETATM   17  C8  UNL     1      24.866   2.691  51.700  1.00  0.00     0.061 C 
HETATM   18  C9  UNL     1      25.501   1.401  52.071  1.00  0.00    -0.030 A 
HETATM   19  C10 UNL     1      26.757   0.910  51.790  1.00  0.00     0.009 A 
HETATM   20  C14 UNL     1      24.574   0.659  52.817  1.00  0.00     0.042 A 
HETATM   21  C11 UNL     1      27.132  -0.337  52.243  1.00  0.00     0.001 A 
HETATM   22  C12 UNL     1      26.249  -1.125  52.993  1.00  0.00     0.002 A 
HETATM   23  C13 UNL     1      25.006  -0.580  53.243  1.00  0.00     0.030 A 
ENDBRANCH   7  15
TORSDOF 2
ENDMDL
MODEL 6
REMARK VINA RESULT:      -7.6      2.994      5.124
REMARK  2 active torsions:
REMARK  status: ('A' for Active; 'I' for Inactive)
REMARK    1  A    between atoms: O1_2  and  C2_3 
REMARK    2  A    between atoms: C6_9  and  N3_10 
ROOT
HETATM    1  C2  UNL     1      20.033   0.254  52.174  1.00  0.00     0.103 A 
HETATM    2  C3  UNL     1      21.071  -0.515  52.712  1.00  0.00     0.072 A 
HETATM    3  C4  UNL     1      22.278   0.131  52.867  1.00  0.00     0.075 A 
HETATM    4  N1  UNL     1      23.295  -0.581  53.378  1.00  0.00    -0.241 NA
HETATM    5  C5  UNL     1      24.491   0.012  53.543  1.00  0.00     0.236 A 
HETATM    6  N2  UNL     1      24.703   1.318  53.207  1.00  0.00    -0.223 NA
HETATM    7  C6  UNL     1      23.697   2.048  52.693  1.00  0.00     0.144 A 
HETATM    8  C15 UNL     1      22.478   1.449  52.523  1.00  0.00     0.042 A 
HETATM    9  C16 UNL     1      21.441   2.195  51.992  1.00  0.00     0.057 A 
HETATM   10  C17 UNL     1      20.194   1.590  51.813  1.00  0.00     0.102 A 
HETATM   11  O2  UNL     1      19.189   2.201  51.333  1.00  0.00    -0.353 OA
HETATM   12  C18 UNL     1      18.165   2.842  50.838  1.00  0.00     0.210 C 
ENDROOT
BRANCH   1  13
HETATM   13  O1  UNL     1      18.822  -0.387  52.016  1.00  0.00    -0.353 OA
HETATM   14  C1  UNL     1      18.209  -1.033  53.115  1.00  0.00     0.210 C 
ENDBRANCH   1  13
BRANCH   7  15
HETATM   15  N3  UNL     1      23.981   3.412  52.366  1.00  0.00    -0.330 N 
HETATM   16  C7  UNL     1      23.604   4.721  52.867  1.00  0.00     0.135 C 
HETATM   17  C8  UNL     1      23.511   5.524  51.587  1.00  0.00     0.061 C 
HETATM   18  C9  UNL     1      24.597   4.926  50.770  1.00  0.00    -0.030 A 
HETATM   19  C10 UNL     1      25.293   5.437  49.697  1.00  0.00     0.009 A 
HETATM   20  C14 UNL     1      24.858   3.642  51.267  1.00  0.00     0.042 A 
HETATM   21  C11 UNL     1      26.272   4.687  49.083  1.00  0.00     0.001 A 
HETATM   22  C12 UNL     1      26.578   3.395  49.535  1.00  0.00     0.002 A 
HETATM   23  C13 UNL     1      25.849   2.938  50.613  1.00  0.00     0.030 A 
ENDBRANCH   7  15
TORSDOF 2
ENDMDL
MODEL 7
REMARK VINA RESULT:      -7.6      1.900      5.207
REMARK  2 active torsions:
REMARK  status: ('A' for Active; 'I' for Inactive)
REMARK    1  A    between atoms: O1_2  and  C2_3 
REMARK    2  A    between atoms: C6_9  and  N3_10 
ROOT
HETATM    1  C2  UNL     1      23.526  -0.223  53.362  1.00  0.00     0.103 A 
HETATM    2  C3  UNL     1      24.772  -0.162  53.995  1.00  0.00     0.072 A 
HETATM    3  C4  UNL     1      25.689   0.701  53.434  1.00  0.00     0.075 A 
HETATM    4  N1  UNL     1      26.895   0.779  54.017  1.00  0.00    -0.241 NA
HETATM    5  C5  UNL     1      27.819   1.609  53.499  1.00  0.00     0.236 A 
HETATM    6  N2  UNL     1      27.567   2.376  52.398  1.00  0.00    -0.223 NA
HETATM    7  C6  UNL     1      26.364   2.311  51.800  1.00  0.00     0.144 A 
HETATM    8  C15 UNL     1      25.420   1.468  52.323  1.00  0.00     0.042 A 
HETATM    9  C16 UNL     1      24.183   1.396  51.709  1.00  0.00     0.057 A 
HETATM   10  C17 UNL     1      23.215   0.536  52.236  1.00  0.00     0.102 A 
HETATM   11  O2  UNL     1      22.055   0.409  51.735  1.00  0.00    -0.353 OA
HETATM   12  C18 UNL     1      20.865   0.288  51.209  1.00  0.00     0.210 C 
ENDROOT
BRANCH   1  13
HETATM   13  O1  UNL     1      22.604  -1.085  53.918  1.00  0.00    -0.353 OA
HETATM   14  C1  UNL     1      21.728  -0.635  54.933  1.00  0.00     0.210 C 
ENDBRANCH   1  13
BRANCH   7  15
HETATM   15  N3  UNL     1      26.160   3.142  50.653  1.00  0.00    -0.330 N 
HETATM   16  C7  UNL     1      26.609   3.172  49.273  1.00  0.00     0.135 C 
HETATM   17  C8  UNL     1      26.752   4.659  49.029  1.00  0.00     0.061 C 
HETATM   18  C9  UNL     1      25.637   5.212  49.839  1.00  0.00    -0.030 A 
HETATM   19  C10 UNL     1      24.976   6.416  49.745  1.00  0.00     0.009 A 
HETATM   20  C14 UNL     1      25.301   4.267  50.819  1.00  0.00     0.042 A 
HETATM   21  C11 UNL     1      23.958   6.721  50.623  1.00  0.00     0.001 A 
HETATM   22  C12 UNL     1      23.577   5.816  51.624  1.00  0.00     0.002 A 
HETATM   23  C13 UNL     1      24.275   4.627  51.668  1.00  0.00     0.030 A 
ENDBRANCH   7  15
TORSDOF 2
ENDMDL
MODEL 8
REMARK VINA RESULT:      -7.5      2.423      3.915
REMARK  2 active torsions:
REMARK  status: ('A' for Active; 'I' for Inactive)
REMARK    1  A    between atoms: O1_2  and  C2_3 
REMARK    2  A    between atoms: C6_9  and  N3_10 
ROOT
HETATM    1  C2  UNL     1      20.098   2.931  52.171  1.00  0.00     0.103 A 
HETATM    2  C3  UNL     1      20.013   1.612  52.633  1.00  0.00     0.072 A 
HETATM    3  C4  UNL     1      21.213   0.953  52.788  1.00  0.00     0.075 A 
HETATM    4  N1  UNL     1      21.164  -0.315  53.226  1.00  0.00    -0.241 NA
HETATM    5  C5  UNL     1      22.314  -0.995  53.390  1.00  0.00     0.236 A 
HETATM    6  N2  UNL     1      23.530  -0.434  53.125  1.00  0.00    -0.223 NA
HETATM    7  C6  UNL     1      23.599   0.835  52.685  1.00  0.00     0.144 A 
HETATM    8  C15 UNL     1      22.433   1.531  52.517  1.00  0.00     0.042 A 
HETATM    9  C16 UNL     1      22.499   2.835  52.062  1.00  0.00     0.057 A 
HETATM   10  C17 UNL     1      21.312   3.552  51.886  1.00  0.00     0.102 A 
HETATM   11  O2  UNL     1      21.282   4.753  51.472  1.00  0.00    -0.353 OA
HETATM   12  C18 UNL     1      21.267   5.987  51.046  1.00  0.00     0.210 C 
ENDROOT
BRANCH   1  13
HETATM   13  O1  UNL     1      18.901   3.597  52.013  1.00  0.00    -0.353 OA
HETATM   14  C1  UNL     1      17.782   2.930  51.462  1.00  0.00     0.210 C 
ENDBRANCH   1  13
BRANCH   7  15
HETATM   15  N3  UNL     1      24.903   1.367  52.430  1.00  0.00    -0.330 N 
HETATM   16  C7  UNL     1      25.506   2.280  51.476  1.00  0.00     0.135 C 
HETATM   17  C8  UNL     1      26.864   1.646  51.262  1.00  0.00     0.061 C 
HETATM   18  C9  UNL     1      27.165   1.101  52.609  1.00  0.00    -0.030 A 
HETATM   19  C10 UNL     1      28.369   0.770  53.191  1.00  0.00     0.009 A 
HETATM   20  C14 UNL     1      25.952   0.941  53.295  1.00  0.00     0.042 A 
HETATM   21  C11 UNL     1      28.406   0.268  54.474  1.00  0.00     0.001 A 
HETATM   22  C12 UNL     1      27.226   0.086  55.209  1.00  0.00     0.002 A 
HETATM   23  C13 UNL     1      26.052   0.436  54.575  1.00  0.00     0.030 A 
ENDBRANCH   7  15
TORSDOF 2
ENDMDL
MODEL 9
REMARK VINA RESULT:      -7.5      2.574      5.918
REMARK  2 active torsions:
REMARK  status: ('A' for Active; 'I' for Inactive)
REMARK    1  A    between atoms: O1_2  and  C2_3 
REMARK    2  A    between atoms: C6_9  and  N3_10 
ROOT
HETATM    1  C2  UNL     1      23.329  -0.063  53.353  1.00  0.00     0.103 A 
HETATM    2  C3  UNL     1      22.138  -0.091  52.618  1.00  0.00     0.072 A 
HETATM    3  C4  UNL     1      22.047   0.819  51.587  1.00  0.00     0.075 A 
HETATM    4  N1  UNL     1      20.915   0.819  50.866  1.00  0.00    -0.241 NA
HETATM    5  C5  UNL     1      20.786   1.694  49.852  1.00  0.00     0.236 A 
HETATM    6  N2  UNL     1      21.772   2.583  49.533  1.00  0.00    -0.223 NA
HETATM    7  C6  UNL     1      22.913   2.599  50.245  1.00  0.00     0.144 A 
HETATM    8  C15 UNL     1      23.050   1.710  51.278  1.00  0.00     0.042 A 
HETATM    9  C16 UNL     1      24.220   1.725  52.014  1.00  0.00     0.057 A 
HETATM   10  C17 UNL     1      24.366   0.822  53.071  1.00  0.00     0.102 A 
HETATM   11  O2  UNL     1      25.407   0.768  53.798  1.00  0.00    -0.353 OA
HETATM   12  C18 UNL     1      26.483   0.724  54.536  1.00  0.00     0.210 C 
ENDROOT
BRANCH   1  13
HETATM   13  O1  UNL     1      23.426  -0.972  54.386  1.00  0.00    -0.353 OA
HETATM   14  C1  UNL     1      22.258  -1.459  55.018  1.00  0.00     0.210 C 
ENDBRANCH   1  13
BRANCH   7  15
HETATM   15  N3  UNL     1      23.910   3.550  49.859  1.00  0.00    -0.330 N 
HETATM   16  C7  UNL     1      25.189   3.523  49.171  1.00  0.00     0.135 C 
HETATM   17  C8  UNL     1      25.965   4.580  49.927  1.00  0.00     0.061 C 
HETATM   18  C9  UNL     1      24.905   5.569  50.249  1.00  0.00    -0.030 A 
HETATM   19  C10 UNL     1      24.997   6.908  50.557  1.00  0.00     0.009 A 
HETATM   20  C14 UNL     1      23.668   4.912  50.200  1.00  0.00     0.042 A 
HETATM   21  C11 UNL     1      23.860   7.638  50.828  1.00  0.00     0.001 A 
HETATM   22  C12 UNL     1      22.594   7.035  50.796  1.00  0.00     0.002 A 
HETATM   23  C13 UNL     1      22.566   5.693  50.480  1.00  0.00     0.030 A 
ENDBRANCH   7  15
TORSDOF 2
ENDMDL
