MODEL 1
REMARK VINA RESULT:      -8.1      0.000      0.000
REMARK  1 active torsions:
REMARK  status: ('A' for Active; 'I' for Inactive)
REMARK    1  A    between atoms: O1_2  and  C2_3 
ROOT
HETATM    1  C2  UNL     1      23.353   3.972  51.679  1.00  0.00     0.075 A 
HETATM    2  C3  UNL     1      24.497   3.275  51.714  1.00  0.00     0.065 A 
HETATM    3  C4  UNL     1      24.459   1.805  51.872  1.00  0.00     0.051 A 
HETATM    4  N1  UNL     1      25.635   1.277  51.862  1.00  0.00    -0.244 NA
HETATM    5  C5  UNL     1      26.822   2.039  51.714  1.00  0.00     0.256 C 
HETATM    6  N2  UNL     1      27.328   1.026  52.284  1.00  0.00    -0.152 NA
HETATM    7  N3  UNL     1      26.562  -0.094  52.677  1.00  0.00    -0.216 N 
HETATM    8  N4  UNL     1      25.639  -0.064  53.725  1.00  0.00    -0.280 N 
HETATM    9  C6  UNL     1      26.464   0.314  54.857  1.00  0.00     0.179 C 
HETATM   10  C7  UNL     1      24.248  -0.303  53.903  1.00  0.00     0.059 A 
HETATM   11  C8  UNL     1      24.087  -1.135  54.991  1.00  0.00     0.032 A 
HETATM   12  C9  UNL     1      22.835  -1.575  55.438  1.00  0.00     0.002 A 
HETATM   13  C10 UNL     1      21.751  -1.122  54.716  1.00  0.00     0.001 A 
HETATM   14  C11 UNL     1      21.930  -0.291  53.632  1.00  0.00     0.010 A 
HETATM   15  C12 UNL     1      23.161   0.144  53.190  1.00  0.00    -0.016 A 
HETATM   16  C13 UNL     1      23.217   1.037  52.011  1.00  0.00     0.096 A 
HETATM   17  C14 UNL     1      22.032   1.963  51.948  1.00  0.00    -0.002 A 
HETATM   18  C15 UNL     1      22.081   3.275  51.801  1.00  0.00    -0.031 A 
HETATM   19  C16 UNL     1      20.875   4.141  51.747  1.00  0.00     0.050 C 
HETATM   20  H6  UNL     1      26.343  -1.097  52.504  1.00  0.00     0.210 HD
ENDROOT
BRANCH   1  21
HETATM   21  O1  UNL     1      23.417   5.349  51.529  1.00  0.00    -0.355 OA
HETATM   22  C1  UNL     1      24.353   5.994  50.680  1.00  0.00     0.210 C 
ENDBRANCH   1  21
TORSDOF 1
ENDMDL
MODEL 2
REMARK VINA RESULT:      -7.7      2.780      4.405
REMARK  1 active torsions:
REMARK  status: ('A' for Active; 'I' for Inactive)
REMARK    1  A    between atoms: O1_2  and  C2_3 
ROOT
HETATM    1  C2  UNL     1      25.547   2.048  51.334  1.00  0.00     0.075 A 
HETATM    2  C3  UNL     1      24.448   2.814  51.344  1.00  0.00     0.065 A 
HETATM    3  C4  UNL     1      23.399   2.586  52.361  1.00  0.00     0.051 A 
HETATM    4  N1  UNL     1      22.420   3.418  52.257  1.00  0.00    -0.244 NA
HETATM    5  C5  UNL     1      22.373   4.434  51.268  1.00  0.00     0.256 C 
HETATM    6  N2  UNL     1      21.129   4.350  51.500  1.00  0.00    -0.152 NA
HETATM    7  N3  UNL     1      20.586   3.452  52.446  1.00  0.00    -0.216 N 
HETATM    8  N4  UNL     1      20.564   2.067  52.266  1.00  0.00    -0.280 N 
HETATM    9  C6  UNL     1      19.798   1.923  51.042  1.00  0.00     0.179 C 
HETATM   10  C7  UNL     1      21.057   0.916  52.940  1.00  0.00     0.059 A 
HETATM   11  C8  UNL     1      20.027   0.004  53.050  1.00  0.00     0.032 A 
HETATM   12  C9  UNL     1      20.174  -1.243  53.672  1.00  0.00     0.002 A 
HETATM   13  C10 UNL     1      21.427  -1.514  54.178  1.00  0.00     0.001 A 
HETATM   14  C11 UNL     1      22.445  -0.592  54.058  1.00  0.00     0.010 A 
HETATM   15  C12 UNL     1      22.304   0.635  53.446  1.00  0.00    -0.016 A 
HETATM   16  C13 UNL     1      23.477   1.536  53.383  1.00  0.00     0.096 A 
HETATM   17  C14 UNL     1      24.766   0.772  53.236  1.00  0.00    -0.002 A 
HETATM   18  C15 UNL     1      25.697   0.992  52.325  1.00  0.00    -0.031 A 
HETATM   19  C16 UNL     1      26.952   0.204  52.227  1.00  0.00     0.050 C 
HETATM   20  H6  UNL     1      20.117   3.345  53.370  1.00  0.00     0.210 HD
ENDROOT
BRANCH   1  21
HETATM   21  O1  UNL     1      26.516   2.285  50.370  1.00  0.00    -0.355 OA
HETATM   22  C1  UNL     1      26.590   3.490  49.625  1.00  0.00     0.210 C 
ENDBRANCH   1  21
TORSDOF 1
ENDMDL
MODEL 3
REMARK VINA RESULT:      -7.6      2.677      5.141
REMARK  1 active torsions:
REMARK  status: ('A' for Active; 'I' for Inactive)
REMARK    1  A    between atoms: O1_2  and  C2_3 
ROOT
HETATM    1  C2  UNL     1      26.359   0.773  54.104  1.00  0.00     0.075 A 
HETATM    2  C3  UNL     1      25.341  -0.007  54.491  1.00  0.00     0.065 A 
HETATM    3  C4  UNL     1      24.198  -0.234  53.578  1.00  0.00     0.051 A 
HETATM    4  N1  UNL     1      23.314  -1.025  54.082  1.00  0.00    -0.244 NA
HETATM    5  C5  UNL     1      23.441  -1.604  55.371  1.00  0.00     0.256 C 
HETATM    6  N2  UNL     1      22.180  -1.687  55.259  1.00  0.00    -0.152 NA
HETATM    7  N3  UNL     1      21.482  -1.237  54.116  1.00  0.00    -0.216 N 
HETATM    8  N4  UNL     1      21.343   0.112  53.783  1.00  0.00    -0.280 N 
HETATM    9  C6  UNL     1      20.664   0.652  54.946  1.00  0.00     0.179 C 
HETATM   10  C7  UNL     1      21.670   0.960  52.689  1.00  0.00     0.059 A 
HETATM   11  C8  UNL     1      20.553   1.703  52.367  1.00  0.00     0.032 A 
HETATM   12  C9  UNL     1      20.531   2.637  51.324  1.00  0.00     0.002 A 
HETATM   13  C10 UNL     1      21.711   2.777  50.622  1.00  0.00     0.001 A 
HETATM   14  C11 UNL     1      22.817   2.027  50.958  1.00  0.00     0.010 A 
HETATM   15  C12 UNL     1      22.842   1.107  51.985  1.00  0.00    -0.016 A 
HETATM   16  C13 UNL     1      24.097   0.366  52.244  1.00  0.00     0.096 A 
HETATM   17  C14 UNL     1      25.315   1.205  51.964  1.00  0.00    -0.002 A 
HETATM   18  C15 UNL     1      26.331   1.394  52.788  1.00  0.00    -0.031 A 
HETATM   19  C16 UNL     1      27.509   2.236  52.458  1.00  0.00     0.050 C 
HETATM   20  H6  UNL     1      20.935  -1.508  53.272  1.00  0.00     0.210 HD
ENDROOT
BRANCH   1  21
HETATM   21  O1  UNL     1      27.418   0.968  54.978  1.00  0.00    -0.355 OA
HETATM   22  C1  UNL     1      28.581   0.155  54.981  1.00  0.00     0.210 C 
ENDBRANCH   1  21
TORSDOF 1
ENDMDL
MODEL 4
REMARK VINA RESULT:      -7.6      2.608      6.276
REMARK  1 active torsions:
REMARK  status: ('A' for Active; 'I' for Inactive)
REMARK    1  A    between atoms: O1_2  and  C2_3 
ROOT
HETATM    1  C2  UNL     1      26.195   1.643  53.595  1.00  0.00     0.075 A 
HETATM    2  C3  UNL     1      24.994   1.447  53.033  1.00  0.00     0.065 A 
HETATM    3  C4  UNL     1      24.783   1.783  51.607  1.00  0.00     0.051 A 
HETATM    4  N1  UNL     1      23.588   1.515  51.208  1.00  0.00    -0.244 NA
HETATM    5  C5  UNL     1      22.597   0.957  52.057  1.00  0.00     0.256 C 
HETATM    6  N2  UNL     1      21.825   1.484  51.201  1.00  0.00    -0.152 NA
HETATM    7  N3  UNL     1      22.301   2.203  50.081  1.00  0.00    -0.216 N 
HETATM    8  N4  UNL     1      22.918   3.451  50.174  1.00  0.00    -0.280 N 
HETATM    9  C6  UNL     1      21.892   4.261  50.804  1.00  0.00     0.179 C 
HETATM   10  C7  UNL     1      24.169   4.030  49.823  1.00  0.00     0.059 A 
HETATM   11  C8  UNL     1      23.927   5.212  49.155  1.00  0.00     0.032 A 
HETATM   12  C9  UNL     1      24.949   6.035  48.662  1.00  0.00     0.002 A 
HETATM   13  C10 UNL     1      26.234   5.588  48.885  1.00  0.00     0.001 A 
HETATM   14  C11 UNL     1      26.458   4.405  49.555  1.00  0.00     0.010 A 
HETATM   15  C12 UNL     1      25.454   3.594  50.042  1.00  0.00    -0.016 A 
HETATM   16  C13 UNL     1      25.829   2.347  50.746  1.00  0.00     0.096 A 
HETATM   17  C14 UNL     1      27.108   2.501  51.524  1.00  0.00    -0.002 A 
HETATM   18  C15 UNL     1      27.282   2.190  52.797  1.00  0.00    -0.031 A 
HETATM   19  C16 UNL     1      28.570   2.366  53.515  1.00  0.00     0.050 C 
HETATM   20  H6  UNL     1      22.414   2.217  49.045  1.00  0.00     0.210 HD
ENDROOT
BRANCH   1  21
HETATM   21  O1  UNL     1      26.365   1.318  54.932  1.00  0.00    -0.355 OA
HETATM   22  C1  UNL     1      26.352  -0.017  55.413  1.00  0.00     0.210 C 
ENDBRANCH   1  21
TORSDOF 1
ENDMDL
MODEL 5
REMARK VINA RESULT:      -7.6      3.162      5.243
REMARK  1 active torsions:
REMARK  status: ('A' for Active; 'I' for Inactive)
REMARK    1  A    between atoms: O1_2  and  C2_3 
ROOT
HETATM    1  C2  UNL     1      24.006  -0.235  53.620  1.00  0.00     0.075 A 
HETATM    2  C3  UNL     1      23.952   0.702  52.665  1.00  0.00     0.065 A 
HETATM    3  C4  UNL     1      22.671   1.380  52.367  1.00  0.00     0.051 A 
HETATM    4  N1  UNL     1      22.786   2.271  51.444  1.00  0.00    -0.244 NA
HETATM    5  C5  UNL     1      24.016   2.558  50.796  1.00  0.00     0.256 C 
HETATM    6  N2  UNL     1      23.233   2.986  49.896  1.00  0.00    -0.152 NA
HETATM    7  N3  UNL     1      21.826   2.945  50.021  1.00  0.00    -0.216 N 
HETATM    8  N4  UNL     1      21.086   1.762  49.988  1.00  0.00    -0.280 N 
HETATM    9  C6  UNL     1      21.421   1.219  48.685  1.00  0.00     0.179 C 
HETATM   10  C7  UNL     1      20.184   1.067  50.841  1.00  0.00     0.059 A 
HETATM   11  C8  UNL     1      19.075   0.712  50.101  1.00  0.00     0.032 A 
HETATM   12  C9  UNL     1      17.986   0.017  50.643  1.00  0.00     0.002 A 
HETATM   13  C10 UNL     1      18.085  -0.299  51.982  1.00  0.00     0.001 A 
HETATM   14  C11 UNL     1      19.202   0.063  52.705  1.00  0.00     0.010 A 
HETATM   15  C12 UNL     1      20.275   0.746  52.175  1.00  0.00    -0.016 A 
HETATM   16  C13 UNL     1      21.415   1.074  53.060  1.00  0.00     0.096 A 
HETATM   17  C14 UNL     1      21.647   0.010  54.098  1.00  0.00    -0.002 A 
HETATM   18  C15 UNL     1      22.800  -0.582  54.357  1.00  0.00    -0.031 A 
HETATM   19  C16 UNL     1      22.970  -1.631  55.395  1.00  0.00     0.050 C 
HETATM   20  H6  UNL     1      20.951   3.496  50.147  1.00  0.00     0.210 HD
ENDROOT
BRANCH   1  21
HETATM   21  O1  UNL     1      25.220  -0.853  53.880  1.00  0.00    -0.355 OA
HETATM   22  C1  UNL     1      26.292  -0.878  52.950  1.00  0.00     0.210 C 
ENDBRANCH   1  21
TORSDOF 1
ENDMDL
MODEL 6
REMARK VINA RESULT:      -7.6      3.741      7.422
REMARK  1 active torsions:
REMARK  status: ('A' for Active; 'I' for Inactive)
REMARK    1  A    between atoms: O1_2  and  C2_3 
ROOT
HETATM    1  C2  UNL     1      24.882   2.809  51.885  1.00  0.00     0.075 A 
HETATM    2  C3  UNL     1      24.130   3.804  51.396  1.00  0.00     0.065 A 
HETATM    3  C4  UNL     1      24.495   4.442  50.112  1.00  0.00     0.051 A 
HETATM    4  N1  UNL     1      23.662   5.362  49.764  1.00  0.00    -0.244 NA
HETATM    5  C5  UNL     1      22.527   5.710  50.539  1.00  0.00     0.256 C 
HETATM    6  N2  UNL     1      22.647   6.797  49.898  1.00  0.00    -0.152 NA
HETATM    7  N3  UNL     1      23.664   7.013  48.941  1.00  0.00    -0.216 N 
HETATM    8  N4  UNL     1      25.014   7.151  49.271  1.00  0.00    -0.280 N 
HETATM    9  C6  UNL     1      25.002   8.300  50.157  1.00  0.00     0.179 C 
HETATM   10  C7  UNL     1      26.240   6.501  48.961  1.00  0.00     0.059 A 
HETATM   11  C8  UNL     1      27.164   7.463  48.610  1.00  0.00     0.032 A 
HETATM   12  C9  UNL     1      28.480   7.159  48.239  1.00  0.00     0.002 A 
HETATM   13  C10 UNL     1      28.807   5.820  48.242  1.00  0.00     0.001 A 
HETATM   14  C11 UNL     1      27.871   4.872  48.595  1.00  0.00     0.010 A 
HETATM   15  C12 UNL     1      26.576   5.168  48.962  1.00  0.00    -0.016 A 
HETATM   16  C13 UNL     1      25.668   4.055  49.321  1.00  0.00     0.096 A 
HETATM   17  C14 UNL     1      26.398   2.929  50.003  1.00  0.00    -0.002 A 
HETATM   18  C15 UNL     1      26.056   2.366  51.148  1.00  0.00    -0.031 A 
HETATM   19  C16 UNL     1      26.818   1.256  51.776  1.00  0.00     0.050 C 
HETATM   20  H6  UNL     1      23.892   7.135  47.932  1.00  0.00     0.210 HD
ENDROOT
BRANCH   1  21
HETATM   21  O1  UNL     1      24.516   2.228  53.090  1.00  0.00    -0.355 OA
HETATM   22  C1  UNL     1      23.435   1.318  53.215  1.00  0.00     0.210 C 
ENDBRANCH   1  21
TORSDOF 1
ENDMDL
MODEL 7
REMARK VINA RESULT:      -7.2      2.866      4.392
REMARK  1 active torsions:
REMARK  status: ('A' for Active; 'I' for Inactive)
REMARK    1  A    between atoms: O1_2  and  C2_3 
ROOT
HETATM    1  C2  UNL     1      23.976   4.407  49.651  1.00  0.00     0.075 A 
HETATM    2  C3  UNL     1      22.760   4.363  50.212  1.00  0.00     0.065 A 
HETATM    3  C4  UNL     1      22.576   3.701  51.522  1.00  0.00     0.051 A 
HETATM    4  N1  UNL     1      21.359   3.764  51.940  1.00  0.00    -0.244 NA
HETATM    5  C5  UNL     1      20.323   4.403  51.211  1.00  0.00     0.256 C 
HETATM    6  N2  UNL     1      19.601   3.630  51.910  1.00  0.00    -0.152 NA
HETATM    7  N3  UNL     1      20.138   2.727  52.855  1.00  0.00    -0.216 N 
HETATM    8  N4  UNL     1      20.871   1.592  52.504  1.00  0.00    -0.280 N 
HETATM    9  C6  UNL     1      19.929   0.853  51.685  1.00  0.00     0.179 C 
HETATM   10  C7  UNL     1      22.169   1.067  52.750  1.00  0.00     0.059 A 
HETATM   11  C8  UNL     1      22.038  -0.251  53.134  1.00  0.00     0.032 A 
HETATM   12  C9  UNL     1      23.130  -1.066  53.459  1.00  0.00     0.002 A 
HETATM   13  C10 UNL     1      24.369  -0.465  53.372  1.00  0.00     0.001 A 
HETATM   14  C11 UNL     1      24.482   0.853  52.986  1.00  0.00     0.010 A 
HETATM   15  C12 UNL     1      23.409   1.656  52.665  1.00  0.00    -0.016 A 
HETATM   16  C13 UNL     1      23.666   3.058  52.264  1.00  0.00     0.096 A 
HETATM   17  C14 UNL     1      24.957   3.198  51.503  1.00  0.00    -0.002 A 
HETATM   18  C15 UNL     1      25.107   3.798  50.336  1.00  0.00    -0.031 A 
HETATM   19  C16 UNL     1      26.409   3.906  49.629  1.00  0.00     0.050 C 
HETATM   20  H6  UNL     1      20.247   2.493  53.864  1.00  0.00     0.210 HD
ENDROOT
BRANCH   1  21
HETATM   21  O1  UNL     1      24.121   5.036  48.424  1.00  0.00    -0.355 OA
HETATM   22  C1  UNL     1      23.844   6.413  48.220  1.00  0.00     0.210 C 
ENDBRANCH   1  21
TORSDOF 1
ENDMDL
MODEL 8
REMARK VINA RESULT:      -7.1      1.588      1.889
REMARK  1 active torsions:
REMARK  status: ('A' for Active; 'I' for Inactive)
REMARK    1  A    between atoms: O1_2  and  C2_3 
ROOT
HETATM    1  C2  UNL     1      22.191   4.533  50.226  1.00  0.00     0.075 A 
HETATM    2  C3  UNL     1      23.488   4.206  50.294  1.00  0.00     0.065 A 
HETATM    3  C4  UNL     1      23.882   2.796  50.512  1.00  0.00     0.051 A 
HETATM    4  N1  UNL     1      25.161   2.638  50.528  1.00  0.00    -0.244 NA
HETATM    5  C5  UNL     1      26.074   3.710  50.354  1.00  0.00     0.256 C 
HETATM    6  N2  UNL     1      26.846   2.913  50.968  1.00  0.00    -0.152 NA
HETATM    7  N3  UNL     1      26.436   1.633  51.403  1.00  0.00    -0.216 N 
HETATM    8  N4  UNL     1      25.529   1.429  52.444  1.00  0.00    -0.280 N 
HETATM    9  C6  UNL     1      26.187   2.076  53.564  1.00  0.00     0.179 C 
HETATM   10  C7  UNL     1      24.267   0.798  52.626  1.00  0.00     0.059 A 
HETATM   11  C8  UNL     1      24.340  -0.002  53.747  1.00  0.00     0.032 A 
HETATM   12  C9  UNL     1      23.264  -0.774  54.206  1.00  0.00     0.002 A 
HETATM   13  C10 UNL     1      22.107  -0.688  53.461  1.00  0.00     0.001 A 
HETATM   14  C11 UNL     1      22.052   0.117  52.345  1.00  0.00     0.010 A 
HETATM   15  C12 UNL     1      23.108   0.878  51.891  1.00  0.00    -0.016 A 
HETATM   16  C13 UNL     1      22.918   1.703  50.676  1.00  0.00     0.096 A 
HETATM   17  C14 UNL     1      21.515   2.236  50.570  1.00  0.00    -0.002 A 
HETATM   18  C15 UNL     1      21.178   3.498  50.370  1.00  0.00    -0.031 A 
HETATM   19  C16 UNL     1      19.772   3.967  50.275  1.00  0.00     0.050 C 
HETATM   20  H6  UNL     1      26.524   0.603  51.270  1.00  0.00     0.210 HD
ENDROOT
BRANCH   1  21
HETATM   21  O1  UNL     1      21.849   5.861  50.019  1.00  0.00    -0.355 OA
HETATM   22  C1  UNL     1      22.042   6.873  50.995  1.00  0.00     0.210 C 
ENDBRANCH   1  21
TORSDOF 1
ENDMDL
MODEL 9
REMARK VINA RESULT:      -7.1      2.570      3.639
REMARK  1 active torsions:
REMARK  status: ('A' for Active; 'I' for Inactive)
REMARK    1  A    between atoms: O1_2  and  C2_3 
ROOT
HETATM    1  C2  UNL     1      23.465   3.611  50.481  1.00  0.00     0.075 A 
HETATM    2  C3  UNL     1      23.738   2.628  51.350  1.00  0.00     0.065 A 
HETATM    3  C4  UNL     1      22.984   1.357  51.285  1.00  0.00     0.051 A 
HETATM    4  N1  UNL     1      23.378   0.503  52.167  1.00  0.00    -0.244 NA
HETATM    5  C5  UNL     1      24.422   0.772  53.089  1.00  0.00     0.256 C 
HETATM    6  N2  UNL     1      23.832  -0.140  53.744  1.00  0.00    -0.152 NA
HETATM    7  N3  UNL     1      22.673  -0.795  53.271  1.00  0.00    -0.216 N 
HETATM    8  N4  UNL     1      21.427  -0.173  53.169  1.00  0.00    -0.280 N 
HETATM    9  C6  UNL     1      21.167   0.232  54.538  1.00  0.00     0.179 C 
HETATM   10  C7  UNL     1      20.475   0.104  52.149  1.00  0.00     0.059 A 
HETATM   11  C8  UNL     1      19.231  -0.283  52.601  1.00  0.00     0.032 A 
HETATM   12  C9  UNL     1      18.065  -0.153  51.835  1.00  0.00     0.002 A 
HETATM   13  C10 UNL     1      18.233   0.393  50.580  1.00  0.00     0.001 A 
HETATM   14  C11 UNL     1      19.484   0.775  50.145  1.00  0.00     0.010 A 
HETATM   15  C12 UNL     1      20.633   0.649  50.897  1.00  0.00    -0.016 A 
HETATM   16  C13 UNL     1      21.916   1.099  50.312  1.00  0.00     0.096 A 
HETATM   17  C14 UNL     1      21.739   2.293  49.415  1.00  0.00    -0.002 A 
HETATM   18  C15 UNL     1      22.425   3.421  49.481  1.00  0.00    -0.031 A 
HETATM   19  C16 UNL     1      22.205   4.571  48.567  1.00  0.00     0.050 C 
HETATM   20  H6  UNL     1      22.268  -1.681  52.904  1.00  0.00     0.210 HD
ENDROOT
BRANCH   1  21
HETATM   21  O1  UNL     1      24.189   4.792  50.564  1.00  0.00    -0.355 OA
HETATM   22  C1  UNL     1      23.913   5.806  51.517  1.00  0.00     0.210 C 
ENDBRANCH   1  21
TORSDOF 1
ENDMDL
