MODEL 1
REMARK VINA RESULT:      -8.1      0.000      0.000
REMARK  7 active torsions:
REMARK  status: ('A' for Active; 'I' for Inactive)
REMARK    1  A    between atoms: C5_7  and  C6_8 
REMARK    2  A    between atoms: C7_9  and  N2_10 
REMARK       I    between atoms: N2_10  and  C8_11 
REMARK    3  A    between atoms: C8_11  and  C9_13 
REMARK    4  A    between atoms: C9_13  and  C10_14 
REMARK    5  A    between atoms: C10_14  and  N3_15 
REMARK    6  A    between atoms: C13_18  and  C14_19 
REMARK    7  A    between atoms: C17_22  and  O2_23 
ROOT
HETATM    1  C1  UNL     1      22.144  -1.047  53.643  1.00  0.00     0.070 C 
HETATM    2  C2  UNL     1      22.751   0.084  52.885  1.00  0.00     0.023 C 
HETATM    3  C3  UNL     1      21.878   0.563  52.013  1.00  0.00     0.144 C 
HETATM    4  N1  UNL     1      22.145   1.642  51.137  1.00  0.00    -0.230 NA
HETATM    5  C4  UNL     1      23.280   2.207  50.828  1.00  0.00     0.222 C 
HETATM    6  F1  UNL     1      23.119   3.202  49.961  1.00  0.00    -0.183 F 
HETATM    7  C5  UNL     1      24.617   1.899  51.292  1.00  0.00     0.051 C 
HETATM    8  C13 UNL     1      25.015   1.158  52.304  1.00  0.00     0.057 C 
HETATM    9  N4  UNL     1      24.108   0.465  53.189  1.00  0.00    -0.357 N 
HETATM   10  H22 UNL     1      24.409   0.190  54.141  1.00  0.00     0.166 HD
ENDROOT
BRANCH   7  11
HETATM   11  C6  UNL     1      25.728   2.512  50.615  1.00  0.00     0.035 C 
HETATM   12  C7  UNL     1      26.163   3.716  50.321  1.00  0.00     0.092 C 
BRANCH  12  13
HETATM   13  N2  UNL     1      27.240   4.357  49.665  1.00  0.00    -0.337 N 
HETATM   14  C8  UNL     1      27.108   5.411  48.705  1.00  0.00     0.223 C 
HETATM   15  O1  UNL     1      25.855   5.509  48.696  1.00  0.00    -0.273 OA
HETATM   16  H7  UNL     1      28.040   3.809  50.118  1.00  0.00     0.168 HD
BRANCH  14  17
HETATM   17  C9  UNL     1      28.453   5.820  48.242  1.00  0.00     0.122 C 
BRANCH  17  18
HETATM   18  C10 UNL     1      28.539   7.240  47.850  1.00  0.00     0.125 C 
BRANCH  18  19
HETATM   19  N3  UNL     1      29.308   8.135  48.596  1.00  0.00    -0.420 N 
HETATM   20  C11 UNL     1      28.706   9.164  49.344  1.00  0.00     0.142 C 
HETATM   21  C12 UNL     1      30.662   7.814  48.871  1.00  0.00     0.142 C 
ENDBRANCH  18  19
ENDBRANCH  17  18
ENDBRANCH  14  17
ENDBRANCH  12  13
ENDBRANCH   7  11
BRANCH   8  22
HETATM   22  C14 UNL     1      26.382   0.881  52.718  1.00  0.00    -0.007 A 
HETATM   23  C15 UNL     1      27.384   1.708  53.193  1.00  0.00     0.016 A 
HETATM   24  C16 UNL     1      28.607   1.194  53.554  1.00  0.00     0.039 A 
HETATM   25  C17 UNL     1      28.916  -0.144  53.470  1.00  0.00     0.087 A 
HETATM   26  C18 UNL     1      27.941  -1.014  52.998  1.00  0.00     0.068 A 
HETATM   27 CL1  UNL     1      28.319  -2.702  52.887  1.00  0.00    -0.081 Cl
HETATM   28  C19 UNL     1      26.719  -0.475  52.641  1.00  0.00     0.040 A 
BRANCH  25  29
HETATM   29  O2  UNL     1      30.151  -0.658  53.836  1.00  0.00    -0.359 OA
HETATM   30  H20 UNL     1      30.377  -1.645  53.848  1.00  0.00     0.217 HD
ENDBRANCH  25  29
ENDBRANCH   8  22
TORSDOF 7
ENDMDL
MODEL 2
REMARK VINA RESULT:      -8.1      4.595      8.720
REMARK  7 active torsions:
REMARK  status: ('A' for Active; 'I' for Inactive)
REMARK    1  A    between atoms: C5_7  and  C6_8 
REMARK    2  A    between atoms: C7_9  and  N2_10 
REMARK       I    between atoms: N2_10  and  C8_11 
REMARK    3  A    between atoms: C8_11  and  C9_13 
REMARK    4  A    between atoms: C9_13  and  C10_14 
REMARK    5  A    between atoms: C10_14  and  N3_15 
REMARK    6  A    between atoms: C13_18  and  C14_19 
REMARK    7  A    between atoms: C17_22  and  O2_23 
ROOT
HETATM    1  C1  UNL     1      28.972   2.486  53.731  1.00  0.00     0.070 C 
HETATM    2  C2  UNL     1      27.674   1.783  53.940  1.00  0.00     0.023 C 
HETATM    3  C3  UNL     1      27.893   0.551  54.370  1.00  0.00     0.144 C 
HETATM    4  N1  UNL     1      26.867  -0.379  54.664  1.00  0.00    -0.230 NA
HETATM    5  C4  UNL     1      25.595  -0.341  54.373  1.00  0.00     0.222 C 
HETATM    6  F1  UNL     1      24.950  -1.411  54.826  1.00  0.00    -0.183 F 
HETATM    7  C5  UNL     1      24.846   0.672  53.659  1.00  0.00     0.051 C 
HETATM    8  C13 UNL     1      25.177   1.904  53.335  1.00  0.00     0.057 C 
HETATM    9  N4  UNL     1      26.453   2.497  53.660  1.00  0.00    -0.357 N 
HETATM   10  H22 UNL     1      26.559   3.526  53.709  1.00  0.00     0.166 HD
ENDROOT
BRANCH   7  11
HETATM   11  C6  UNL     1      23.499   0.364  53.258  1.00  0.00     0.035 C 
HETATM   12  C7  UNL     1      22.343   0.083  53.815  1.00  0.00     0.092 C 
BRANCH  12  13
HETATM   13  N2  UNL     1      21.008  -0.224  53.462  1.00  0.00    -0.337 N 
HETATM   14  C8  UNL     1      20.238  -1.298  54.011  1.00  0.00     0.223 C 
HETATM   15  O1  UNL     1      21.097  -1.768  54.800  1.00  0.00    -0.273 OA
HETATM   16  H7  UNL     1      20.860   0.555  52.742  1.00  0.00     0.168 HD
BRANCH  14  17
HETATM   17  C9  UNL     1      18.893  -1.298  53.395  1.00  0.00     0.122 C 
BRANCH  17  18
HETATM   18  C10 UNL     1      18.775  -0.405  52.226  1.00  0.00     0.125 C 
BRANCH  18  19
HETATM   19  N3  UNL     1      17.565  -0.296  51.538  1.00  0.00    -0.420 N 
HETATM   20  C11 UNL     1      16.333  -0.428  52.205  1.00  0.00     0.142 C 
HETATM   21  C12 UNL     1      17.563   0.272  50.237  1.00  0.00     0.142 C 
ENDBRANCH  18  19
ENDBRANCH  17  18
ENDBRANCH  14  17
ENDBRANCH  12  13
ENDBRANCH   7  11
BRANCH   8  22
HETATM   22  C14 UNL     1      24.376   2.876  52.606  1.00  0.00    -0.007 A 
HETATM   23  C15 UNL     1      23.740   4.034  53.016  1.00  0.00     0.016 A 
HETATM   24  C16 UNL     1      23.058   4.817  52.115  1.00  0.00     0.039 A 
HETATM   25  C17 UNL     1      22.960   4.515  50.777  1.00  0.00     0.087 A 
HETATM   26  C18 UNL     1      23.584   3.360  50.318  1.00  0.00     0.068 A 
HETATM   27 CL1  UNL     1      23.468   2.968  48.634  1.00  0.00    -0.081 Cl
HETATM   28  C19 UNL     1      24.265   2.589  51.242  1.00  0.00     0.040 A 
BRANCH  25  29
HETATM   29  O2  UNL     1      22.271   5.307  49.871  1.00  0.00    -0.359 OA
HETATM   30  H20 UNL     1      21.556   5.976  50.126  1.00  0.00     0.217 HD
ENDBRANCH  25  29
ENDBRANCH   8  22
TORSDOF 7
ENDMDL
MODEL 3
REMARK VINA RESULT:      -7.7      3.087      4.801
REMARK  7 active torsions:
REMARK  status: ('A' for Active; 'I' for Inactive)
REMARK    1  A    between atoms: C5_7  and  C6_8 
REMARK    2  A    between atoms: C7_9  and  N2_10 
REMARK       I    between atoms: N2_10  and  C8_11 
REMARK    3  A    between atoms: C8_11  and  C9_13 
REMARK    4  A    between atoms: C9_13  and  C10_14 
REMARK    5  A    between atoms: C10_14  and  N3_15 
REMARK    6  A    between atoms: C13_18  and  C14_19 
REMARK    7  A    between atoms: C17_22  and  O2_23 
ROOT
HETATM    1  C1  UNL     1      22.373  -1.524  55.248  1.00  0.00     0.070 C 
HETATM    2  C2  UNL     1      23.493  -0.853  54.528  1.00  0.00     0.023 C 
HETATM    3  C3  UNL     1      24.640  -1.116  55.132  1.00  0.00     0.144 C 
HETATM    4  N1  UNL     1      25.895  -0.627  54.697  1.00  0.00    -0.230 NA
HETATM    5  C4  UNL     1      26.173   0.310  53.833  1.00  0.00     0.222 C 
HETATM    6  F1  UNL     1      27.483   0.481  53.691  1.00  0.00    -0.183 F 
HETATM    7  C5  UNL     1      25.275   1.137  53.053  1.00  0.00     0.051 C 
HETATM    8  C13 UNL     1      23.986   1.008  52.822  1.00  0.00     0.057 C 
HETATM    9  N4  UNL     1      23.185  -0.067  53.359  1.00  0.00    -0.357 N 
HETATM   10  H22 UNL     1      22.295  -0.339  52.903  1.00  0.00     0.166 HD
ENDROOT
BRANCH   7  11
HETATM   11  C6  UNL     1      25.829   2.264  52.351  1.00  0.00     0.035 C 
HETATM   12  C7  UNL     1      26.385   2.529  51.191  1.00  0.00     0.092 C 
BRANCH  12  13
HETATM   13  N2  UNL     1      26.937   3.612  50.468  1.00  0.00    -0.337 N 
HETATM   14  C8  UNL     1      26.287   4.301  49.395  1.00  0.00     0.223 C 
HETATM   15  O1  UNL     1      25.210   3.654  49.374  1.00  0.00    -0.273 OA
HETATM   16  H7  UNL     1      27.875   3.673  50.981  1.00  0.00     0.168 HD
BRANCH  14  17
HETATM   17  C9  UNL     1      27.179   5.369  48.890  1.00  0.00     0.122 C 
BRANCH  17  18
HETATM   18  C10 UNL     1      26.507   6.673  48.722  1.00  0.00     0.125 C 
BRANCH  18  19
HETATM   19  N3  UNL     1      27.174   7.858  49.036  1.00  0.00    -0.420 N 
HETATM   20  C11 UNL     1      26.705   8.708  50.056  1.00  0.00     0.142 C 
HETATM   21  C12 UNL     1      28.499   8.048  48.565  1.00  0.00     0.142 C 
ENDBRANCH  18  19
ENDBRANCH  17  18
ENDBRANCH  14  17
ENDBRANCH  12  13
ENDBRANCH   7  11
BRANCH   8  22
HETATM   22  C14 UNL     1      23.134   1.882  52.029  1.00  0.00    -0.007 A 
HETATM   23  C15 UNL     1      22.627   3.144  52.279  1.00  0.00     0.016 A 
HETATM   24  C16 UNL     1      21.857   3.790  51.342  1.00  0.00     0.039 A 
HETATM   25  C17 UNL     1      21.540   3.242  50.120  1.00  0.00     0.087 A 
HETATM   26  C18 UNL     1      22.027   1.974  49.824  1.00  0.00     0.068 A 
HETATM   27 CL1  UNL     1      21.635   1.273  48.288  1.00  0.00    -0.081 Cl
HETATM   28  C19 UNL     1      22.801   1.345  50.782  1.00  0.00     0.040 A 
BRANCH  25  29
HETATM   29  O2  UNL     1      20.763   3.896  49.177  1.00  0.00    -0.359 OA
HETATM   30  H20 UNL     1      20.031   3.454  48.634  1.00  0.00     0.217 HD
ENDBRANCH  25  29
ENDBRANCH   8  22
TORSDOF 7
ENDMDL
MODEL 4
REMARK VINA RESULT:      -7.6      4.361      6.988
REMARK  7 active torsions:
REMARK  status: ('A' for Active; 'I' for Inactive)
REMARK    1  A    between atoms: C5_7  and  C6_8 
REMARK    2  A    between atoms: C7_9  and  N2_10 
REMARK       I    between atoms: N2_10  and  C8_11 
REMARK    3  A    between atoms: C8_11  and  C9_13 
REMARK    4  A    between atoms: C9_13  and  C10_14 
REMARK    5  A    between atoms: C10_14  and  N3_15 
REMARK    6  A    between atoms: C13_18  and  C14_19 
REMARK    7  A    between atoms: C17_22  and  O2_23 
ROOT
HETATM    1  C1  UNL     1      16.817  -0.145  51.885  1.00  0.00     0.070 C 
HETATM    2  C2  UNL     1      18.221  -0.429  52.298  1.00  0.00     0.023 C 
HETATM    3  C3  UNL     1      18.230  -1.291  53.301  1.00  0.00     0.144 C 
HETATM    4  N1  UNL     1      19.408  -1.768  53.924  1.00  0.00    -0.230 NA
HETATM    5  C4  UNL     1      20.634  -1.330  53.841  1.00  0.00     0.222 C 
HETATM    6  F1  UNL     1      21.470  -2.051  54.581  1.00  0.00    -0.183 F 
HETATM    7  C5  UNL     1      21.163  -0.218  53.078  1.00  0.00     0.051 C 
HETATM    8  C13 UNL     1      20.619   0.478  52.103  1.00  0.00     0.057 C 
HETATM    9  N4  UNL     1      19.291   0.231  51.593  1.00  0.00    -0.357 N 
HETATM   10  H22 UNL     1      19.027   0.538  50.639  1.00  0.00     0.166 HD
ENDROOT
BRANCH   7  11
HETATM   11  C6  UNL     1      22.511   0.208  53.345  1.00  0.00     0.035 C 
HETATM   12  C7  UNL     1      23.678  -0.326  53.624  1.00  0.00     0.092 C 
BRANCH  12  13
HETATM   13  N2  UNL     1      25.015   0.052  53.891  1.00  0.00    -0.337 N 
HETATM   14  C8  UNL     1      25.826  -0.481  54.942  1.00  0.00     0.223 C 
HETATM   15  O1  UNL     1      24.997  -1.285  55.438  1.00  0.00    -0.273 OA
HETATM   16  H7  UNL     1      25.127   0.774  53.107  1.00  0.00     0.168 HD
BRANCH  14  17
HETATM   17  C9  UNL     1      27.160   0.160  54.903  1.00  0.00     0.122 C 
BRANCH  17  18
HETATM   18  C10 UNL     1      27.637   0.453  53.537  1.00  0.00     0.125 C 
BRANCH  18  19
HETATM   19  N3  UNL     1      27.780   1.773  53.106  1.00  0.00    -0.420 N 
HETATM   20  C11 UNL     1      28.836   2.579  53.568  1.00  0.00     0.142 C 
HETATM   21  C12 UNL     1      27.065   2.202  51.958  1.00  0.00     0.142 C 
ENDBRANCH  18  19
ENDBRANCH  17  18
ENDBRANCH  14  17
ENDBRANCH  12  13
ENDBRANCH   7  11
BRANCH   8  22
HETATM   22  C14 UNL     1      21.204   1.596  51.377  1.00  0.00    -0.007 A 
HETATM   23  C15 UNL     1      21.517   2.884  51.771  1.00  0.00     0.016 A 
HETATM   24  C16 UNL     1      22.104   3.764  50.892  1.00  0.00     0.039 A 
HETATM   25  C17 UNL     1      22.412   3.437  49.592  1.00  0.00     0.087 A 
HETATM   26  C18 UNL     1      22.115   2.153  49.150  1.00  0.00     0.068 A 
HETATM   27 CL1  UNL     1      22.499   1.729  47.514  1.00  0.00    -0.081 Cl
HETATM   28  C19 UNL     1      21.527   1.285  50.052  1.00  0.00     0.040 A 
BRANCH  25  29
HETATM   29  O2  UNL     1      23.004   4.327  48.709  1.00  0.00    -0.359 OA
HETATM   30  H20 UNL     1      22.493   4.915  48.063  1.00  0.00     0.217 HD
ENDBRANCH  25  29
ENDBRANCH   8  22
TORSDOF 7
ENDMDL
MODEL 5
REMARK VINA RESULT:      -7.4      4.188      7.931
REMARK  7 active torsions:
REMARK  status: ('A' for Active; 'I' for Inactive)
REMARK    1  A    between atoms: C5_7  and  C6_8 
REMARK    2  A    between atoms: C7_9  and  N2_10 
REMARK       I    between atoms: N2_10  and  C8_11 
REMARK    3  A    between atoms: C8_11  and  C9_13 
REMARK    4  A    between atoms: C9_13  and  C10_14 
REMARK    5  A    between atoms: C10_14  and  N3_15 
REMARK    6  A    between atoms: C13_18  and  C14_19 
REMARK    7  A    between atoms: C17_22  and  O2_23 
ROOT
HETATM    1  C1  UNL     1      28.913   1.240  53.695  1.00  0.00     0.070 C 
HETATM    2  C2  UNL     1      27.455   0.966  53.837  1.00  0.00     0.023 C 
HETATM    3  C3  UNL     1      27.267  -0.279  54.243  1.00  0.00     0.144 C 
HETATM    4  N1  UNL     1      25.994  -0.852  54.475  1.00  0.00    -0.230 NA
HETATM    5  C4  UNL     1      24.809  -0.422  54.138  1.00  0.00     0.222 C 
HETATM    6  F1  UNL     1      23.848  -1.248  54.539  1.00  0.00    -0.183 F 
HETATM    7  C5  UNL     1      24.437   0.782  53.423  1.00  0.00     0.051 C 
HETATM    8  C13 UNL     1      25.143   1.856  53.144  1.00  0.00     0.057 C 
HETATM    9  N4  UNL     1      26.525   2.024  53.531  1.00  0.00    -0.357 N 
HETATM   10  H22 UNL     1      26.938   2.971  53.611  1.00  0.00     0.166 HD
ENDROOT
BRANCH   7  11
HETATM   11  C6  UNL     1      23.079   0.907  52.965  1.00  0.00     0.035 C 
HETATM   12  C7  UNL     1      22.174   0.180  52.351  1.00  0.00     0.092 C 
BRANCH  12  13
HETATM   13  N2  UNL     1      20.840   0.262  51.887  1.00  0.00    -0.337 N 
HETATM   14  C8  UNL     1      19.687  -0.173  52.614  1.00  0.00     0.223 C 
HETATM   15  O1  UNL     1      20.259  -0.584  53.655  1.00  0.00    -0.273 OA
HETATM   16  H7  UNL     1      21.040   0.709  50.934  1.00  0.00     0.168 HD
BRANCH  14  17
HETATM   17  C9  UNL     1      18.475   0.074  51.801  1.00  0.00     0.122 C 
BRANCH  17  18
HETATM   18  C10 UNL     1      18.573   1.267  50.938  1.00  0.00     0.125 C 
BRANCH  18  19
HETATM   19  N3  UNL     1      18.119   2.507  51.390  1.00  0.00    -0.420 N 
HETATM   20  C11 UNL     1      18.974   3.625  51.430  1.00  0.00     0.142 C 
HETATM   21  C12 UNL     1      16.722   2.731  51.498  1.00  0.00     0.142 C 
ENDBRANCH  18  19
ENDBRANCH  17  18
ENDBRANCH  14  17
ENDBRANCH  12  13
ENDBRANCH   7  11
BRANCH   8  22
HETATM   22  C14 UNL     1      24.711   3.037  52.411  1.00  0.00    -0.007 A 
HETATM   23  C15 UNL     1      23.705   3.954  52.658  1.00  0.00     0.016 A 
HETATM   24  C16 UNL     1      23.509   5.025  51.818  1.00  0.00     0.039 A 
HETATM   25  C17 UNL     1      24.279   5.257  50.701  1.00  0.00     0.087 A 
HETATM   26  C18 UNL     1      25.303   4.362  50.413  1.00  0.00     0.068 A 
HETATM   27 CL1  UNL     1      26.278   4.643  49.009  1.00  0.00    -0.081 Cl
HETATM   28  C19 UNL     1      25.481   3.293  51.272  1.00  0.00     0.040 A 
BRANCH  25  29
HETATM   29  O2  UNL     1      24.079   6.338  49.857  1.00  0.00    -0.359 OA
HETATM   30  H20 UNL     1      23.839   6.261  48.877  1.00  0.00     0.217 HD
ENDBRANCH  25  29
ENDBRANCH   8  22
TORSDOF 7
ENDMDL
MODEL 6
REMARK VINA RESULT:      -7.2      3.785      8.007
REMARK  7 active torsions:
REMARK  status: ('A' for Active; 'I' for Inactive)
REMARK    1  A    between atoms: C5_7  and  C6_8 
REMARK    2  A    between atoms: C7_9  and  N2_10 
REMARK       I    between atoms: N2_10  and  C8_11 
REMARK    3  A    between atoms: C8_11  and  C9_13 
REMARK    4  A    between atoms: C9_13  and  C10_14 
REMARK    5  A    between atoms: C10_14  and  N3_15 
REMARK    6  A    between atoms: C13_18  and  C14_19 
REMARK    7  A    between atoms: C17_22  and  O2_23 
ROOT
HETATM    1  C1  UNL     1      24.697   9.676  48.134  1.00  0.00     0.070 C 
HETATM    2  C2  UNL     1      25.357   8.390  48.498  1.00  0.00     0.023 C 
HETATM    3  C3  UNL     1      26.453   8.225  47.777  1.00  0.00     0.144 C 
HETATM    4  N1  UNL     1      27.309   7.103  47.883  1.00  0.00    -0.230 NA
HETATM    5  C4  UNL     1      27.115   5.956  48.473  1.00  0.00     0.222 C 
HETATM    6  F1  UNL     1      28.166   5.151  48.353  1.00  0.00    -0.183 F 
HETATM    7  C5  UNL     1      25.957   5.483  49.205  1.00  0.00     0.051 C 
HETATM    8  C13 UNL     1      24.919   6.143  49.671  1.00  0.00     0.057 C 
HETATM    9  N4  UNL     1      24.745   7.568  49.513  1.00  0.00    -0.357 N 
HETATM   10  H22 UNL     1      24.134   8.099  50.159  1.00  0.00     0.166 HD
ENDROOT
BRANCH   7  11
HETATM   11  C6  UNL     1      25.898   4.088  49.553  1.00  0.00     0.035 C 
HETATM   12  C7  UNL     1      26.350   3.284  50.487  1.00  0.00     0.092 C 
BRANCH  12  13
HETATM   13  N2  UNL     1      26.316   1.921  50.864  1.00  0.00    -0.337 N 
HETATM   14  C8  UNL     1      27.083   1.340  51.924  1.00  0.00     0.223 C 
HETATM   15  O1  UNL     1      27.690   2.371  52.310  1.00  0.00    -0.273 OA
HETATM   16  H7  UNL     1      25.599   1.583  50.143  1.00  0.00     0.168 HD
BRANCH  14  17
HETATM   17  C9  UNL     1      26.779  -0.105  52.012  1.00  0.00     0.122 C 
BRANCH  17  18
HETATM   18  C10 UNL     1      27.124  -0.706  53.315  1.00  0.00     0.125 C 
BRANCH  18  19
HETATM   19  N3  UNL     1      28.409  -0.566  53.841  1.00  0.00    -0.420 N 
HETATM   20  C11 UNL     1      28.645   0.215  54.987  1.00  0.00     0.142 C 
HETATM   21  C12 UNL     1      29.423  -1.467  53.427  1.00  0.00     0.142 C 
ENDBRANCH  18  19
ENDBRANCH  17  18
ENDBRANCH  14  17
ENDBRANCH  12  13
ENDBRANCH   7  11
BRANCH   8  22
HETATM   22  C14 UNL     1      23.778   5.606  50.397  1.00  0.00    -0.007 A 
HETATM   23  C15 UNL     1      23.549   5.433  51.750  1.00  0.00     0.016 A 
HETATM   24  C16 UNL     1      22.354   4.923  52.201  1.00  0.00     0.039 A 
HETATM   25  C17 UNL     1      21.327   4.556  51.362  1.00  0.00     0.087 A 
HETATM   26  C18 UNL     1      21.512   4.712  49.993  1.00  0.00     0.068 A 
HETATM   27 CL1  UNL     1      20.226   4.253  48.925  1.00  0.00    -0.081 Cl
HETATM   28  C19 UNL     1      22.722   5.227  49.563  1.00  0.00     0.040 A 
BRANCH  25  29
HETATM   29  O2  UNL     1      20.124   4.043  51.819  1.00  0.00    -0.359 OA
HETATM   30  H20 UNL     1      19.332   4.608  52.100  1.00  0.00     0.217 HD
ENDBRANCH  25  29
ENDBRANCH   8  22
TORSDOF 7
ENDMDL
MODEL 7
REMARK VINA RESULT:      -7.1      4.947      7.177
REMARK  7 active torsions:
REMARK  status: ('A' for Active; 'I' for Inactive)
REMARK    1  A    between atoms: C5_7  and  C6_8 
REMARK    2  A    between atoms: C7_9  and  N2_10 
REMARK       I    between atoms: N2_10  and  C8_11 
REMARK    3  A    between atoms: C8_11  and  C9_13 
REMARK    4  A    between atoms: C9_13  and  C10_14 
REMARK    5  A    between atoms: C10_14  and  N3_15 
REMARK    6  A    between atoms: C13_18  and  C14_19 
REMARK    7  A    between atoms: C17_22  and  O2_23 
ROOT
HETATM    1  C1  UNL     1      16.566   0.113  50.769  1.00  0.00     0.070 C 
HETATM    2  C2  UNL     1      17.847  -0.191  51.468  1.00  0.00     0.023 C 
HETATM    3  C3  UNL     1      17.606  -0.872  52.577  1.00  0.00     0.144 C 
HETATM    4  N1  UNL     1      18.612  -1.315  53.468  1.00  0.00    -0.230 NA
HETATM    5  C4  UNL     1      19.870  -0.980  53.543  1.00  0.00     0.222 C 
HETATM    6  F1  UNL     1      20.498  -1.621  54.524  1.00  0.00    -0.183 F 
HETATM    7  C5  UNL     1      20.623  -0.049  52.728  1.00  0.00     0.051 C 
HETATM    8  C13 UNL     1      20.320   0.509  51.576  1.00  0.00     0.057 C 
HETATM    9  N4  UNL     1      19.079   0.270  50.877  1.00  0.00    -0.357 N 
HETATM   10  H22 UNL     1      19.010   0.430  49.855  1.00  0.00     0.166 HD
ENDROOT
BRANCH   7  11
HETATM   11  C6  UNL     1      21.941   0.325  53.167  1.00  0.00     0.035 C 
HETATM   12  C7  UNL     1      23.164  -0.153  53.139  1.00  0.00     0.092 C 
BRANCH  12  13
HETATM   13  N2  UNL     1      24.475   0.178  53.553  1.00  0.00    -0.337 N 
HETATM   14  C8  UNL     1      25.388   0.999  52.818  1.00  0.00     0.223 C 
HETATM   15  O1  UNL     1      24.660   1.257  51.826  1.00  0.00    -0.273 OA
HETATM   16  H7  UNL     1      24.479  -0.356  54.482  1.00  0.00     0.168 HD
BRANCH  14  17
HETATM   17  C9  UNL     1      26.657   1.114  53.571  1.00  0.00     0.122 C 
BRANCH  17  18
HETATM   18  C10 UNL     1      27.691   0.152  53.142  1.00  0.00     0.125 C 
BRANCH  18  19
HETATM   19  N3  UNL     1      28.910   0.075  53.818  1.00  0.00    -0.420 N 
HETATM   20  C11 UNL     1      29.782  -1.013  53.623  1.00  0.00     0.142 C 
HETATM   21  C12 UNL     1      29.424   1.239  54.444  1.00  0.00     0.142 C 
ENDBRANCH  18  19
ENDBRANCH  17  18
ENDBRANCH  14  17
ENDBRANCH  12  13
ENDBRANCH   7  11
BRANCH   8  22
HETATM   22  C14 UNL     1      21.122   1.448  50.805  1.00  0.00    -0.007 A 
HETATM   23  C15 UNL     1      21.909   1.277  49.681  1.00  0.00     0.016 A 
HETATM   24  C16 UNL     1      22.556   2.346  49.107  1.00  0.00     0.039 A 
HETATM   25  C17 UNL     1      22.471   3.629  49.597  1.00  0.00     0.087 A 
HETATM   26  C18 UNL     1      21.692   3.850  50.726  1.00  0.00     0.068 A 
HETATM   27 CL1  UNL     1      21.577   5.461  51.353  1.00  0.00    -0.081 Cl
HETATM   28  C19 UNL     1      21.050   2.760  51.285  1.00  0.00     0.040 A 
BRANCH  25  29
HETATM   29  O2  UNL     1      23.125   4.705  49.016  1.00  0.00    -0.359 OA
HETATM   30  H20 UNL     1      23.597   4.670  48.121  1.00  0.00     0.217 HD
ENDBRANCH  25  29
ENDBRANCH   8  22
TORSDOF 7
ENDMDL
MODEL 8
REMARK VINA RESULT:      -6.8      5.329      9.260
REMARK  7 active torsions:
REMARK  status: ('A' for Active; 'I' for Inactive)
REMARK    1  A    between atoms: C5_7  and  C6_8 
REMARK    2  A    between atoms: C7_9  and  N2_10 
REMARK       I    between atoms: N2_10  and  C8_11 
REMARK    3  A    between atoms: C8_11  and  C9_13 
REMARK    4  A    between atoms: C9_13  and  C10_14 
REMARK    5  A    between atoms: C10_14  and  N3_15 
REMARK    6  A    between atoms: C13_18  and  C14_19 
REMARK    7  A    between atoms: C17_22  and  O2_23 
ROOT
HETATM    1  C1  UNL     1      26.790   0.584  52.906  1.00  0.00     0.070 C 
HETATM    2  C2  UNL     1      25.365   0.466  53.326  1.00  0.00     0.023 C 
HETATM    3  C3  UNL     1      25.208  -0.596  54.099  1.00  0.00     0.144 C 
HETATM    4  N1  UNL     1      23.971  -0.987  54.665  1.00  0.00    -0.230 NA
HETATM    5  C4  UNL     1      22.761  -0.587  54.389  1.00  0.00     0.222 C 
HETATM    6  F1  UNL     1      21.852  -1.195  55.144  1.00  0.00    -0.183 F 
HETATM    7  C5  UNL     1      22.315   0.388  53.414  1.00  0.00     0.051 C 
HETATM    8  C13 UNL     1      22.999   1.286  52.737  1.00  0.00     0.057 C 
HETATM    9  N4  UNL     1      24.428   1.458  52.860  1.00  0.00    -0.357 N 
HETATM   10  H22 UNL     1      24.874   2.356  52.600  1.00  0.00     0.166 HD
ENDROOT
BRANCH   7  11
HETATM   11  C6  UNL     1      20.907   0.474  53.136  1.00  0.00     0.035 C 
HETATM   12  C7  UNL     1      20.010  -0.123  52.385  1.00  0.00     0.092 C 
BRANCH  12  13
HETATM   13  N2  UNL     1      18.629  -0.071  52.084  1.00  0.00    -0.337 N 
HETATM   14  C8  UNL     1      18.072   0.394  50.850  1.00  0.00     0.223 C 
HETATM   15  O1  UNL     1      19.140   0.682  50.253  1.00  0.00    -0.273 OA
HETATM   16  H7  UNL     1      18.258  -0.459  53.011  1.00  0.00     0.168 HD
BRANCH  14  17
HETATM   17  C9  UNL     1      16.597   0.298  50.914  1.00  0.00     0.122 C 
BRANCH  17  18
HETATM   18  C10 UNL     1      16.065   0.240  52.289  1.00  0.00     0.125 C 
BRANCH  18  19
HETATM   19  N3  UNL     1      14.920   0.960  52.636  1.00  0.00    -0.420 N 
HETATM   20  C11 UNL     1      13.862   0.351  53.336  1.00  0.00     0.142 C 
HETATM   21  C12 UNL     1      14.956   2.377  52.580  1.00  0.00     0.142 C 
ENDBRANCH  18  19
ENDBRANCH  17  18
ENDBRANCH  14  17
ENDBRANCH  12  13
ENDBRANCH   7  11
BRANCH   8  22
HETATM   22  C14 UNL     1      22.490   2.238  51.761  1.00  0.00    -0.007 A 
HETATM   23  C15 UNL     1      21.905   3.482  51.911  1.00  0.00     0.016 A 
HETATM   24  C16 UNL     1      21.530   4.219  50.812  1.00  0.00     0.039 A 
HETATM   25  C17 UNL     1      21.704   3.783  49.518  1.00  0.00     0.087 A 
HETATM   26  C18 UNL     1      22.288   2.538  49.318  1.00  0.00     0.068 A 
HETATM   27 CL1  UNL     1      22.512   1.978  47.694  1.00  0.00    -0.081 Cl
HETATM   28  C19 UNL     1      22.658   1.816  50.438  1.00  0.00     0.040 A 
BRANCH  25  29
HETATM   29  O2  UNL     1      21.324   4.529  48.412  1.00  0.00    -0.359 OA
HETATM   30  H20 UNL     1      21.911   4.688  47.603  1.00  0.00     0.217 HD
ENDBRANCH  25  29
ENDBRANCH   8  22
TORSDOF 7
ENDMDL
MODEL 9
REMARK VINA RESULT:      -6.7      3.800      7.272
REMARK  7 active torsions:
REMARK  status: ('A' for Active; 'I' for Inactive)
REMARK    1  A    between atoms: C5_7  and  C6_8 
REMARK    2  A    between atoms: C7_9  and  N2_10 
REMARK       I    between atoms: N2_10  and  C8_11 
REMARK    3  A    between atoms: C8_11  and  C9_13 
REMARK    4  A    between atoms: C9_13  and  C10_14 
REMARK    5  A    between atoms: C10_14  and  N3_15 
REMARK    6  A    between atoms: C13_18  and  C14_19 
REMARK    7  A    between atoms: C17_22  and  O2_23 
ROOT
HETATM    1  C1  UNL     1      20.397   5.728  46.306  1.00  0.00     0.070 C 
HETATM    2  C2  UNL     1      21.249   4.793  47.095  1.00  0.00     0.023 C 
HETATM    3  C3  UNL     1      20.664   3.608  47.173  1.00  0.00     0.144 C 
HETATM    4  N1  UNL     1      21.216   2.497  47.855  1.00  0.00    -0.230 NA
HETATM    5  C4  UNL     1      22.209   2.443  48.699  1.00  0.00     0.222 C 
HETATM    6  F1  UNL     1      22.430   1.204  49.127  1.00  0.00    -0.183 F 
HETATM    7  C5  UNL     1      23.055   3.510  49.194  1.00  0.00     0.051 C 
HETATM    8  C13 UNL     1      23.210   4.742  48.758  1.00  0.00     0.057 C 
HETATM    9  N4  UNL     1      22.498   5.281  47.623  1.00  0.00    -0.357 N 
HETATM   10  H22 UNL     1      22.875   6.095  47.103  1.00  0.00     0.166 HD
ENDROOT
BRANCH   7  11
HETATM   11  C6  UNL     1      23.925   3.227  50.304  1.00  0.00     0.035 C 
HETATM   12  C7  UNL     1      23.834   2.886  51.568  1.00  0.00     0.092 C 
BRANCH  12  13
HETATM   13  N2  UNL     1      24.655   2.600  52.684  1.00  0.00    -0.337 N 
HETATM   14  C8  UNL     1      25.262   1.332  52.956  1.00  0.00     0.223 C 
HETATM   15  O1  UNL     1      24.833   0.696  51.960  1.00  0.00    -0.273 OA
HETATM   16  H7  UNL     1      24.627   3.567  53.143  1.00  0.00     0.168 HD
BRANCH  14  17
HETATM   17  C9  UNL     1      26.042   1.424  54.209  1.00  0.00     0.122 C 
BRANCH  17  18
HETATM   18  C10 UNL     1      26.858   0.226  54.490  1.00  0.00     0.125 C 
BRANCH  18  19
HETATM   19  N3  UNL     1      28.201   0.181  54.112  1.00  0.00    -0.420 N 
HETATM   20  C11 UNL     1      28.712  -0.902  53.372  1.00  0.00     0.142 C 
HETATM   21  C12 UNL     1      28.976   1.367  54.182  1.00  0.00     0.142 C 
ENDBRANCH  18  19
ENDBRANCH  17  18
ENDBRANCH  14  17
ENDBRANCH  12  13
ENDBRANCH   7  11
BRANCH   8  22
HETATM   22  C14 UNL     1      24.076   5.775  49.307  1.00  0.00    -0.007 A 
HETATM   23  C15 UNL     1      23.859   6.735  50.279  1.00  0.00     0.016 A 
HETATM   24  C16 UNL     1      24.864   7.595  50.654  1.00  0.00     0.039 A 
HETATM   25  C17 UNL     1      26.125   7.566  50.103  1.00  0.00     0.087 A 
HETATM   26  C18 UNL     1      26.390   6.618  49.121  1.00  0.00     0.068 A 
HETATM   27 CL1  UNL     1      27.973   6.572  48.419  1.00  0.00    -0.081 Cl
HETATM   28  C19 UNL     1      25.363   5.764  48.761  1.00  0.00     0.040 A 
BRANCH  25  29
HETATM   29  O2  UNL     1      27.136   8.434  50.483  1.00  0.00    -0.359 OA
HETATM   30  H20 UNL     1      28.065   8.142  50.759  1.00  0.00     0.217 HD
ENDBRANCH  25  29
ENDBRANCH   8  22
TORSDOF 7
ENDMDL
