MODEL 1
REMARK VINA RESULT:      -7.6      0.000      0.000
REMARK  8 active torsions:
REMARK  status: ('A' for Active; 'I' for Inactive)
REMARK    1  A    between atoms: N1_8  and  C8_9 
REMARK    2  A    between atoms: C12_15  and  O1_16 
REMARK    3  A    between atoms: O1_16  and  C13_17 
REMARK    4  A    between atoms: C13_17  and  C14_18 
REMARK    5  A    between atoms: C16_20  and  O2_21 
REMARK    6  A    between atoms: O2_21  and  C17_22 
REMARK    7  A    between atoms: C17_22  and  C18_23 
REMARK    8  A    between atoms: C18_23  and  O3_24 
ROOT
HETATM    1  C1  UNL     1      22.892   4.970  52.769  1.00  0.00     0.019 C 
HETATM    2  C2  UNL     1      22.305   4.002  52.348  1.00  0.00    -0.059 C 
HETATM    3  C3  UNL     1      21.620   2.825  51.832  1.00  0.00     0.089 A 
HETATM    4  C4  UNL     1      20.305   2.849  52.032  1.00  0.00     0.039 A 
HETATM    5  C5  UNL     1      19.453   1.755  51.582  1.00  0.00     0.000 A 
HETATM    6  C6  UNL     1      20.128   0.789  50.982  1.00  0.00    -0.007 A 
HETATM    7  C7  UNL     1      21.565   0.585  50.670  1.00  0.00     0.158 A 
HETATM    8  N1  UNL     1      22.296   1.733  51.172  1.00  0.00    -0.320 N 
ENDROOT
BRANCH   8   9
HETATM    9  C8  UNL     1      23.693   1.969  51.113  1.00  0.00     0.145 A 
HETATM   10  N2  UNL     1      24.051   2.837  50.122  1.00  0.00    -0.223 NA
HETATM   11  C9  UNL     1      25.369   3.109  49.954  1.00  0.00     0.236 A 
HETATM   12  N3  UNL     1      26.343   2.556  50.728  1.00  0.00    -0.241 NA
HETATM   13  C10 UNL     1      26.038   1.694  51.723  1.00  0.00     0.075 A 
HETATM   14  C11 UNL     1      26.950   1.099  52.556  1.00  0.00     0.072 A 
HETATM   15  C21 UNL     1      24.701   1.435  51.873  1.00  0.00     0.042 A 
HETATM   16  C12 UNL     1      26.568   0.239  53.554  1.00  0.00     0.104 A 
HETATM   17  C16 UNL     1      25.200  -0.050  53.739  1.00  0.00     0.103 A 
HETATM   18  C20 UNL     1      24.331   0.574  52.874  1.00  0.00     0.057 A 
BRANCH  16  19
HETATM   19  O1  UNL     1      27.482  -0.342  54.366  1.00  0.00    -0.348 OA
BRANCH  19  20
HETATM   20  C13 UNL     1      28.810  -0.140  54.613  1.00  0.00     0.175 C 
BRANCH  20  21
HETATM   21  C14 UNL     1      29.799  -0.730  53.667  1.00  0.00     0.022 C 
HETATM   22  C15 UNL     1      29.377  -2.153  53.320  1.00  0.00     0.007 C 
ENDBRANCH  20  21
ENDBRANCH  19  20
ENDBRANCH  16  19
BRANCH  17  23
HETATM   23  O2  UNL     1      24.964  -0.912  54.763  1.00  0.00    -0.346 OA
BRANCH  23  24
HETATM   24  C17 UNL     1      23.837  -1.193  55.506  1.00  0.00     0.201 C 
BRANCH  24  25
HETATM   25  C18 UNL     1      22.629  -1.663  54.761  1.00  0.00     0.193 C 
BRANCH  25  26
HETATM   26  O3  UNL     1      21.494  -1.040  55.227  1.00  0.00    -0.394 OA
HETATM   27  C19 UNL     1      21.096   0.096  54.563  1.00  0.00     0.201 C 
ENDBRANCH  25  26
ENDBRANCH  24  25
ENDBRANCH  23  24
ENDBRANCH  17  23
ENDBRANCH   8   9
TORSDOF 8
ENDMDL
MODEL 2
REMARK VINA RESULT:      -7.1      1.685      2.312
REMARK  8 active torsions:
REMARK  status: ('A' for Active; 'I' for Inactive)
REMARK    1  A    between atoms: N1_8  and  C8_9 
REMARK    2  A    between atoms: C12_15  and  O1_16 
REMARK    3  A    between atoms: O1_16  and  C13_17 
REMARK    4  A    between atoms: C13_17  and  C14_18 
REMARK    5  A    between atoms: C16_20  and  O2_21 
REMARK    6  A    between atoms: O2_21  and  C17_22 
REMARK    7  A    between atoms: C17_22  and  C18_23 
REMARK    8  A    between atoms: C18_23  and  O3_24 
ROOT
HETATM    1  C1  UNL     1      22.879   2.052  47.504  1.00  0.00     0.019 C 
HETATM    2  C2  UNL     1      22.282   2.550  48.429  1.00  0.00    -0.059 C 
HETATM    3  C3  UNL     1      21.586   3.156  49.555  1.00  0.00     0.089 A 
HETATM    4  C4  UNL     1      20.260   3.105  49.446  1.00  0.00     0.039 A 
HETATM    5  C5  UNL     1      19.396   3.661  50.480  1.00  0.00     0.000 A 
HETATM    6  C6  UNL     1      20.071   4.195  51.484  1.00  0.00    -0.007 A 
HETATM    7  C7  UNL     1      21.518   4.345  51.780  1.00  0.00     0.158 A 
HETATM    8  N1  UNL     1      22.260   3.761  50.680  1.00  0.00    -0.320 N 
ENDROOT
BRANCH   8   9
HETATM    9  C8  UNL     1      23.667   3.685  50.520  1.00  0.00     0.145 A 
HETATM   10  N2  UNL     1      24.162   4.621  49.658  1.00  0.00    -0.223 NA
HETATM   11  C9  UNL     1      25.494   4.618  49.405  1.00  0.00     0.236 A 
HETATM   12  N3  UNL     1      26.353   3.726  49.972  1.00  0.00    -0.241 NA
HETATM   13  C10 UNL     1      25.911   2.782  50.832  1.00  0.00     0.075 A 
HETATM   14  C11 UNL     1      26.702   1.852  51.455  1.00  0.00     0.072 A 
HETATM   15  C21 UNL     1      24.562   2.806  51.071  1.00  0.00     0.042 A 
HETATM   16  C12 UNL     1      26.187   0.928  52.327  1.00  0.00     0.104 A 
HETATM   17  C16 UNL     1      24.803   0.923  52.599  1.00  0.00     0.103 A 
HETATM   18  C20 UNL     1      24.058   1.877  51.945  1.00  0.00     0.057 A 
BRANCH  16  19
HETATM   19  O1  UNL     1      26.982   0.015  52.932  1.00  0.00    -0.348 OA
BRANCH  19  20
HETATM   20  C13 UNL     1      27.700  -0.009  54.095  1.00  0.00     0.175 C 
BRANCH  20  21
HETATM   21  C14 UNL     1      29.178   0.158  54.012  1.00  0.00     0.022 C 
HETATM   22  C15 UNL     1      29.790  -1.080  53.368  1.00  0.00     0.007 C 
ENDBRANCH  20  21
ENDBRANCH  19  20
ENDBRANCH  16  19
BRANCH  17  23
HETATM   23  O2  UNL     1      24.429  -0.041  53.481  1.00  0.00    -0.346 OA
BRANCH  23  24
HETATM   24  C17 UNL     1      23.201  -0.561  53.832  1.00  0.00     0.201 C 
BRANCH  24  25
HETATM   25  C18 UNL     1      23.127  -1.329  55.113  1.00  0.00     0.193 C 
BRANCH  25  26
HETATM   26  O3  UNL     1      21.903  -1.942  55.245  1.00  0.00    -0.394 OA
HETATM   27  C19 UNL     1      20.942  -1.608  54.320  1.00  0.00     0.201 C 
ENDBRANCH  25  26
ENDBRANCH  24  25
ENDBRANCH  23  24
ENDBRANCH  17  23
ENDBRANCH   8   9
TORSDOF 8
ENDMDL
MODEL 3
REMARK VINA RESULT:      -6.7      2.230      3.321
REMARK  8 active torsions:
REMARK  status: ('A' for Active; 'I' for Inactive)
REMARK    1  A    between atoms: N1_8  and  C8_9 
REMARK    2  A    between atoms: C12_15  and  O1_16 
REMARK    3  A    between atoms: O1_16  and  C13_17 
REMARK    4  A    between atoms: C13_17  and  C14_18 
REMARK    5  A    between atoms: C16_20  and  O2_21 
REMARK    6  A    between atoms: O2_21  and  C17_22 
REMARK    7  A    between atoms: C17_22  and  C18_23 
REMARK    8  A    between atoms: C18_23  and  O3_24 
ROOT
HETATM    1  C1  UNL     1      22.902   2.779  47.863  1.00  0.00     0.019 C 
HETATM    2  C2  UNL     1      22.667   3.750  48.542  1.00  0.00    -0.059 C 
HETATM    3  C3  UNL     1      22.408   4.920  49.368  1.00  0.00     0.089 A 
HETATM    4  C4  UNL     1      21.148   5.346  49.303  1.00  0.00     0.039 A 
HETATM    5  C5  UNL     1      20.703   6.506  50.064  1.00  0.00     0.000 A 
HETATM    6  C6  UNL     1      21.668   7.049  50.789  1.00  0.00    -0.007 A 
HETATM    7  C7  UNL     1      23.103   6.725  50.990  1.00  0.00     0.158 A 
HETATM    8  N1  UNL     1      23.415   5.565  50.178  1.00  0.00    -0.320 N 
ENDROOT
BRANCH   8   9
HETATM    9  C8  UNL     1      24.664   4.908  50.042  1.00  0.00     0.145 A 
HETATM   10  N2  UNL     1      25.488   5.503  49.130  1.00  0.00    -0.223 NA
HETATM   11  C9  UNL     1      26.698   4.937  48.895  1.00  0.00     0.236 A 
HETATM   12  N3  UNL     1      27.121   3.807  49.526  1.00  0.00    -0.241 NA
HETATM   13  C10 UNL     1      26.342   3.182  50.437  1.00  0.00     0.075 A 
HETATM   14  C11 UNL     1      26.689   2.049  51.126  1.00  0.00     0.072 A 
HETATM   15  C21 UNL     1      25.126   3.773  50.657  1.00  0.00     0.042 A 
HETATM   16  C12 UNL     1      25.851   1.473  52.046  1.00  0.00     0.104 A 
HETATM   17  C16 UNL     1      24.592   2.055  52.300  1.00  0.00     0.103 A 
HETATM   18  C20 UNL     1      24.296   3.189  51.580  1.00  0.00     0.057 A 
BRANCH  16  19
HETATM   19  O1  UNL     1      26.209   0.353  52.716  1.00  0.00    -0.348 OA
BRANCH  19  20
HETATM   20  C13 UNL     1      27.341  -0.409  52.771  1.00  0.00     0.175 C 
BRANCH  20  21
HETATM   21  C14 UNL     1      28.255  -0.227  53.934  1.00  0.00     0.022 C 
HETATM   22  C15 UNL     1      29.649  -0.719  53.561  1.00  0.00     0.007 C 
ENDBRANCH  20  21
ENDBRANCH  19  20
ENDBRANCH  16  19
BRANCH  17  23
HETATM   23  O2  UNL     1      23.867   1.386  53.234  1.00  0.00    -0.346 OA
BRANCH  23  24
HETATM   24  C17 UNL     1      22.727   0.612  53.154  1.00  0.00     0.201 C 
BRANCH  24  25
HETATM   25  C18 UNL     1      22.902  -0.870  53.260  1.00  0.00     0.193 C 
BRANCH  25  26
HETATM   26  O3  UNL     1      22.043  -1.398  54.195  1.00  0.00    -0.394 OA
HETATM   27  C19 UNL     1      21.202  -0.514  54.830  1.00  0.00     0.201 C 
ENDBRANCH  25  26
ENDBRANCH  24  25
ENDBRANCH  23  24
ENDBRANCH  17  23
ENDBRANCH   8   9
TORSDOF 8
ENDMDL
MODEL 4
REMARK VINA RESULT:      -6.7      2.334      5.456
REMARK  8 active torsions:
REMARK  status: ('A' for Active; 'I' for Inactive)
REMARK    1  A    between atoms: N1_8  and  C8_9 
REMARK    2  A    between atoms: C12_15  and  O1_16 
REMARK    3  A    between atoms: O1_16  and  C13_17 
REMARK    4  A    between atoms: C13_17  and  C14_18 
REMARK    5  A    between atoms: C16_20  and  O2_21 
REMARK    6  A    between atoms: O2_21  and  C17_22 
REMARK    7  A    between atoms: C17_22  and  C18_23 
REMARK    8  A    between atoms: C18_23  and  O3_24 
ROOT
HETATM    1  C1  UNL     1      22.676   6.860  50.721  1.00  0.00     0.019 C 
HETATM    2  C2  UNL     1      23.768   6.640  50.253  1.00  0.00    -0.059 C 
HETATM    3  C3  UNL     1      25.077   6.349  49.687  1.00  0.00     0.089 A 
HETATM    4  C4  UNL     1      25.870   7.416  49.613  1.00  0.00     0.039 A 
HETATM    5  C5  UNL     1      27.220   7.317  49.073  1.00  0.00     0.000 A 
HETATM    6  C6  UNL     1      27.533   6.091  48.688  1.00  0.00    -0.007 A 
HETATM    7  C7  UNL     1      26.801   4.799  48.690  1.00  0.00     0.158 A 
HETATM    8  N1  UNL     1      25.482   5.037  49.242  1.00  0.00    -0.320 N 
ENDROOT
BRANCH   8   9
HETATM    9  C8  UNL     1      24.433   4.100  49.426  1.00  0.00     0.145 A 
HETATM   10  N2  UNL     1      23.472   4.171  48.459  1.00  0.00    -0.223 NA
HETATM   11  C9  UNL     1      22.403   3.342  48.556  1.00  0.00     0.236 A 
HETATM   12  N3  UNL     1      22.251   2.447  49.571  1.00  0.00    -0.241 NA
HETATM   13  C10 UNL     1      23.175   2.338  50.550  1.00  0.00     0.075 A 
HETATM   14  C11 UNL     1      23.110   1.461  51.602  1.00  0.00     0.072 A 
HETATM   15  C21 UNL     1      24.245   3.186  50.430  1.00  0.00     0.042 A 
HETATM   16  C12 UNL     1      24.092   1.397  52.556  1.00  0.00     0.104 A 
HETATM   17  C16 UNL     1      25.209   2.253  52.464  1.00  0.00     0.103 A 
HETATM   18  C20 UNL     1      25.222   3.112  51.390  1.00  0.00     0.057 A 
BRANCH  16  19
HETATM   19  O1  UNL     1      24.010   0.527  53.589  1.00  0.00    -0.348 OA
BRANCH  19  20
HETATM   20  C13 UNL     1      23.533  -0.745  53.735  1.00  0.00     0.175 C 
BRANCH  20  21
HETATM   21  C14 UNL     1      22.532  -1.002  54.808  1.00  0.00     0.022 C 
HETATM   22  C15 UNL     1      21.175  -0.461  54.372  1.00  0.00     0.007 C 
ENDBRANCH  20  21
ENDBRANCH  19  20
ENDBRANCH  16  19
BRANCH  17  23
HETATM   23  O2  UNL     1      26.105   2.082  53.472  1.00  0.00    -0.346 OA
BRANCH  23  24
HETATM   24  C17 UNL     1      27.188   1.242  53.626  1.00  0.00     0.201 C 
BRANCH  24  25
HETATM   25  C18 UNL     1      27.148   0.283  54.772  1.00  0.00     0.193 C 
BRANCH  25  26
HETATM   26  O3  UNL     1      28.375  -0.311  54.955  1.00  0.00    -0.394 OA
HETATM   27  C19 UNL     1      29.164  -0.457  53.838  1.00  0.00     0.201 C 
ENDBRANCH  25  26
ENDBRANCH  24  25
ENDBRANCH  23  24
ENDBRANCH  17  23
ENDBRANCH   8   9
TORSDOF 8
ENDMDL
MODEL 5
REMARK VINA RESULT:      -6.3      1.924      2.825
REMARK  8 active torsions:
REMARK  status: ('A' for Active; 'I' for Inactive)
REMARK    1  A    between atoms: N1_8  and  C8_9 
REMARK    2  A    between atoms: C12_15  and  O1_16 
REMARK    3  A    between atoms: O1_16  and  C13_17 
REMARK    4  A    between atoms: C13_17  and  C14_18 
REMARK    5  A    between atoms: C16_20  and  O2_21 
REMARK    6  A    between atoms: O2_21  and  C17_22 
REMARK    7  A    between atoms: C17_22  and  C18_23 
REMARK    8  A    between atoms: C18_23  and  O3_24 
ROOT
HETATM    1  C1  UNL     1      22.693   2.722  48.339  1.00  0.00     0.019 C 
HETATM    2  C2  UNL     1      21.662   2.627  48.960  1.00  0.00    -0.059 C 
HETATM    3  C3  UNL     1      20.430   2.524  49.731  1.00  0.00     0.089 A 
HETATM    4  C4  UNL     1      19.424   1.983  49.048  1.00  0.00     0.039 A 
HETATM    5  C5  UNL     1      18.112   1.799  49.657  1.00  0.00     0.000 A 
HETATM    6  C6  UNL     1      18.062   2.219  50.910  1.00  0.00    -0.007 A 
HETATM    7  C7  UNL     1      19.056   2.836  51.824  1.00  0.00     0.158 A 
HETATM    8  N1  UNL     1      20.305   2.968  51.099  1.00  0.00    -0.320 N 
ENDROOT
BRANCH   8   9
HETATM    9  C8  UNL     1      21.528   3.515  51.563  1.00  0.00     0.145 A 
HETATM   10  N2  UNL     1      21.639   4.856  51.334  1.00  0.00    -0.223 NA
HETATM   11  C9  UNL     1      22.786   5.477  51.708  1.00  0.00     0.236 A 
HETATM   12  N3  UNL     1      23.823   4.821  52.298  1.00  0.00    -0.241 NA
HETATM   13  C10 UNL     1      23.760   3.495  52.547  1.00  0.00     0.075 A 
HETATM   14  C11 UNL     1      24.749   2.757  53.144  1.00  0.00     0.072 A 
HETATM   15  C21 UNL     1      22.593   2.890  52.160  1.00  0.00     0.042 A 
HETATM   16  C12 UNL     1      24.613   1.412  53.375  1.00  0.00     0.104 A 
HETATM   17  C16 UNL     1      23.424   0.757  52.992  1.00  0.00     0.103 A 
HETATM   18  C20 UNL     1      22.467   1.546  52.397  1.00  0.00     0.057 A 
BRANCH  16  19
HETATM   19  O1  UNL     1      25.601   0.698  53.964  1.00  0.00    -0.348 OA
BRANCH  19  20
HETATM   20  C13 UNL     1      26.716   0.052  53.511  1.00  0.00     0.175 C 
BRANCH  20  21
HETATM   21  C14 UNL     1      27.870   0.877  53.054  1.00  0.00     0.022 C 
HETATM   22  C15 UNL     1      29.127   0.442  53.797  1.00  0.00     0.007 C 
ENDBRANCH  20  21
ENDBRANCH  19  20
ENDBRANCH  16  19
BRANCH  17  23
HETATM   23  O2  UNL     1      23.422  -0.571  53.283  1.00  0.00    -0.346 OA
BRANCH  23  24
HETATM   24  C17 UNL     1      22.409  -1.500  53.398  1.00  0.00     0.201 C 
BRANCH  24  25
HETATM   25  C18 UNL     1      21.437  -1.313  54.518  1.00  0.00     0.193 C 
BRANCH  25  26
HETATM   26  O3  UNL     1      20.152  -1.562  54.096  1.00  0.00    -0.394 OA
HETATM   27  C19 UNL     1      19.549  -0.585  53.340  1.00  0.00     0.201 C 
ENDBRANCH  25  26
ENDBRANCH  24  25
ENDBRANCH  23  24
ENDBRANCH  17  23
ENDBRANCH   8   9
TORSDOF 8
ENDMDL
MODEL 6
REMARK VINA RESULT:      -6.3      2.313      5.343
REMARK  8 active torsions:
REMARK  status: ('A' for Active; 'I' for Inactive)
REMARK    1  A    between atoms: N1_8  and  C8_9 
REMARK    2  A    between atoms: C12_15  and  O1_16 
REMARK    3  A    between atoms: O1_16  and  C13_17 
REMARK    4  A    between atoms: C13_17  and  C14_18 
REMARK    5  A    between atoms: C16_20  and  O2_21 
REMARK    6  A    between atoms: O2_21  and  C17_22 
REMARK    7  A    between atoms: C17_22  and  C18_23 
REMARK    8  A    between atoms: C18_23  and  O3_24 
ROOT
HETATM    1  C1  UNL     1      22.347   3.487  47.696  1.00  0.00     0.019 C 
HETATM    2  C2  UNL     1      22.948   4.299  48.359  1.00  0.00    -0.059 C 
HETATM    3  C3  UNL     1      23.657   5.271  49.179  1.00  0.00     0.089 A 
HETATM    4  C4  UNL     1      24.625   5.907  48.525  1.00  0.00     0.039 A 
HETATM    5  C5  UNL     1      25.443   6.918  49.184  1.00  0.00     0.000 A 
HETATM    6  C6  UNL     1      25.110   7.105  50.450  1.00  0.00    -0.007 A 
HETATM    7  C7  UNL     1      24.082   6.506  51.338  1.00  0.00     0.158 A 
HETATM    8  N1  UNL     1      23.349   5.521  50.567  1.00  0.00    -0.320 N 
ENDROOT
BRANCH   8   9
HETATM    9  C8  UNL     1      22.285   4.691  51.002  1.00  0.00     0.145 A 
HETATM   10  N2  UNL     1      21.052   5.208  50.729  1.00  0.00    -0.223 NA
HETATM   11  C9  UNL     1      19.960   4.510  51.132  1.00  0.00     0.236 A 
HETATM   12  N3  UNL     1      20.044   3.324  51.794  1.00  0.00    -0.241 NA
HETATM   13  C10 UNL     1      21.242   2.771  52.087  1.00  0.00     0.075 A 
HETATM   14  C11 UNL     1      21.421   1.579  52.740  1.00  0.00     0.072 A 
HETATM   15  C21 UNL     1      22.328   3.494  51.669  1.00  0.00     0.042 A 
HETATM   16  C12 UNL     1      22.669   1.071  52.995  1.00  0.00     0.104 A 
HETATM   17  C16 UNL     1      23.811   1.787  52.578  1.00  0.00     0.103 A 
HETATM   18  C20 UNL     1      23.571   2.976  51.929  1.00  0.00     0.057 A 
BRANCH  16  19
HETATM   19  O1  UNL     1      22.828  -0.107  53.643  1.00  0.00    -0.348 OA
BRANCH  19  20
HETATM   20  C13 UNL     1      22.216  -0.704  54.708  1.00  0.00     0.175 C 
BRANCH  20  21
HETATM   21  C14 UNL     1      22.987  -1.714  55.487  1.00  0.00     0.022 C 
HETATM   22  C15 UNL     1      24.391  -1.183  55.749  1.00  0.00     0.007 C 
ENDBRANCH  20  21
ENDBRANCH  19  20
ENDBRANCH  16  19
BRANCH  17  23
HETATM   23  O2  UNL     1      24.980   1.169  52.892  1.00  0.00    -0.346 OA
BRANCH  23  24
HETATM   24  C17 UNL     1      25.869   0.419  52.150  1.00  0.00     0.201 C 
BRANCH  24  25
HETATM   25  C18 UNL     1      26.489  -0.764  52.823  1.00  0.00     0.193 C 
BRANCH  25  26
HETATM   26  O3  UNL     1      27.773  -0.479  53.224  1.00  0.00    -0.394 OA
HETATM   27  C19 UNL     1      27.928   0.008  54.501  1.00  0.00     0.201 C 
ENDBRANCH  25  26
ENDBRANCH  24  25
ENDBRANCH  23  24
ENDBRANCH  17  23
ENDBRANCH   8   9
TORSDOF 8
ENDMDL
MODEL 7
REMARK VINA RESULT:      -6.0      3.671      6.690
REMARK  8 active torsions:
REMARK  status: ('A' for Active; 'I' for Inactive)
REMARK    1  A    between atoms: N1_8  and  C8_9 
REMARK    2  A    between atoms: C12_15  and  O1_16 
REMARK    3  A    between atoms: O1_16  and  C13_17 
REMARK    4  A    between atoms: C13_17  and  C14_18 
REMARK    5  A    between atoms: C16_20  and  O2_21 
REMARK    6  A    between atoms: O2_21  and  C17_22 
REMARK    7  A    between atoms: C17_22  and  C18_23 
REMARK    8  A    between atoms: C18_23  and  O3_24 
ROOT
HETATM    1  C1  UNL     1      22.266   4.706  52.299  1.00  0.00     0.019 C 
HETATM    2  C2  UNL     1      22.238   4.261  51.176  1.00  0.00    -0.059 C 
HETATM    3  C3  UNL     1      22.207   3.701  49.833  1.00  0.00     0.089 A 
HETATM    4  C4  UNL     1      22.131   4.624  48.877  1.00  0.00     0.039 A 
HETATM    5  C5  UNL     1      22.090   4.250  47.469  1.00  0.00     0.000 A 
HETATM    6  C6  UNL     1      22.136   2.941  47.281  1.00  0.00    -0.007 A 
HETATM    7  C7  UNL     1      22.221   1.778  48.199  1.00  0.00     0.158 A 
HETATM    8  N1  UNL     1      22.248   2.284  49.557  1.00  0.00    -0.320 N 
ENDROOT
BRANCH   8   9
HETATM    9  C8  UNL     1      22.312   1.540  50.763  1.00  0.00     0.145 A 
HETATM   10  N2  UNL     1      23.577   1.434  51.263  1.00  0.00    -0.223 NA
HETATM   11  C9  UNL     1      23.759   0.713  52.398  1.00  0.00     0.236 A 
HETATM   12  N3  UNL     1      22.738   0.096  53.054  1.00  0.00    -0.241 NA
HETATM   13  C10 UNL     1      21.468   0.173  52.598  1.00  0.00     0.075 A 
HETATM   14  C11 UNL     1      20.379  -0.406  53.197  1.00  0.00     0.072 A 
HETATM   15  C21 UNL     1      21.310   0.906  51.452  1.00  0.00     0.042 A 
HETATM   16  C12 UNL     1      19.114  -0.277  52.685  1.00  0.00     0.104 A 
HETATM   17  C16 UNL     1      18.913   0.472  51.506  1.00  0.00     0.103 A 
HETATM   18  C20 UNL     1      20.041   1.029  50.948  1.00  0.00     0.057 A 
BRANCH  16  19
HETATM   19  O1  UNL     1      18.051  -0.858  53.288  1.00  0.00    -0.348 OA
BRANCH  19  20
HETATM   20  C13 UNL     1      17.324  -1.993  53.063  1.00  0.00     0.175 C 
BRANCH  20  21
HETATM   21  C14 UNL     1      17.725  -3.237  53.779  1.00  0.00     0.022 C 
HETATM   22  C15 UNL     1      16.701  -4.331  53.499  1.00  0.00     0.007 C 
ENDBRANCH  20  21
ENDBRANCH  19  20
ENDBRANCH  16  19
BRANCH  17  23
HETATM   23  O2  UNL     1      17.614   0.520  51.112  1.00  0.00    -0.346 OA
BRANCH  23  24
HETATM   24  C17 UNL     1      16.677   1.533  51.103  1.00  0.00     0.201 C 
BRANCH  24  25
HETATM   25  C18 UNL     1      17.114   2.869  51.614  1.00  0.00     0.193 C 
BRANCH  25  26
HETATM   26  O3  UNL     1      16.086   3.779  51.541  1.00  0.00    -0.394 OA
HETATM   27  C19 UNL     1      15.424   4.059  52.713  1.00  0.00     0.201 C 
ENDBRANCH  25  26
ENDBRANCH  24  25
ENDBRANCH  23  24
ENDBRANCH  17  23
ENDBRANCH   8   9
TORSDOF 8
ENDMDL
MODEL 8
REMARK VINA RESULT:      -5.8      6.691      9.522
REMARK  8 active torsions:
REMARK  status: ('A' for Active; 'I' for Inactive)
REMARK    1  A    between atoms: N1_8  and  C8_9 
REMARK    2  A    between atoms: C12_15  and  O1_16 
REMARK    3  A    between atoms: O1_16  and  C13_17 
REMARK    4  A    between atoms: C13_17  and  C14_18 
REMARK    5  A    between atoms: C16_20  and  O2_21 
REMARK    6  A    between atoms: O2_21  and  C17_22 
REMARK    7  A    between atoms: C17_22  and  C18_23 
REMARK    8  A    between atoms: C18_23  and  O3_24 
ROOT
HETATM    1  C1  UNL     1      30.606   9.542  49.677  1.00  0.00     0.019 C 
HETATM    2  C2  UNL     1      30.174   9.728  48.564  1.00  0.00    -0.059 C 
HETATM    3  C3  UNL     1      29.650   9.926  47.220  1.00  0.00     0.089 A 
HETATM    4  C4  UNL     1      29.577  11.207  46.865  1.00  0.00     0.039 A 
HETATM    5  C5  UNL     1      29.077  11.598  45.553  1.00  0.00     0.000 A 
HETATM    6  C6  UNL     1      28.726  10.565  44.805  1.00  0.00    -0.007 A 
HETATM    7  C7  UNL     1      28.733   9.096  45.020  1.00  0.00     0.158 A 
HETATM    8  N1  UNL     1      29.243   8.845  46.354  1.00  0.00    -0.320 N 
ENDROOT
BRANCH   8   9
HETATM    9  C8  UNL     1      29.416   7.594  46.999  1.00  0.00     0.145 A 
HETATM   10  N2  UNL     1      30.686   7.104  46.892  1.00  0.00    -0.223 NA
HETATM   11  C9  UNL     1      30.956   5.895  47.444  1.00  0.00     0.236 A 
HETATM   12  N3  UNL     1      30.018   5.155  48.097  1.00  0.00    -0.241 NA
HETATM   13  C10 UNL     1      28.748   5.597  48.230  1.00  0.00     0.075 A 
HETATM   14  C11 UNL     1      27.743   4.925  48.878  1.00  0.00     0.072 A 
HETATM   15  C21 UNL     1      28.501   6.820  47.664  1.00  0.00     0.042 A 
HETATM   16  C12 UNL     1      26.477   5.440  48.985  1.00  0.00     0.104 A 
HETATM   17  C16 UNL     1      26.186   6.697  48.416  1.00  0.00     0.103 A 
HETATM   18  C20 UNL     1      27.231   7.325  47.778  1.00  0.00     0.057 A 
BRANCH  16  19
HETATM   19  O1  UNL     1      25.496   4.762  49.625  1.00  0.00    -0.348 OA
BRANCH  19  20
HETATM   20  C13 UNL     1      25.022   3.482  49.569  1.00  0.00     0.175 C 
BRANCH  20  21
HETATM   21  C14 UNL     1      24.983   2.691  50.831  1.00  0.00     0.022 C 
HETATM   22  C15 UNL     1      26.408   2.382  51.277  1.00  0.00     0.007 C 
ENDBRANCH  20  21
ENDBRANCH  19  20
ENDBRANCH  16  19
BRANCH  17  23
HETATM   23  O2  UNL     1      24.897   7.087  48.598  1.00  0.00    -0.346 OA
BRANCH  23  24
HETATM   24  C17 UNL     1      24.321   8.086  49.355  1.00  0.00     0.201 C 
BRANCH  24  25
HETATM   25  C18 UNL     1      23.885   7.725  50.739  1.00  0.00     0.193 C 
BRANCH  25  26
HETATM   26  O3  UNL     1      22.513   7.665  50.818  1.00  0.00    -0.394 OA
HETATM   27  C19 UNL     1      21.949   6.411  50.814  1.00  0.00     0.201 C 
ENDBRANCH  25  26
ENDBRANCH  24  25
ENDBRANCH  23  24
ENDBRANCH  17  23
ENDBRANCH   8   9
TORSDOF 8
ENDMDL
MODEL 9
REMARK VINA RESULT:      -5.8      3.415      5.722
REMARK  8 active torsions:
REMARK  status: ('A' for Active; 'I' for Inactive)
REMARK    1  A    between atoms: N1_8  and  C8_9 
REMARK    2  A    between atoms: C12_15  and  O1_16 
REMARK    3  A    between atoms: O1_16  and  C13_17 
REMARK    4  A    between atoms: C13_17  and  C14_18 
REMARK    5  A    between atoms: C16_20  and  O2_21 
REMARK    6  A    between atoms: O2_21  and  C17_22 
REMARK    7  A    between atoms: C17_22  and  C18_23 
REMARK    8  A    between atoms: C18_23  and  O3_24 
ROOT
HETATM    1  C1  UNL     1      20.646   3.154  47.990  1.00  0.00     0.019 C 
HETATM    2  C2  UNL     1      20.829   4.240  48.486  1.00  0.00    -0.059 C 
HETATM    3  C3  UNL     1      21.054   5.538  49.105  1.00  0.00     0.089 A 
HETATM    4  C4  UNL     1      20.875   6.560  48.272  1.00  0.00     0.039 A 
HETATM    5  C5  UNL     1      21.055   7.937  48.716  1.00  0.00     0.000 A 
HETATM    6  C6  UNL     1      21.403   8.027  49.989  1.00  0.00    -0.007 A 
HETATM    7  C7  UNL     1      21.646   7.025  51.057  1.00  0.00     0.158 A 
HETATM    8  N1  UNL     1      21.440   5.708  50.486  1.00  0.00    -0.320 N 
ENDROOT
BRANCH   8   9
HETATM    9  C8  UNL     1      21.572   4.450  51.128  1.00  0.00     0.145 A 
HETATM   10  N2  UNL     1      20.396   3.978  51.635  1.00  0.00    -0.223 NA
HETATM   11  C9  UNL     1      20.414   2.796  52.300  1.00  0.00     0.236 A 
HETATM   12  N3  UNL     1      21.549   2.066  52.482  1.00  0.00    -0.241 NA
HETATM   13  C10 UNL     1      22.737   2.491  51.998  1.00  0.00     0.075 A 
HETATM   14  C11 UNL     1      23.925   1.819  52.124  1.00  0.00     0.072 A 
HETATM   15  C21 UNL     1      22.693   3.687  51.330  1.00  0.00     0.042 A 
HETATM   16  C12 UNL     1      25.094   2.306  51.597  1.00  0.00     0.104 A 
HETATM   17  C16 UNL     1      25.087   3.533  50.901  1.00  0.00     0.103 A 
HETATM   18  C20 UNL     1      23.868   4.163  50.806  1.00  0.00     0.057 A 
BRANCH  16  19
HETATM   19  O1  UNL     1      26.259   1.630  51.733  1.00  0.00    -0.348 OA
BRANCH  19  20
HETATM   20  C13 UNL     1      26.814   0.868  52.721  1.00  0.00     0.175 C 
BRANCH  20  21
HETATM   21  C14 UNL     1      26.890  -0.606  52.514  1.00  0.00     0.022 C 
HETATM   22  C15 UNL     1      28.163  -1.141  53.158  1.00  0.00     0.007 C 
ENDBRANCH  20  21
ENDBRANCH  19  20
ENDBRANCH  16  19
BRANCH  17  23
HETATM   23  O2  UNL     1      26.309   3.893  50.430  1.00  0.00    -0.346 OA
BRANCH  23  24
HETATM   24  C17 UNL     1      26.789   4.126  49.158  1.00  0.00     0.201 C 
BRANCH  24  25
HETATM   25  C18 UNL     1      26.769   5.539  48.671  1.00  0.00     0.193 C 
BRANCH  25  26
HETATM   26  O3  UNL     1      26.223   6.375  49.617  1.00  0.00    -0.394 OA
HETATM   27  C19 UNL     1      25.240   7.235  49.188  1.00  0.00     0.201 C 
ENDBRANCH  25  26
ENDBRANCH  24  25
ENDBRANCH  23  24
ENDBRANCH  17  23
ENDBRANCH   8   9
TORSDOF 8
ENDMDL
