MODEL 1
REMARK VINA RESULT:      -8.7      0.000      0.000
REMARK  2 active torsions:
REMARK  status: ('A' for Active; 'I' for Inactive)
REMARK    1  A    between atoms: O1_2  and  C2_3 
REMARK    2  A    between atoms: C7_9  and  C8_10 
ROOT
HETATM    1  C2  UNL     1      22.706   3.236  49.675  1.00  0.00     0.123 C 
HETATM    2  C3  UNL     1      23.411   2.861  50.791  1.00  0.00     0.047 C 
HETATM    3  C4  UNL     1      22.592   2.187  51.770  1.00  0.00     0.067 C 
HETATM    4  C5  UNL     1      22.964   1.050  52.613  1.00  0.00    -0.019 C 
HETATM    5  C6  UNL     1      23.970   0.188  53.039  1.00  0.00     0.138 C 
HETATM    6  N1  UNL     1      25.298  -0.421  53.161  1.00  0.00    -0.405 N 
HETATM    7  C7  UNL     1      26.339   0.597  52.884  1.00  0.00     0.130 C 
HETATM    8  C14 UNL     1      26.302   0.887  51.408  1.00  0.00     0.179 C 
HETATM    9  N2  UNL     1      27.020   2.153  51.154  1.00  0.00    -0.282 NA
HETATM   10  C15 UNL     1      26.200   3.197  50.921  1.00  0.00     0.201 C 
HETATM   11  N3  UNL     1      24.782   3.067  50.927  1.00  0.00    -0.352 N 
HETATM   12  C16 UNL     1      21.669   0.601  53.321  1.00  0.00     0.017 C 
HETATM   13  C17 UNL     1      20.513   0.518  52.319  1.00  0.00     0.105 C 
HETATM   14  C18 UNL     1      19.980   1.829  51.853  1.00  0.00     0.242 C 
HETATM   15  O2  UNL     1      19.588   2.654  52.752  1.00  0.00    -0.271 OA
HETATM   16  N4  UNL     1      19.843   2.288  50.506  1.00  0.00    -0.213 NA
HETATM   17  P1  UNL     1      20.916   2.905  49.477  1.00  0.00     0.130 P 
HETATM   18  H7  UNL     1      24.566  -1.123  53.350  1.00  0.00     0.154 HD
HETATM   19  H17 UNL     1      24.938   2.583  49.985  1.00  0.00     0.166 HD
ENDROOT
BRANCH   7  20
HETATM   20  C8  UNL     1      27.683   0.045  53.198  1.00  0.00    -0.034 A 
HETATM   21  C9  UNL     1      28.766   0.747  53.680  1.00  0.00     0.009 A 
HETATM   22  C10 UNL     1      29.926   0.039  53.903  1.00  0.00     0.001 A 
HETATM   23  C11 UNL     1      30.061  -1.313  53.675  1.00  0.00     0.000 A 
HETATM   24  C12 UNL     1      28.961  -2.016  53.187  1.00  0.00     0.001 A 
HETATM   25  C13 UNL     1      27.778  -1.308  52.956  1.00  0.00     0.009 A 
ENDBRANCH   7  20
BRANCH   1  26
HETATM   26  O1  UNL     1      23.227   3.868  48.634  1.00  0.00    -0.351 OA
HETATM   27  C1  UNL     1      23.357   5.171  48.216  1.00  0.00     0.210 C 
ENDBRANCH   1  26
TORSDOF 2
ENDMDL
MODEL 2
REMARK VINA RESULT:      -8.5      3.018      6.121
REMARK  2 active torsions:
REMARK  status: ('A' for Active; 'I' for Inactive)
REMARK    1  A    between atoms: O1_2  and  C2_3 
REMARK    2  A    between atoms: C7_9  and  C8_10 
ROOT
HETATM    1  C2  UNL     1      25.518  -0.542  54.300  1.00  0.00     0.123 C 
HETATM    2  C3  UNL     1      25.052   0.051  53.154  1.00  0.00     0.047 C 
HETATM    3  C4  UNL     1      23.612   0.069  53.078  1.00  0.00     0.067 C 
HETATM    4  C5  UNL     1      22.759   1.138  52.556  1.00  0.00    -0.019 C 
HETATM    5  C6  UNL     1      22.687   2.365  51.905  1.00  0.00     0.138 C 
HETATM    6  N1  UNL     1      23.126   3.589  51.225  1.00  0.00    -0.405 N 
HETATM    7  C7  UNL     1      24.414   3.341  50.536  1.00  0.00     0.130 C 
HETATM    8  C14 UNL     1      25.474   3.219  51.597  1.00  0.00     0.179 C 
HETATM    9  N2  UNL     1      26.670   2.586  51.004  1.00  0.00    -0.282 NA
HETATM   10  C15 UNL     1      26.816   1.290  51.347  1.00  0.00     0.201 C 
HETATM   11  N3  UNL     1      25.893   0.620  52.199  1.00  0.00    -0.352 N 
HETATM   12  C16 UNL     1      21.310   0.733  52.895  1.00  0.00     0.017 C 
HETATM   13  C17 UNL     1      21.213   0.262  54.350  1.00  0.00     0.105 C 
HETATM   14  C18 UNL     1      21.808  -1.075  54.627  1.00  0.00     0.242 C 
HETATM   15  O2  UNL     1      21.386  -2.060  53.924  1.00  0.00    -0.271 OA
HETATM   16  N4  UNL     1      22.805  -1.404  55.597  1.00  0.00    -0.213 NA
HETATM   17  P1  UNL     1      24.405  -1.231  55.582  1.00  0.00     0.130 P 
HETATM   18  H7  UNL     1      22.229   3.752  51.710  1.00  0.00     0.154 HD
HETATM   19  H17 UNL     1      26.362   1.197  52.969  1.00  0.00     0.166 HD
ENDROOT
BRANCH   7  20
HETATM   20  C8  UNL     1      24.765   4.507  49.685  1.00  0.00    -0.034 A 
HETATM   21  C9  UNL     1      26.024   5.034  49.495  1.00  0.00     0.009 A 
HETATM   22  C10 UNL     1      26.130   6.125  48.661  1.00  0.00     0.001 A 
HETATM   23  C11 UNL     1      25.063   6.710  48.015  1.00  0.00     0.000 A 
HETATM   24  C12 UNL     1      23.792   6.171  48.212  1.00  0.00     0.001 A 
HETATM   25  C13 UNL     1      23.672   5.064  49.057  1.00  0.00     0.009 A 
ENDBRANCH   7  20
BRANCH   1  26
HETATM   26  O1  UNL     1      26.799  -0.682  54.607  1.00  0.00    -0.351 OA
HETATM   27  C1  UNL     1      27.856   0.146  54.898  1.00  0.00     0.210 C 
ENDBRANCH   1  26
TORSDOF 2
ENDMDL
MODEL 3
REMARK VINA RESULT:      -8.4      1.769      4.156
REMARK  2 active torsions:
REMARK  status: ('A' for Active; 'I' for Inactive)
REMARK    1  A    between atoms: O1_2  and  C2_3 
REMARK    2  A    between atoms: C7_9  and  C8_10 
ROOT
HETATM    1  C2  UNL     1      21.391   4.070  51.200  1.00  0.00     0.123 C 
HETATM    2  C3  UNL     1      22.538   3.376  50.908  1.00  0.00     0.047 C 
HETATM    3  C4  UNL     1      23.392   4.073  49.978  1.00  0.00     0.067 C 
HETATM    4  C5  UNL     1      24.855   4.139  49.986  1.00  0.00    -0.019 C 
HETATM    5  C6  UNL     1      26.043   3.692  50.555  1.00  0.00     0.138 C 
HETATM    6  N1  UNL     1      26.953   2.951  51.436  1.00  0.00    -0.405 N 
HETATM    7  C7  UNL     1      26.321   1.673  51.842  1.00  0.00     0.130 C 
HETATM    8  C14 UNL     1      25.214   2.007  52.806  1.00  0.00     0.179 C 
HETATM    9  N2  UNL     1      24.318   0.839  52.923  1.00  0.00    -0.282 NA
HETATM   10  C15 UNL     1      23.160   0.982  52.246  1.00  0.00     0.201 C 
HETATM   11  N3  UNL     1      22.856   2.154  51.498  1.00  0.00    -0.352 N 
HETATM   12  C16 UNL     1      25.243   5.170  48.906  1.00  0.00     0.017 C 
HETATM   13  C17 UNL     1      24.379   6.428  49.033  1.00  0.00     0.105 C 
HETATM   14  C18 UNL     1      22.965   6.276  48.590  1.00  0.00     0.242 C 
HETATM   15  O2  UNL     1      22.768   5.849  47.397  1.00  0.00    -0.271 OA
HETATM   16  N4  UNL     1      21.779   6.554  49.339  1.00  0.00    -0.213 NA
HETATM   17  P1  UNL     1      21.010   5.706  50.470  1.00  0.00     0.130 P 
HETATM   18  H7  UNL     1      27.384   3.844  51.148  1.00  0.00     0.154 HD
HETATM   19  H17 UNL     1      22.704   2.591  52.463  1.00  0.00     0.166 HD
ENDROOT
BRANCH   7  20
HETATM   20  C8  UNL     1      27.307   0.830  52.568  1.00  0.00    -0.034 A 
HETATM   21  C9  UNL     1      27.356  -0.547  52.579  1.00  0.00     0.009 A 
HETATM   22  C10 UNL     1      28.356  -1.133  53.322  1.00  0.00     0.001 A 
HETATM   23  C11 UNL     1      29.297  -0.431  54.043  1.00  0.00     0.000 A 
HETATM   24  C12 UNL     1      29.239   0.962  54.026  1.00  0.00     0.001 A 
HETATM   25  C13 UNL     1      28.229   1.569  53.276  1.00  0.00     0.009 A 
ENDBRANCH   7  20
BRANCH   1  26
HETATM   26  O1  UNL     1      20.445   3.646  52.026  1.00  0.00    -0.351 OA
HETATM   27  C1  UNL     1      19.388   2.771  51.972  1.00  0.00     0.210 C 
ENDBRANCH   1  26
TORSDOF 2
ENDMDL
MODEL 4
REMARK VINA RESULT:      -8.4      3.279      5.209
REMARK  2 active torsions:
REMARK  status: ('A' for Active; 'I' for Inactive)
REMARK    1  A    between atoms: O1_2  and  C2_3 
REMARK    2  A    between atoms: C7_9  and  C8_10 
ROOT
HETATM    1  C2  UNL     1      19.727   1.733  51.934  1.00  0.00     0.123 C 
HETATM    2  C3  UNL     1      20.954   2.319  52.117  1.00  0.00     0.047 C 
HETATM    3  C4  UNL     1      21.882   1.466  52.819  1.00  0.00     0.067 C 
HETATM    4  C5  UNL     1      23.318   1.317  52.574  1.00  0.00    -0.019 C 
HETATM    5  C6  UNL     1      24.438   1.759  51.879  1.00  0.00     0.138 C 
HETATM    6  N1  UNL     1      25.260   2.546  50.953  1.00  0.00    -0.405 N 
HETATM    7  C7  UNL     1      24.674   3.898  50.794  1.00  0.00     0.130 C 
HETATM    8  C14 UNL     1      23.413   3.748  49.985  1.00  0.00     0.179 C 
HETATM    9  N2  UNL     1      22.601   4.971  50.139  1.00  0.00    -0.282 NA
HETATM   10  C15 UNL     1      21.550   4.816  50.969  1.00  0.00     0.201 C 
HETATM   11  N3  UNL     1      21.272   3.582  51.622  1.00  0.00    -0.352 N 
HETATM   12  C16 UNL     1      23.783   0.143  53.461  1.00  0.00     0.017 C 
HETATM   13  C17 UNL     1      22.816  -1.038  53.334  1.00  0.00     0.105 C 
HETATM   14  C18 UNL     1      21.500  -0.858  54.007  1.00  0.00     0.242 C 
HETATM   15  O2  UNL     1      21.516  -0.567  55.256  1.00  0.00    -0.271 OA
HETATM   16  N4  UNL     1      20.198  -0.975  53.427  1.00  0.00    -0.213 NA
HETATM   17  P1  UNL     1      19.335   0.046  52.531  1.00  0.00     0.130 P 
HETATM   18  H7  UNL     1      25.660   1.601  51.070  1.00  0.00     0.154 HD
HETATM   19  H17 UNL     1      20.945   3.274  50.651  1.00  0.00     0.166 HD
ENDROOT
BRANCH   7  20
HETATM   20  C8  UNL     1      25.602   4.763  50.019  1.00  0.00    -0.034 A 
HETATM   21  C9  UNL     1      25.526   6.132  49.885  1.00  0.00     0.009 A 
HETATM   22  C10 UNL     1      26.492   6.743  49.117  1.00  0.00     0.001 A 
HETATM   23  C11 UNL     1      27.516   6.072  48.486  1.00  0.00     0.000 A 
HETATM   24  C12 UNL     1      27.585   4.686  48.626  1.00  0.00     0.001 A 
HETATM   25  C13 UNL     1      26.610   4.055  49.403  1.00  0.00     0.009 A 
ENDBRANCH   7  20
BRANCH   1  26
HETATM   26  O1  UNL     1      18.704   2.307  51.318  1.00  0.00    -0.351 OA
HETATM   27  C1  UNL     1      17.808   3.313  51.590  1.00  0.00     0.210 C 
ENDBRANCH   1  26
TORSDOF 2
ENDMDL
MODEL 5
REMARK VINA RESULT:      -8.3      2.943      6.376
REMARK  2 active torsions:
REMARK  status: ('A' for Active; 'I' for Inactive)
REMARK    1  A    between atoms: O1_2  and  C2_3 
REMARK    2  A    between atoms: C7_9  and  C8_10 
ROOT
HETATM    1  C2  UNL     1      22.386   1.713  52.737  1.00  0.00     0.123 C 
HETATM    2  C3  UNL     1      23.438   2.546  52.448  1.00  0.00     0.047 C 
HETATM    3  C4  UNL     1      24.719   1.899  52.593  1.00  0.00     0.067 C 
HETATM    4  C5  UNL     1      25.905   2.068  51.750  1.00  0.00    -0.019 C 
HETATM    5  C6  UNL     1      26.506   2.754  50.700  1.00  0.00     0.138 C 
HETATM    6  N1  UNL     1      26.680   3.717  49.608  1.00  0.00    -0.405 N 
HETATM    7  C7  UNL     1      25.844   4.914  49.862  1.00  0.00     0.130 C 
HETATM    8  C14 UNL     1      24.409   4.511  49.650  1.00  0.00     0.179 C 
HETATM    9  N2  UNL     1      23.534   5.528  50.267  1.00  0.00    -0.282 NA
HETATM   10  C15 UNL     1      22.999   5.134  51.440  1.00  0.00     0.201 C 
HETATM   11  N3  UNL     1      23.268   3.857  52.008  1.00  0.00    -0.352 N 
HETATM   12  C16 UNL     1      26.919   1.004  52.221  1.00  0.00     0.017 C 
HETATM   13  C17 UNL     1      26.231  -0.355  52.384  1.00  0.00     0.105 C 
HETATM   14  C18 UNL     1      25.332  -0.475  53.566  1.00  0.00     0.242 C 
HETATM   15  O2  UNL     1      25.837  -0.212  54.715  1.00  0.00    -0.271 OA
HETATM   16  N4  UNL     1      23.954  -0.858  53.581  1.00  0.00    -0.213 NA
HETATM   17  P1  UNL     1      22.615  -0.029  53.252  1.00  0.00     0.130 P 
HETATM   18  H7  UNL     1      27.258   2.878  49.439  1.00  0.00     0.154 HD
HETATM   19  H17 UNL     1      22.614   3.505  51.238  1.00  0.00     0.166 HD
ENDROOT
BRANCH   7  20
HETATM   20  C8  UNL     1      26.162   5.973  48.869  1.00  0.00    -0.034 A 
HETATM   21  C9  UNL     1      25.266   6.831  48.270  1.00  0.00     0.009 A 
HETATM   22  C10 UNL     1      25.774   7.744  47.373  1.00  0.00     0.001 A 
HETATM   23  C11 UNL     1      27.108   7.846  47.045  1.00  0.00     0.000 A 
HETATM   24  C12 UNL     1      28.008   6.973  47.656  1.00  0.00     0.001 A 
HETATM   25  C13 UNL     1      27.505   6.042  48.568  1.00  0.00     0.009 A 
ENDBRANCH   7  20
BRANCH   1  26
HETATM   26  O1  UNL     1      21.110   2.066  52.678  1.00  0.00    -0.351 OA
HETATM   27  C1  UNL     1      20.110   2.053  51.736  1.00  0.00     0.210 C 
ENDBRANCH   1  26
TORSDOF 2
ENDMDL
MODEL 6
REMARK VINA RESULT:      -8.0      3.181      7.116
REMARK  2 active torsions:
REMARK  status: ('A' for Active; 'I' for Inactive)
REMARK    1  A    between atoms: O1_2  and  C2_3 
REMARK    2  A    between atoms: C7_9  and  C8_10 
ROOT
HETATM    1  C2  UNL     1      25.752   2.322  51.898  1.00  0.00     0.123 C 
HETATM    2  C3  UNL     1      24.766   1.368  51.922  1.00  0.00     0.047 C 
HETATM    3  C4  UNL     1      24.971   0.378  52.950  1.00  0.00     0.067 C 
HETATM    4  C5  UNL     1      23.954  -0.260  53.790  1.00  0.00    -0.019 C 
HETATM    5  C6  UNL     1      22.601  -0.434  54.060  1.00  0.00     0.138 C 
HETATM    6  N1  UNL     1      21.146  -0.296  53.939  1.00  0.00    -0.405 N 
HETATM    7  C7  UNL     1      20.789  -0.008  52.530  1.00  0.00     0.130 C 
HETATM    8  C14 UNL     1      21.226   1.403  52.236  1.00  0.00     0.179 C 
HETATM    9  N2  UNL     1      21.261   1.594  50.772  1.00  0.00    -0.282 NA
HETATM   10  C15 UNL     1      22.508   1.581  50.259  1.00  0.00     0.201 C 
HETATM   11  N3  UNL     1      23.662   1.398  51.072  1.00  0.00    -0.352 N 
HETATM   12  C16 UNL     1      24.725  -1.077  54.847  1.00  0.00     0.017 C 
HETATM   13  C17 UNL     1      25.858  -0.240  55.449  1.00  0.00     0.105 C 
HETATM   14  C18 UNL     1      27.028  -0.017  54.554  1.00  0.00     0.242 C 
HETATM   15  O2  UNL     1      27.598  -1.057  54.066  1.00  0.00    -0.271 OA
HETATM   16  N4  UNL     1      27.608   1.231  54.167  1.00  0.00    -0.213 NA
HETATM   17  P1  UNL     1      27.167   2.313  53.060  1.00  0.00     0.130 P 
HETATM   18  H7  UNL     1      21.405  -0.496  54.918  1.00  0.00     0.154 HD
HETATM   19  H17 UNL     1      23.466   2.405  51.377  1.00  0.00     0.166 HD
ENDROOT
BRANCH   7  20
HETATM   20  C8  UNL     1      19.313  -0.064  52.360  1.00  0.00    -0.034 A 
HETATM   21  C9  UNL     1      18.559   0.696  51.492  1.00  0.00     0.009 A 
HETATM   22  C10 UNL     1      17.198   0.486  51.494  1.00  0.00     0.001 A 
HETATM   23  C11 UNL     1      16.558  -0.427  52.303  1.00  0.00     0.000 A 
HETATM   24  C12 UNL     1      17.329  -1.191  53.178  1.00  0.00     0.001 A 
HETATM   25  C13 UNL     1      18.711  -0.987  53.186  1.00  0.00     0.009 A 
ENDBRANCH   7  20
BRANCH   1  26
HETATM   26  O1  UNL     1      25.795   3.339  51.049  1.00  0.00    -0.351 OA
HETATM   27  C1  UNL     1      26.222   3.550  49.760  1.00  0.00     0.210 C 
ENDBRANCH   1  26
TORSDOF 2
ENDMDL
MODEL 7
REMARK VINA RESULT:      -7.9      2.705      7.213
REMARK  2 active torsions:
REMARK  status: ('A' for Active; 'I' for Inactive)
REMARK    1  A    between atoms: O1_2  and  C2_3 
REMARK    2  A    between atoms: C7_9  and  C8_10 
ROOT
HETATM    1  C2  UNL     1      23.025   0.425  53.401  1.00  0.00     0.123 C 
HETATM    2  C3  UNL     1      23.488   1.612  52.894  1.00  0.00     0.047 C 
HETATM    3  C4  UNL     1      24.927   1.706  52.916  1.00  0.00     0.067 C 
HETATM    4  C5  UNL     1      25.798   2.306  51.903  1.00  0.00    -0.019 C 
HETATM    5  C6  UNL     1      25.890   3.034  50.721  1.00  0.00     0.138 C 
HETATM    6  N1  UNL     1      25.471   3.785  49.533  1.00  0.00    -0.405 N 
HETATM    7  C7  UNL     1      24.168   4.441  49.793  1.00  0.00     0.130 C 
HETATM    8  C14 UNL     1      23.120   3.361  49.821  1.00  0.00     0.179 C 
HETATM    9  N2  UNL     1      21.902   3.898  50.461  1.00  0.00    -0.282 NA
HETATM   10  C15 UNL     1      21.730   3.472  51.728  1.00  0.00     0.201 C 
HETATM   11  N3  UNL     1      22.648   2.591  52.366  1.00  0.00    -0.352 N 
HETATM   12  C16 UNL     1      27.242   1.959  52.321  1.00  0.00     0.017 C 
HETATM   13  C17 UNL     1      27.348   0.479  52.701  1.00  0.00     0.105 C 
HETATM   14  C18 UNL     1      26.725   0.110  54.003  1.00  0.00     0.242 C 
HETATM   15  O2  UNL     1      27.114   0.754  55.041  1.00  0.00    -0.271 OA
HETATM   16  N4  UNL     1      25.733  -0.891  54.246  1.00  0.00    -0.213 NA
HETATM   17  P1  UNL     1      24.138  -0.884  54.035  1.00  0.00     0.130 P 
HETATM   18  H7  UNL     1      26.378   3.322  49.362  1.00  0.00     0.154 HD
HETATM   19  H17 UNL     1      22.204   1.853  51.730  1.00  0.00     0.166 HD
ENDROOT
BRANCH   7  20
HETATM   20  C8  UNL     1      23.833   5.360  48.674  1.00  0.00    -0.034 A 
HETATM   21  C9  UNL     1      22.804   5.211  47.770  1.00  0.00     0.009 A 
HETATM   22  C10 UNL     1      22.669   6.183  46.805  1.00  0.00     0.001 A 
HETATM   23  C11 UNL     1      23.492   7.281  46.694  1.00  0.00     0.000 A 
HETATM   24  C12 UNL     1      24.532   7.425  47.612  1.00  0.00     0.001 A 
HETATM   25  C13 UNL     1      24.680   6.445  48.596  1.00  0.00     0.009 A 
ENDBRANCH   7  20
BRANCH   1  26
HETATM   26  O1  UNL     1      21.744   0.094  53.491  1.00  0.00    -0.351 OA
HETATM   27  C1  UNL     1      20.737   0.231  54.415  1.00  0.00     0.210 C 
ENDBRANCH   1  26
TORSDOF 2
ENDMDL
MODEL 8
REMARK VINA RESULT:      -7.6      5.133      8.393
REMARK  2 active torsions:
REMARK  status: ('A' for Active; 'I' for Inactive)
REMARK    1  A    between atoms: O1_2  and  C2_3 
REMARK    2  A    between atoms: C7_9  and  C8_10 
ROOT
HETATM    1  C2  UNL     1      27.092   9.279  48.549  1.00  0.00     0.123 C 
HETATM    2  C3  UNL     1      26.720   7.994  48.241  1.00  0.00     0.047 C 
HETATM    3  C4  UNL     1      27.847   7.133  47.982  1.00  0.00     0.067 C 
HETATM    4  C5  UNL     1      28.002   5.727  48.362  1.00  0.00    -0.019 C 
HETATM    5  C6  UNL     1      27.415   4.592  48.912  1.00  0.00     0.138 C 
HETATM    6  N1  UNL     1      26.399   3.728  49.521  1.00  0.00    -0.405 N 
HETATM    7  C7  UNL     1      25.049   4.183  49.113  1.00  0.00     0.130 C 
HETATM    8  C14 UNL     1      24.776   5.478  49.830  1.00  0.00     0.179 C 
HETATM    9  N2  UNL     1      23.647   6.160  49.166  1.00  0.00    -0.282 NA
HETATM   10  C15 UNL     1      24.028   7.194  48.388  1.00  0.00     0.201 C 
HETATM   11  N3  UNL     1      25.393   7.570  48.237  1.00  0.00    -0.352 N 
HETATM   12  C16 UNL     1      29.459   5.351  48.024  1.00  0.00     0.017 C 
HETATM   13  C17 UNL     1      30.421   6.433  48.525  1.00  0.00     0.105 C 
HETATM   14  C18 UNL     1      30.412   7.703  47.746  1.00  0.00     0.242 C 
HETATM   15  O2  UNL     1      30.628   7.617  46.485  1.00  0.00    -0.271 OA
HETATM   16  N4  UNL     1      30.194   9.028  48.236  1.00  0.00    -0.213 NA
HETATM   17  P1  UNL     1      28.842   9.815  48.614  1.00  0.00     0.130 P 
HETATM   18  H7  UNL     1      27.344   3.420  49.801  1.00  0.00     0.154 HD
HETATM   19  H17 UNL     1      25.275   7.957  49.228  1.00  0.00     0.166 HD
ENDROOT
BRANCH   7  20
HETATM   20  C8  UNL     1      24.027   3.200  49.561  1.00  0.00    -0.034 A 
HETATM   21  C9  UNL     1      22.964   2.729  48.822  1.00  0.00     0.009 A 
HETATM   22  C10 UNL     1      22.131   1.817  49.430  1.00  0.00     0.001 A 
HETATM   23  C11 UNL     1      22.298   1.356  50.717  1.00  0.00     0.000 A 
HETATM   24  C12 UNL     1      23.376   1.839  51.459  1.00  0.00     0.001 A 
HETATM   25  C13 UNL     1      24.229   2.765  50.852  1.00  0.00     0.009 A 
ENDBRANCH   7  20
BRANCH   1  26
HETATM   26  O1  UNL     1      26.246  10.260  48.828  1.00  0.00    -0.351 OA
HETATM   27  C1  UNL     1      25.687  11.321  48.157  1.00  0.00     0.210 C 
ENDBRANCH   1  26
TORSDOF 2
ENDMDL
MODEL 9
REMARK VINA RESULT:      -7.3      3.900      5.922
REMARK  2 active torsions:
REMARK  status: ('A' for Active; 'I' for Inactive)
REMARK    1  A    between atoms: O1_2  and  C2_3 
REMARK    2  A    between atoms: C7_9  and  C8_10 
ROOT
HETATM    1  C2  UNL     1      22.056   4.649  46.944  1.00  0.00     0.123 C 
HETATM    2  C3  UNL     1      22.644   3.986  47.992  1.00  0.00     0.047 C 
HETATM    3  C4  UNL     1      23.570   4.812  48.727  1.00  0.00     0.067 C 
HETATM    4  C5  UNL     1      23.790   4.835  50.175  1.00  0.00    -0.019 C 
HETATM    5  C6  UNL     1      23.507   4.263  51.410  1.00  0.00     0.138 C 
HETATM    6  N1  UNL     1      22.926   3.354  52.404  1.00  0.00    -0.405 N 
HETATM    7  C7  UNL     1      22.644   2.042  51.774  1.00  0.00     0.130 C 
HETATM    8  C14 UNL     1      21.470   2.231  50.851  1.00  0.00     0.179 C 
HETATM    9  N2  UNL     1      21.408   1.086  49.921  1.00  0.00    -0.282 NA
HETATM   10  C15 UNL     1      21.852   1.377  48.681  1.00  0.00     0.201 C 
HETATM   11  N3  UNL     1      22.330   2.671  48.329  1.00  0.00    -0.352 N 
HETATM   12  C16 UNL     1      24.729   6.029  50.445  1.00  0.00     0.017 C 
HETATM   13  C17 UNL     1      24.251   7.268  49.683  1.00  0.00     0.105 C 
HETATM   14  C18 UNL     1      24.476   7.236  48.210  1.00  0.00     0.242 C 
HETATM   15  O2  UNL     1      25.675   7.031  47.806  1.00  0.00    -0.271 OA
HETATM   16  N4  UNL     1      23.507   7.410  47.173  1.00  0.00    -0.213 NA
HETATM   17  P1  UNL     1      22.426   6.397  46.545  1.00  0.00     0.130 P 
HETATM   18  H7  UNL     1      23.124   4.271  52.833  1.00  0.00     0.154 HD
HETATM   19  H17 UNL     1      21.293   2.935  48.354  1.00  0.00     0.166 HD
ENDROOT
BRANCH   7  20
HETATM   20  C8  UNL     1      22.243   1.058  52.813  1.00  0.00    -0.034 A 
HETATM   21  C9  UNL     1      21.005   0.955  53.409  1.00  0.00     0.009 A 
HETATM   22  C10 UNL     1      20.844  -0.034  54.355  1.00  0.00     0.001 A 
HETATM   23  C11 UNL     1      21.836  -0.912  54.731  1.00  0.00     0.000 A 
HETATM   24  C12 UNL     1      23.086  -0.800  54.123  1.00  0.00     0.001 A 
HETATM   25  C13 UNL     1      23.262   0.199  53.162  1.00  0.00     0.009 A 
ENDBRANCH   7  20
BRANCH   1  26
HETATM   26  O1  UNL     1      21.170   4.112  46.117  1.00  0.00    -0.351 OA
HETATM   27  C1  UNL     1      21.053   3.923  44.762  1.00  0.00     0.210 C 
ENDBRANCH   1  26
TORSDOF 2
ENDMDL
