MODEL 1
REMARK VINA RESULT:      -8.9      0.000      0.000
REMARK  5 active torsions:
REMARK  status: ('A' for Active; 'I' for Inactive)
REMARK    1  A    between atoms: O1_2  and  C2_3 
REMARK    2  A    between atoms: C6_9  and  N3_10 
REMARK    3  A    between atoms: C10_14  and  C11_15 
REMARK    4  A    between atoms: C18_24  and  O2_25 
REMARK    5  A    between atoms: C22_29  and  O3_30 
ROOT
HETATM    1  N3  UNL     1      21.484   0.465  53.198  1.00  0.00    -0.310 N 
HETATM    2  C7  UNL     1      21.012  -0.539  54.087  1.00  0.00     0.096 A 
HETATM    3  C8  UNL     1      21.911  -1.236  54.741  1.00  0.00     0.018 A 
HETATM    4  C9  UNL     1      23.332  -0.976  54.555  1.00  0.00     0.016 A 
HETATM    5  C10 UNL     1      23.759  -0.038  53.732  1.00  0.00     0.026 A 
HETATM    6  C18 UNL     1      22.871   0.835  52.952  1.00  0.00     0.265 A 
ENDROOT
BRANCH   1   7
HETATM    7  C6  UNL     1      20.428   1.158  52.496  1.00  0.00     0.133 C 
HETATM    8  N2  UNL     1      19.370   1.116  51.678  1.00  0.00    -0.224 NA
HETATM    9  C5  UNL     1      19.414   1.233  50.344  1.00  0.00     0.234 C 
HETATM   10  N1  UNL     1      20.218   1.523  49.300  1.00  0.00    -0.254 NA
HETATM   11  C4  UNL     1      19.872   2.450  48.380  1.00  0.00     0.121 C 
HETATM   12  C3  UNL     1      19.099   3.564  48.628  1.00  0.00     0.059 C 
HETATM   13  C2  UNL     1      19.063   4.232  49.832  1.00  0.00     0.102 C 
HETATM   14  C22 UNL     1      20.029   4.430  50.773  1.00  0.00     0.101 C 
HETATM   15  C21 UNL     1      20.528   3.530  51.682  1.00  0.00     0.043 C 
HETATM   16  C20 UNL     1      20.297   2.526  52.600  1.00  0.00     0.053 C 
BRANCH  13  17
HETATM   17  O1  UNL     1      17.994   4.881  50.382  1.00  0.00    -0.353 OA
HETATM   18  C1  UNL     1      16.932   4.198  51.012  1.00  0.00     0.210 C 
ENDBRANCH  13  17
BRANCH  14  19
HETATM   19  O3  UNL     1      20.668   5.668  50.931  1.00  0.00    -0.353 OA
HETATM   20  C23 UNL     1      22.035   5.746  51.291  1.00  0.00     0.210 C 
ENDBRANCH  14  19
ENDBRANCH   1   7
BRANCH   6  21
HETATM   21  O2  UNL     1      23.222   0.798  51.626  1.00  0.00    -0.367 OA
HETATM   22  C19 UNL     1      23.748   1.932  51.077  1.00  0.00     0.204 C 
ENDBRANCH   6  21
BRANCH   5  23
HETATM   23  C11 UNL     1      25.240   0.027  53.719  1.00  0.00     0.109 A 
HETATM   24  N4  UNL     1      26.040  -0.841  53.474  1.00  0.00    -0.240 NA
HETATM   25  C12 UNL     1      27.349  -0.714  53.477  1.00  0.00     0.075 A 
HETATM   26  C13 UNL     1      28.257  -1.714  53.194  1.00  0.00     0.033 A 
HETATM   27  C17 UNL     1      27.887   0.532  53.791  1.00  0.00     0.035 A 
HETATM   28  C14 UNL     1      29.591  -1.388  53.249  1.00  0.00     0.002 A 
HETATM   29  C15 UNL     1      30.140  -0.182  53.552  1.00  0.00     0.002 A 
HETATM   30  C16 UNL     1      29.270   0.846  53.842  1.00  0.00     0.021 A 
HETATM   31  S1  UNL     1      26.311   1.429  54.062  1.00  0.00    -0.068 SA
ENDBRANCH   5  23
TORSDOF 5
ENDMDL
MODEL 2
REMARK VINA RESULT:      -8.5      1.712      2.194
REMARK  5 active torsions:
REMARK  status: ('A' for Active; 'I' for Inactive)
REMARK    1  A    between atoms: O1_2  and  C2_3 
REMARK    2  A    between atoms: C6_9  and  N3_10 
REMARK    3  A    between atoms: C10_14  and  C11_15 
REMARK    4  A    between atoms: C18_24  and  O2_25 
REMARK    5  A    between atoms: C22_29  and  O3_30 
ROOT
HETATM    1  N3  UNL     1      21.808   1.905  52.432  1.00  0.00    -0.310 N 
HETATM    2  C7  UNL     1      20.955   0.980  53.092  1.00  0.00     0.096 A 
HETATM    3  C8  UNL     1      21.522  -0.030  53.709  1.00  0.00     0.018 A 
HETATM    4  C9  UNL     1      22.971  -0.181  53.709  1.00  0.00     0.016 A 
HETATM    5  C10 UNL     1      23.754   0.687  53.099  1.00  0.00     0.026 A 
HETATM    6  C18 UNL     1      23.264   1.876  52.389  1.00  0.00     0.265 A 
ENDROOT
BRANCH   1   7
HETATM    7  C6  UNL     1      21.098   2.964  51.752  1.00  0.00     0.133 C 
HETATM    8  N2  UNL     1      20.188   3.343  50.848  1.00  0.00    -0.224 NA
HETATM    9  C5  UNL     1      20.436   3.598  49.556  1.00  0.00     0.234 C 
HETATM   10  N1  UNL     1      21.418   3.752  48.644  1.00  0.00    -0.254 NA
HETATM   11  C4  UNL     1      21.476   4.842  47.848  1.00  0.00     0.121 C 
HETATM   12  C3  UNL     1      21.033   6.101  48.193  1.00  0.00     0.059 C 
HETATM   13  C2  UNL     1      21.036   6.601  49.476  1.00  0.00     0.102 C 
HETATM   14  C22 UNL     1      21.887   6.383  50.518  1.00  0.00     0.101 C 
HETATM   15  C21 UNL     1      21.983   5.273  51.320  1.00  0.00     0.043 C 
HETATM   16  C20 UNL     1      21.355   4.285  52.052  1.00  0.00     0.053 C 
BRANCH  13  17
HETATM   17  O1  UNL     1      20.137   7.474  50.022  1.00  0.00    -0.353 OA
HETATM   18  C1  UNL     1      19.874   8.743  49.461  1.00  0.00     0.210 C 
ENDBRANCH  13  17
BRANCH  14  19
HETATM   19  O3  UNL     1      22.830   7.340  50.917  1.00  0.00    -0.353 OA
HETATM   20  C23 UNL     1      24.168   6.976  51.203  1.00  0.00     0.210 C 
ENDBRANCH  14  19
ENDBRANCH   1   7
BRANCH   6  21
HETATM   21  O2  UNL     1      23.776   1.909  51.117  1.00  0.00    -0.367 OA
HETATM   22  C19 UNL     1      24.686   2.884  50.823  1.00  0.00     0.204 C 
ENDBRANCH   6  21
BRANCH   5  23
HETATM   23  C11 UNL     1      25.182   0.312  53.243  1.00  0.00     0.109 A 
HETATM   24  N4  UNL     1      25.724  -0.736  52.997  1.00  0.00    -0.240 NA
HETATM   25  C12 UNL     1      27.003  -1.003  53.146  1.00  0.00     0.075 A 
HETATM   26  C13 UNL     1      27.615  -2.206  52.859  1.00  0.00     0.033 A 
HETATM   27  C17 UNL     1      27.830   0.006  53.634  1.00  0.00     0.035 A 
HETATM   28  C14 UNL     1      28.969  -2.293  53.082  1.00  0.00     0.002 A 
HETATM   29  C15 UNL     1      29.797  -1.325  53.557  1.00  0.00     0.002 A 
HETATM   30  C16 UNL     1      29.228  -0.107  53.857  1.00  0.00     0.021 A 
HETATM   31  S1  UNL     1      26.556   1.309  53.830  1.00  0.00    -0.068 SA
ENDBRANCH   5  23
TORSDOF 5
ENDMDL
MODEL 3
REMARK VINA RESULT:      -8.3      2.224      3.365
REMARK  5 active torsions:
REMARK  status: ('A' for Active; 'I' for Inactive)
REMARK    1  A    between atoms: O1_2  and  C2_3 
REMARK    2  A    between atoms: C6_9  and  N3_10 
REMARK    3  A    between atoms: C10_14  and  C11_15 
REMARK    4  A    between atoms: C18_24  and  O2_25 
REMARK    5  A    between atoms: C22_29  and  O3_30 
ROOT
HETATM    1  N3  UNL     1      20.790   0.558  52.296  1.00  0.00    -0.310 N 
HETATM    2  C7  UNL     1      20.355  -0.421  53.229  1.00  0.00     0.096 A 
HETATM    3  C8  UNL     1      21.256  -0.924  54.039  1.00  0.00     0.018 A 
HETATM    4  C9  UNL     1      22.642  -0.482  53.975  1.00  0.00     0.016 A 
HETATM    5  C10 UNL     1      23.034   0.432  53.109  1.00  0.00     0.026 A 
HETATM    6  C18 UNL     1      22.136   1.099  52.157  1.00  0.00     0.265 A 
ENDROOT
BRANCH   1   7
HETATM    7  C6  UNL     1      19.741   1.031  51.422  1.00  0.00     0.133 C 
HETATM    8  N2  UNL     1      19.286   1.950  50.562  1.00  0.00    -0.224 NA
HETATM    9  C5  UNL     1      18.575   3.037  50.892  1.00  0.00     0.234 C 
HETATM   10  N1  UNL     1      17.927   3.651  51.902  1.00  0.00    -0.254 NA
HETATM   11  C4  UNL     1      16.649   4.071  51.770  1.00  0.00     0.121 C 
HETATM   12  C3  UNL     1      15.697   3.472  50.973  1.00  0.00     0.059 C 
HETATM   13  C2  UNL     1      15.658   2.126  50.687  1.00  0.00     0.102 C 
HETATM   14  C22 UNL     1      16.021   1.043  51.431  1.00  0.00     0.101 C 
HETATM   15  C21 UNL     1      17.287   0.593  51.716  1.00  0.00     0.043 C 
HETATM   16  C20 UNL     1      18.569   0.318  51.284  1.00  0.00     0.053 C 
BRANCH  13  17
HETATM   17  O1  UNL     1      15.222   1.541  49.531  1.00  0.00    -0.353 OA
HETATM   18  C1  UNL     1      15.956   1.599  48.327  1.00  0.00     0.210 C 
ENDBRANCH  13  17
BRANCH  14  19
HETATM   19  O3  UNL     1      15.073   0.205  52.033  1.00  0.00    -0.353 OA
HETATM   20  C23 UNL     1      14.298   0.646  53.133  1.00  0.00     0.210 C 
ENDBRANCH  14  19
ENDBRANCH   1   7
BRANCH   6  21
HETATM   21  O2  UNL     1      22.639   0.998  50.885  1.00  0.00    -0.367 OA
HETATM   22  C19 UNL     1      22.969   2.155  50.238  1.00  0.00     0.204 C 
ENDBRANCH   6  21
BRANCH   5  23
HETATM   23  C11 UNL     1      24.486   0.706  53.241  1.00  0.00     0.109 A 
HETATM   24  N4  UNL     1      25.409  -0.069  53.271  1.00  0.00    -0.240 NA
HETATM   25  C12 UNL     1      26.681   0.243  53.389  1.00  0.00     0.075 A 
HETATM   26  C13 UNL     1      27.731  -0.652  53.421  1.00  0.00     0.033 A 
HETATM   27  C17 UNL     1      27.020   1.590  53.489  1.00  0.00     0.035 A 
HETATM   28  C14 UNL     1      28.997  -0.133  53.549  1.00  0.00     0.002 A 
HETATM   29  C15 UNL     1      29.354   1.175  53.648  1.00  0.00     0.002 A 
HETATM   30  C16 UNL     1      28.336   2.103  53.620  1.00  0.00     0.021 A 
HETATM   31  S1  UNL     1      25.327   2.287  53.394  1.00  0.00    -0.068 SA
ENDBRANCH   5  23
TORSDOF 5
ENDMDL
MODEL 4
REMARK VINA RESULT:      -8.0      6.471      8.907
REMARK  5 active torsions:
REMARK  status: ('A' for Active; 'I' for Inactive)
REMARK    1  A    between atoms: O1_2  and  C2_3 
REMARK    2  A    between atoms: C6_9  and  N3_10 
REMARK    3  A    between atoms: C10_14  and  C11_15 
REMARK    4  A    between atoms: C18_24  and  O2_25 
REMARK    5  A    between atoms: C22_29  and  O3_30 
ROOT
HETATM    1  N3  UNL     1      26.190   6.217  49.076  1.00  0.00    -0.310 N 
HETATM    2  C7  UNL     1      27.417   5.656  48.628  1.00  0.00     0.096 A 
HETATM    3  C8  UNL     1      27.589   4.367  48.800  1.00  0.00     0.018 A 
HETATM    4  C9  UNL     1      26.554   3.556  49.425  1.00  0.00     0.016 A 
HETATM    5  C10 UNL     1      25.416   4.086  49.832  1.00  0.00     0.026 A 
HETATM    6  C18 UNL     1      25.073   5.506  49.684  1.00  0.00     0.265 A 
ENDROOT
BRANCH   1   7
HETATM    7  C6  UNL     1      26.101   7.645  48.877  1.00  0.00     0.133 C 
HETATM    8  N2  UNL     1      25.510   8.690  48.285  1.00  0.00    -0.224 NA
HETATM    9  C5  UNL     1      25.880   9.231  47.116  1.00  0.00     0.234 C 
HETATM   10  N1  UNL     1      26.833   9.219  46.162  1.00  0.00    -0.254 NA
HETATM   11  C4  UNL     1      27.432  10.357  45.748  1.00  0.00     0.121 C 
HETATM   12  C3  UNL     1      27.649  11.469  46.533  1.00  0.00     0.059 C 
HETATM   13  C2  UNL     1      27.866  11.430  47.893  1.00  0.00     0.102 C 
HETATM   14  C22 UNL     1      28.481  10.496  48.673  1.00  0.00     0.101 C 
HETATM   15  C21 UNL     1      28.006   9.268  49.063  1.00  0.00     0.043 C 
HETATM   16  C20 UNL     1      26.961   8.500  49.533  1.00  0.00     0.053 C 
BRANCH  13  17
HETATM   17  O1  UNL     1      27.494  12.369  48.813  1.00  0.00    -0.353 OA
HETATM   18  C1  UNL     1      27.537  13.754  48.546  1.00  0.00     0.210 C 
ENDBRANCH  13  17
BRANCH  14  19
HETATM   19  O3  UNL     1      29.760  10.701  49.206  1.00  0.00    -0.353 OA
HETATM   20  C23 UNL     1      30.663   9.625  49.381  1.00  0.00     0.210 C 
ENDBRANCH  14  19
ENDBRANCH   1   7
BRANCH   6  21
HETATM   21  O2  UNL     1      24.687   6.026  50.894  1.00  0.00    -0.367 OA
HETATM   22  C19 UNL     1      23.417   6.516  50.999  1.00  0.00     0.204 C 
ENDBRANCH   6  21
BRANCH   5  23
HETATM   23  C11 UNL     1      24.533   3.057  50.434  1.00  0.00     0.109 A 
HETATM   24  N4  UNL     1      24.753   2.301  51.346  1.00  0.00    -0.240 NA
HETATM   25  C12 UNL     1      23.920   1.409  51.835  1.00  0.00     0.075 A 
HETATM   26  C13 UNL     1      24.181   0.549  52.881  1.00  0.00     0.033 A 
HETATM   27  C17 UNL     1      22.655   1.310  51.260  1.00  0.00     0.035 A 
HETATM   28  C14 UNL     1      23.178  -0.316  53.251  1.00  0.00     0.002 A 
HETATM   29  C15 UNL     1      21.938  -0.432  52.708  1.00  0.00     0.002 A 
HETATM   30  C16 UNL     1      21.634   0.408  51.660  1.00  0.00     0.021 A 
HETATM   31  S1  UNL     1      22.848   2.618  49.990  1.00  0.00    -0.068 SA
ENDBRANCH   5  23
TORSDOF 5
ENDMDL
MODEL 5
REMARK VINA RESULT:      -7.8      1.804      3.070
REMARK  5 active torsions:
REMARK  status: ('A' for Active; 'I' for Inactive)
REMARK    1  A    between atoms: O1_2  and  C2_3 
REMARK    2  A    between atoms: C6_9  and  N3_10 
REMARK    3  A    between atoms: C10_14  and  C11_15 
REMARK    4  A    between atoms: C18_24  and  O2_25 
REMARK    5  A    between atoms: C22_29  and  O3_30 
ROOT
HETATM    1  N3  UNL     1      21.920   1.881  51.963  1.00  0.00    -0.310 N 
HETATM    2  C7  UNL     1      22.136   3.065  51.207  1.00  0.00     0.096 A 
HETATM    3  C8  UNL     1      23.378   3.387  50.934  1.00  0.00     0.018 A 
HETATM    4  C9  UNL     1      24.480   2.553  51.391  1.00  0.00     0.016 A 
HETATM    5  C10 UNL     1      24.268   1.453  52.087  1.00  0.00     0.026 A 
HETATM    6  C18 UNL     1      22.934   0.954  52.448  1.00  0.00     0.265 A 
ENDROOT
BRANCH   1   7
HETATM    7  C6  UNL     1      20.527   1.622  52.247  1.00  0.00     0.133 C 
HETATM    8  N2  UNL     1      19.554   0.749  52.535  1.00  0.00    -0.224 NA
HETATM    9  C5  UNL     1      18.792   0.112  51.636  1.00  0.00     0.234 C 
HETATM   10  N1  UNL     1      18.476   0.043  50.327  1.00  0.00    -0.254 NA
HETATM   11  C4  UNL     1      17.193   0.097  49.907  1.00  0.00     0.121 C 
HETATM   12  C3  UNL     1      16.179   0.784  50.541  1.00  0.00     0.059 C 
HETATM   13  C2  UNL     1      16.361   1.939  51.269  1.00  0.00     0.102 C 
HETATM   14  C22 UNL     1      17.247   2.963  51.115  1.00  0.00     0.101 C 
HETATM   15  C21 UNL     1      18.589   2.978  51.408  1.00  0.00     0.043 C 
HETATM   16  C20 UNL     1      19.613   2.654  52.274  1.00  0.00     0.053 C 
BRANCH  13  17
HETATM   17  O1  UNL     1      15.656   2.338  52.369  1.00  0.00    -0.353 OA
HETATM   18  C1  UNL     1      14.357   1.862  52.653  1.00  0.00     0.210 C 
ENDBRANCH  13  17
BRANCH  14  19
HETATM   19  O3  UNL     1      16.859   4.208  50.602  1.00  0.00    -0.353 OA
HETATM   20  C23 UNL     1      16.359   4.335  49.284  1.00  0.00     0.210 C 
ENDBRANCH  14  19
ENDBRANCH   1   7
BRANCH   6  21
HETATM   21  O2  UNL     1      22.867   0.725  53.799  1.00  0.00    -0.367 OA
HETATM   22  C19 UNL     1      22.632  -0.553  54.216  1.00  0.00     0.204 C 
ENDBRANCH   6  21
BRANCH   5  23
HETATM   23  C11 UNL     1      25.546   0.785  52.433  1.00  0.00     0.109 A 
HETATM   24  N4  UNL     1      25.840  -0.382  52.365  1.00  0.00    -0.240 NA
HETATM   25  C12 UNL     1      27.000  -0.911  52.688  1.00  0.00     0.075 A 
HETATM   26  C13 UNL     1      27.327  -2.249  52.605  1.00  0.00     0.033 A 
HETATM   27  C17 UNL     1      28.000  -0.063  53.156  1.00  0.00     0.035 A 
HETATM   28  C14 UNL     1      28.596  -2.612  52.989  1.00  0.00     0.002 A 
HETATM   29  C15 UNL     1      29.589  -1.805  53.449  1.00  0.00     0.002 A 
HETATM   30  C16 UNL     1      29.305  -0.461  53.548  1.00  0.00     0.021 A 
HETATM   31  S1  UNL     1      27.065   1.511  53.063  1.00  0.00    -0.068 SA
ENDBRANCH   5  23
TORSDOF 5
ENDMDL
MODEL 6
REMARK VINA RESULT:      -7.7      5.888      8.607
REMARK  5 active torsions:
REMARK  status: ('A' for Active; 'I' for Inactive)
REMARK    1  A    between atoms: O1_2  and  C2_3 
REMARK    2  A    between atoms: C6_9  and  N3_10 
REMARK    3  A    between atoms: C10_14  and  C11_15 
REMARK    4  A    between atoms: C18_24  and  O2_25 
REMARK    5  A    between atoms: C22_29  and  O3_30 
ROOT
HETATM    1  N3  UNL     1      25.557   5.286  50.077  1.00  0.00    -0.310 N 
HETATM    2  C7  UNL     1      26.407   4.388  49.377  1.00  0.00     0.096 A 
HETATM    3  C8  UNL     1      27.365   4.909  48.648  1.00  0.00     0.018 A 
HETATM    4  C9  UNL     1      27.540   6.352  48.571  1.00  0.00     0.016 A 
HETATM    5  C10 UNL     1      26.749   7.177  49.230  1.00  0.00     0.026 A 
HETATM    6  C18 UNL     1      25.651   6.740  50.103  1.00  0.00     0.265 A 
ENDROOT
BRANCH   1   7
HETATM    7  C6  UNL     1      24.511   4.629  50.826  1.00  0.00     0.133 C 
HETATM    8  N2  UNL     1      24.001   4.254  52.005  1.00  0.00    -0.224 NA
HETATM    9  C5  UNL     1      24.245   3.090  52.622  1.00  0.00     0.234 C 
HETATM   10  N1  UNL     1      24.820   1.879  52.477  1.00  0.00    -0.254 NA
HETATM   11  C4  UNL     1      24.142   0.740  52.738  1.00  0.00     0.121 C 
HETATM   12  C3  UNL     1      22.783   0.572  52.579  1.00  0.00     0.059 C 
HETATM   13  C2  UNL     1      22.025   1.225  51.632  1.00  0.00     0.102 C 
HETATM   14  C22 UNL     1      22.336   1.645  50.373  1.00  0.00     0.101 C 
HETATM   15  C21 UNL     1      23.102   2.722  50.001  1.00  0.00     0.043 C 
HETATM   16  C20 UNL     1      23.442   4.048  50.176  1.00  0.00     0.053 C 
BRANCH  13  17
HETATM   17  O1  UNL     1      20.722   1.620  51.750  1.00  0.00    -0.353 OA
HETATM   18  C1  UNL     1      20.350   2.842  52.350  1.00  0.00     0.210 C 
ENDBRANCH  13  17
BRANCH  14  19
HETATM   19  O3  UNL     1      21.872   0.976  49.233  1.00  0.00    -0.353 OA
HETATM   20  C23 UNL     1      21.916   1.586  47.956  1.00  0.00     0.210 C 
ENDBRANCH  14  19
ENDBRANCH   1   7
BRANCH   6  21
HETATM   21  O2  UNL     1      24.486   7.371  49.746  1.00  0.00    -0.367 OA
HETATM   22  C19 UNL     1      23.765   7.979  50.733  1.00  0.00     0.204 C 
ENDBRANCH   6  21
BRANCH   5  23
HETATM   23  C11 UNL     1      27.130   8.590  48.988  1.00  0.00     0.109 A 
HETATM   24  N4  UNL     1      28.208   9.119  49.094  1.00  0.00    -0.240 NA
HETATM   25  C12 UNL     1      28.479  10.384  48.860  1.00  0.00     0.075 A 
HETATM   26  C13 UNL     1      29.718  10.980  48.984  1.00  0.00     0.033 A 
HETATM   27  C17 UNL     1      27.438  11.212  48.449  1.00  0.00     0.035 A 
HETATM   28  C14 UNL     1      29.803  12.321  48.693  1.00  0.00     0.002 A 
HETATM   29  C15 UNL     1      28.804  13.150  48.290  1.00  0.00     0.002 A 
HETATM   30  C16 UNL     1      27.550  12.596  48.153  1.00  0.00     0.021 A 
HETATM   31  S1  UNL     1      26.098   9.961  48.454  1.00  0.00    -0.068 SA
ENDBRANCH   5  23
TORSDOF 5
ENDMDL
MODEL 7
REMARK VINA RESULT:      -7.5      3.818      7.288
REMARK  5 active torsions:
REMARK  status: ('A' for Active; 'I' for Inactive)
REMARK    1  A    between atoms: O1_2  and  C2_3 
REMARK    2  A    between atoms: C6_9  and  N3_10 
REMARK    3  A    between atoms: C10_14  and  C11_15 
REMARK    4  A    between atoms: C18_24  and  O2_25 
REMARK    5  A    between atoms: C22_29  and  O3_30 
ROOT
HETATM    1  N3  UNL     1      22.278   0.491  53.193  1.00  0.00    -0.310 N 
HETATM    2  C7  UNL     1      22.973  -0.203  54.219  1.00  0.00     0.096 A 
HETATM    3  C8  UNL     1      22.342  -1.188  54.815  1.00  0.00     0.018 A 
HETATM    4  C9  UNL     1      20.985  -1.544  54.425  1.00  0.00     0.016 A 
HETATM    5  C10 UNL     1      20.352  -0.897  53.467  1.00  0.00     0.026 A 
HETATM    6  C18 UNL     1      20.938   0.209  52.698  1.00  0.00     0.265 A 
ENDROOT
BRANCH   1   7
HETATM    7  C6  UNL     1      23.034   1.580  52.617  1.00  0.00     0.133 C 
HETATM    8  N2  UNL     1      23.614   2.778  52.756  1.00  0.00    -0.224 NA
HETATM    9  C5  UNL     1      23.024   3.958  52.524  1.00  0.00     0.234 C 
HETATM   10  N1  UNL     1      21.915   4.544  52.027  1.00  0.00    -0.254 NA
HETATM   11  C4  UNL     1      21.990   5.518  51.094  1.00  0.00     0.121 C 
HETATM   12  C3  UNL     1      22.978   5.625  50.138  1.00  0.00     0.059 C 
HETATM   13  C2  UNL     1      23.643   4.553  49.584  1.00  0.00     0.102 C 
HETATM   14  C22 UNL     1      23.225   3.284  49.316  1.00  0.00     0.101 C 
HETATM   15  C21 UNL     1      23.015   2.254  50.200  1.00  0.00     0.043 C 
HETATM   16  C20 UNL     1      23.437   1.535  51.299  1.00  0.00     0.053 C 
BRANCH  13  17
HETATM   17  O1  UNL     1      24.940   4.521  49.157  1.00  0.00    -0.353 OA
HETATM   18  C1  UNL     1      26.000   4.082  49.979  1.00  0.00     0.210 C 
ENDBRANCH  13  17
BRANCH  14  19
HETATM   19  O3  UNL     1      22.945   2.855  48.012  1.00  0.00    -0.353 OA
HETATM   20  C23 UNL     1      21.717   3.175  47.383  1.00  0.00     0.210 C 
ENDBRANCH  14  19
ENDBRANCH   1   7
BRANCH   6  21
HETATM   21  O2  UNL     1      20.102   1.297  52.727  1.00  0.00    -0.367 OA
HETATM   22  C19 UNL     1      19.696   1.818  51.532  1.00  0.00     0.204 C 
ENDBRANCH   6  21
BRANCH   5  23
HETATM   23  C11 UNL     1      18.989  -1.446  53.261  1.00  0.00     0.109 A 
HETATM   24  N4  UNL     1      18.545  -2.521  53.575  1.00  0.00    -0.240 NA
HETATM   25  C12 UNL     1      17.318  -2.946  53.364  1.00  0.00     0.075 A 
HETATM   26  C13 UNL     1      16.818  -4.179  53.729  1.00  0.00     0.033 A 
HETATM   27  C17 UNL     1      16.430  -2.090  52.717  1.00  0.00     0.035 A 
HETATM   28  C14 UNL     1      15.504  -4.443  53.420  1.00  0.00     0.002 A 
HETATM   29  C15 UNL     1      14.618  -3.626  52.791  1.00  0.00     0.002 A 
HETATM   30  C16 UNL     1      15.076  -2.384  52.409  1.00  0.00     0.021 A 
HETATM   31  S1  UNL     1      17.568  -0.673  52.479  1.00  0.00    -0.068 SA
ENDBRANCH   5  23
TORSDOF 5
ENDMDL
MODEL 8
REMARK VINA RESULT:      -7.4      3.613      7.053
REMARK  5 active torsions:
REMARK  status: ('A' for Active; 'I' for Inactive)
REMARK    1  A    between atoms: O1_2  and  C2_3 
REMARK    2  A    between atoms: C6_9  and  N3_10 
REMARK    3  A    between atoms: C10_14  and  C11_15 
REMARK    4  A    between atoms: C18_24  and  O2_25 
REMARK    5  A    between atoms: C22_29  and  O3_30 
ROOT
HETATM    1  N3  UNL     1      24.079   3.080  51.381  1.00  0.00    -0.310 N 
HETATM    2  C7  UNL     1      25.134   2.435  52.080  1.00  0.00     0.096 A 
HETATM    3  C8  UNL     1      24.833   1.360  52.770  1.00  0.00     0.018 A 
HETATM    4  C9  UNL     1      23.466   0.860  52.805  1.00  0.00     0.016 A 
HETATM    5  C10 UNL     1      22.495   1.463  52.147  1.00  0.00     0.026 A 
HETATM    6  C18 UNL     1      22.686   2.659  51.316  1.00  0.00     0.265 A 
ENDROOT
BRANCH   1   7
HETATM    7  C6  UNL     1      24.494   4.273  50.678  1.00  0.00     0.133 C 
HETATM    8  N2  UNL     1      25.010   5.507  50.711  1.00  0.00    -0.224 NA
HETATM    9  C5  UNL     1      24.306   6.640  50.835  1.00  0.00     0.234 C 
HETATM   10  N1  UNL     1      23.059   7.154  50.846  1.00  0.00    -0.254 NA
HETATM   11  C4  UNL     1      22.716   8.193  50.054  1.00  0.00     0.121 C 
HETATM   12  C3  UNL     1      23.261   8.459  48.816  1.00  0.00     0.059 C 
HETATM   13  C2  UNL     1      23.730   7.496  47.951  1.00  0.00     0.102 C 
HETATM   14  C22 UNL     1      23.320   6.215  47.731  1.00  0.00     0.101 C 
HETATM   15  C21 UNL     1      23.521   5.110  48.521  1.00  0.00     0.043 C 
HETATM   16  C20 UNL     1      24.370   4.358  49.308  1.00  0.00     0.053 C 
BRANCH  13  17
HETATM   17  O1  UNL     1      24.770   7.615  47.071  1.00  0.00    -0.353 OA
HETATM   18  C1  UNL     1      26.087   7.906  47.487  1.00  0.00     0.210 C 
ENDBRANCH  13  17
BRANCH  14  19
HETATM   19  O3  UNL     1      22.593   5.854  46.588  1.00  0.00    -0.353 OA
HETATM   20  C23 UNL     1      21.354   6.468  46.283  1.00  0.00     0.210 C 
ENDBRANCH  14  19
ENDBRANCH   1   7
BRANCH   6  21
HETATM   21  O2  UNL     1      21.799   3.637  51.689  1.00  0.00    -0.367 OA
HETATM   22  C19 UNL     1      20.914   4.084  50.750  1.00  0.00     0.204 C 
ENDBRANCH   6  21
BRANCH   5  23
HETATM   23  C11 UNL     1      21.202   0.763  52.343  1.00  0.00     0.109 A 
HETATM   24  N4  UNL     1      20.228   0.748  51.635  1.00  0.00    -0.240 NA
HETATM   25  C12 UNL     1      19.107   0.100  51.868  1.00  0.00     0.075 A 
HETATM   26  C13 UNL     1      17.996   0.088  51.049  1.00  0.00     0.033 A 
HETATM   27  C17 UNL     1      19.013  -0.647  53.040  1.00  0.00     0.035 A 
HETATM   28  C14 UNL     1      16.915  -0.652  51.464  1.00  0.00     0.002 A 
HETATM   29  C15 UNL     1      16.799  -1.388  52.601  1.00  0.00     0.002 A 
HETATM   30  C16 UNL     1      17.884  -1.404  53.449  1.00  0.00     0.021 A 
HETATM   31  S1  UNL     1      20.684  -0.290  53.705  1.00  0.00    -0.068 SA
ENDBRANCH   5  23
TORSDOF 5
ENDMDL
MODEL 9
REMARK VINA RESULT:      -7.3      2.914      4.981
REMARK  5 active torsions:
REMARK  status: ('A' for Active; 'I' for Inactive)
REMARK    1  A    between atoms: O1_2  and  C2_3 
REMARK    2  A    between atoms: C6_9  and  N3_10 
REMARK    3  A    between atoms: C10_14  and  C11_15 
REMARK    4  A    between atoms: C18_24  and  O2_25 
REMARK    5  A    between atoms: C22_29  and  O3_30 
ROOT
HETATM    1  N3  UNL     1      19.593   2.050  49.788  1.00  0.00    -0.310 N 
HETATM    2  C7  UNL     1      20.091   2.327  48.486  1.00  0.00     0.096 A 
HETATM    3  C8  UNL     1      21.382   2.193  48.293  1.00  0.00     0.018 A 
HETATM    4  C9  UNL     1      22.255   1.774  49.380  1.00  0.00     0.016 A 
HETATM    5  C10 UNL     1      21.782   1.515  50.583  1.00  0.00     0.026 A 
HETATM    6  C18 UNL     1      20.359   1.598  50.941  1.00  0.00     0.265 A 
ENDROOT
BRANCH   1   7
HETATM    7  C6  UNL     1      18.168   2.256  49.918  1.00  0.00     0.133 C 
HETATM    8  N2  UNL     1      17.107   3.063  49.802  1.00  0.00    -0.224 NA
HETATM    9  C5  UNL     1      16.628   3.860  50.768  1.00  0.00     0.234 C 
HETATM   10  N1  UNL     1      16.732   4.172  52.075  1.00  0.00    -0.254 NA
HETATM   11  C4  UNL     1      15.649   4.202  52.882  1.00  0.00     0.121 C 
HETATM   12  C3  UNL     1      14.529   3.412  52.735  1.00  0.00     0.059 C 
HETATM   13  C2  UNL     1      14.539   2.141  52.204  1.00  0.00     0.102 C 
HETATM   14  C22 UNL     1      15.485   1.161  52.250  1.00  0.00     0.101 C 
HETATM   15  C21 UNL     1      16.667   1.087  51.555  1.00  0.00     0.043 C 
HETATM   16  C20 UNL     1      17.351   1.240  50.366  1.00  0.00     0.053 C 
BRANCH  13  17
HETATM   17  O1  UNL     1      13.550   1.546  51.474  1.00  0.00    -0.353 OA
HETATM   18  C1  UNL     1      13.356   1.810  50.100  1.00  0.00     0.210 C 
ENDBRANCH  13  17
BRANCH  14  19
HETATM   19  O3  UNL     1      15.347   0.034  53.072  1.00  0.00    -0.353 OA
HETATM   20  C23 UNL     1      15.705  -1.256  52.613  1.00  0.00     0.210 C 
ENDBRANCH  14  19
ENDBRANCH   1   7
BRANCH   6  21
HETATM   21  O2  UNL     1      20.199   2.388  52.051  1.00  0.00    -0.367 OA
HETATM   22  C19 UNL     1      20.506   3.713  51.937  1.00  0.00     0.204 C 
ENDBRANCH   6  21
BRANCH   5  23
HETATM   23  C11 UNL     1      22.868   1.111  51.509  1.00  0.00     0.109 A 
HETATM   24  N4  UNL     1      24.039   1.393  51.480  1.00  0.00    -0.240 NA
HETATM   25  C12 UNL     1      24.954   1.001  52.340  1.00  0.00     0.075 A 
HETATM   26  C13 UNL     1      26.294   1.331  52.298  1.00  0.00     0.033 A 
HETATM   27  C17 UNL     1      24.556   0.182  53.393  1.00  0.00     0.035 A 
HETATM   28  C14 UNL     1      27.098   0.822  53.291  1.00  0.00     0.002 A 
HETATM   29  C15 UNL     1      26.735   0.022  54.327  1.00  0.00     0.002 A 
HETATM   30  C16 UNL     1      25.406  -0.332  54.408  1.00  0.00     0.021 A 
HETATM   31  S1  UNL     1      22.775   0.074  52.974  1.00  0.00    -0.068 SA
ENDBRANCH   5  23
TORSDOF 5
ENDMDL
