MODEL 1
REMARK VINA RESULT:      -7.7      0.000      0.000
REMARK  7 active torsions:
REMARK  status: ('A' for Active; 'I' for Inactive)
REMARK    1  A    between atoms: C1_1  and  C6_6 
REMARK    2  A    between atoms: C2_2  and  C3_3 
REMARK    3  A    between atoms: C6_6  and  C7_7 
REMARK    4  A    between atoms: C7_7  and  C8_8 
REMARK    5  A    between atoms: C8_8  and  N1_9 
REMARK    6  A    between atoms: N1_9  and  C9_10 
REMARK    7  A    between atoms: C9_10  and  C10_11 
ROOT
HETATM    1  C10 UNL     1      24.443   2.156  52.848  1.00  0.00    -0.048 C 
HETATM    2  C11 UNL     1      25.663   2.449  53.262  1.00  0.00     0.020 C 
HETATM    3  C12 UNL     1      26.679   1.578  53.827  1.00  0.00     0.011 A 
HETATM    4  C13 UNL     1      27.904   2.201  53.916  1.00  0.00     0.131 A 
HETATM    5  N2  UNL     1      28.974   1.497  54.392  1.00  0.00    -0.253 NA
HETATM    6  C14 UNL     1      28.775   0.217  54.752  1.00  0.00     0.233 A 
HETATM    7  N3  UNL     1      27.572  -0.411  54.670  1.00  0.00    -0.241 NA
HETATM    8  C15 UNL     1      26.513   0.267  54.206  1.00  0.00     0.069 A 
HETATM    9  C16 UNL     1      25.318  -0.579  54.195  1.00  0.00     0.029 C 
HETATM   10  C17 UNL     1      24.206  -0.203  53.603  1.00  0.00    -0.020 C 
HETATM   11  C18 UNL     1      23.642   0.909  52.845  1.00  0.00     0.063 C 
ENDROOT
BRANCH   1  12
HETATM   12  C9  UNL     1      23.573   3.217  52.294  1.00  0.00     0.304 C 
BRANCH  12  13
HETATM   13  N1  UNL     1      24.255   4.383  51.830  1.00  0.00     0.087 N 
HETATM   14  H12 UNL     1      23.983   5.225  52.407  1.00  0.00     0.316 HD
BRANCH  13  15
HETATM   15  C8  UNL     1      24.080   4.623  50.403  1.00  0.00     0.270 C 
BRANCH  15  16
HETATM   16  C7  UNL     1      24.672   3.449  49.656  1.00  0.00     0.034 C 
BRANCH  16  17
HETATM   17  C6  UNL     1      26.156   3.458  49.548  1.00  0.00     0.029 C 
BRANCH  17  18
HETATM   18  C1  UNL     1      26.787   4.676  49.056  1.00  0.00    -0.026 C 
HETATM   19  C2  UNL     1      27.987   4.921  48.582  1.00  0.00     0.003 C 
BRANCH  19  20
HETATM   20  C3  UNL     1      28.588   6.148  48.097  1.00  0.00    -0.059 A 
HETATM   21  C4  UNL     1      29.556   7.046  47.907  1.00  0.00    -0.015 A 
HETATM   22  C5  UNL     1      28.251   7.383  47.310  1.00  0.00     0.066 A 
ENDBRANCH  19  20
ENDBRANCH  17  18
ENDBRANCH  16  17
ENDBRANCH  15  16
ENDBRANCH  13  15
ENDBRANCH  12  13
ENDBRANCH   1  12
TORSDOF 7
ENDMDL
MODEL 2
REMARK VINA RESULT:      -7.4      3.358      5.731
REMARK  7 active torsions:
REMARK  status: ('A' for Active; 'I' for Inactive)
REMARK    1  A    between atoms: C1_1  and  C6_6 
REMARK    2  A    between atoms: C2_2  and  C3_3 
REMARK    3  A    between atoms: C6_6  and  C7_7 
REMARK    4  A    between atoms: C7_7  and  C8_8 
REMARK    5  A    between atoms: C8_8  and  N1_9 
REMARK    6  A    between atoms: N1_9  and  C9_10 
REMARK    7  A    between atoms: C9_10  and  C10_11 
ROOT
HETATM    1  C10 UNL     1      24.516   0.021  53.366  1.00  0.00    -0.048 C 
HETATM    2  C11 UNL     1      25.682  -0.144  53.966  1.00  0.00     0.020 C 
HETATM    3  C12 UNL     1      26.887   0.661  53.875  1.00  0.00     0.011 A 
HETATM    4  C13 UNL     1      27.817   0.309  54.827  1.00  0.00     0.131 A 
HETATM    5  N2  UNL     1      28.993   1.003  54.896  1.00  0.00    -0.253 NA
HETATM    6  C14 UNL     1      29.182   2.007  54.022  1.00  0.00     0.233 A 
HETATM    7  N3  UNL     1      28.274   2.366  53.077  1.00  0.00    -0.241 NA
HETATM    8  C15 UNL     1      27.116   1.692  52.996  1.00  0.00     0.069 A 
HETATM    9  C16 UNL     1      26.279   2.227  51.921  1.00  0.00     0.029 C 
HETATM   10  C17 UNL     1      25.024   1.865  51.774  1.00  0.00    -0.020 C 
HETATM   11  C18 UNL     1      24.012   0.999  52.373  1.00  0.00     0.063 C 
ENDROOT
BRANCH   1  12
HETATM   12  C9  UNL     1      23.412  -0.932  53.615  1.00  0.00     0.304 C 
BRANCH  12  13
HETATM   13  N1  UNL     1      22.757  -0.789  54.877  1.00  0.00     0.087 N 
HETATM   14  H12 UNL     1      22.753  -1.707  55.398  1.00  0.00     0.316 HD
BRANCH  13  15
HETATM   15  C8  UNL     1      21.420  -0.218  54.771  1.00  0.00     0.270 C 
BRANCH  15  16
HETATM   16  C7  UNL     1      20.639  -1.041  53.771  1.00  0.00     0.034 C 
BRANCH  16  17
HETATM   17  C6  UNL     1      19.579  -0.297  53.038  1.00  0.00     0.029 C 
BRANCH  17  18
HETATM   18  C1  UNL     1      19.966   0.392  51.814  1.00  0.00    -0.026 C 
HETATM   19  C2  UNL     1      21.000   0.260  51.014  1.00  0.00     0.003 C 
BRANCH  19  20
HETATM   20  C3  UNL     1      21.358   0.962  49.797  1.00  0.00    -0.059 A 
HETATM   21  C4  UNL     1      21.311   1.266  48.500  1.00  0.00    -0.015 A 
HETATM   22  C5  UNL     1      22.272   2.046  49.300  1.00  0.00     0.066 A 
ENDBRANCH  19  20
ENDBRANCH  17  18
ENDBRANCH  16  17
ENDBRANCH  15  16
ENDBRANCH  13  15
ENDBRANCH  12  13
ENDBRANCH   1  12
TORSDOF 7
ENDMDL
MODEL 3
REMARK VINA RESULT:      -7.4      2.213      3.721
REMARK  7 active torsions:
REMARK  status: ('A' for Active; 'I' for Inactive)
REMARK    1  A    between atoms: C1_1  and  C6_6 
REMARK    2  A    between atoms: C2_2  and  C3_3 
REMARK    3  A    between atoms: C6_6  and  C7_7 
REMARK    4  A    between atoms: C7_7  and  C8_8 
REMARK    5  A    between atoms: C8_8  and  N1_9 
REMARK    6  A    between atoms: N1_9  and  C9_10 
REMARK    7  A    between atoms: C9_10  and  C10_11 
ROOT
HETATM    1  C10 UNL     1      22.624   0.947  52.340  1.00  0.00    -0.048 C 
HETATM    2  C11 UNL     1      23.596   0.111  52.664  1.00  0.00     0.020 C 
HETATM    3  C12 UNL     1      24.868   0.384  53.309  1.00  0.00     0.011 A 
HETATM    4  C13 UNL     1      25.511  -0.771  53.695  1.00  0.00     0.131 A 
HETATM    5  N2  UNL     1      26.706  -0.678  54.353  1.00  0.00    -0.253 NA
HETATM    6  C14 UNL     1      27.197   0.549  54.595  1.00  0.00     0.233 A 
HETATM    7  N3  UNL     1      26.574   1.698  54.220  1.00  0.00    -0.241 NA
HETATM    8  C15 UNL     1      25.402   1.623  53.572  1.00  0.00     0.069 A 
HETATM    9  C16 UNL     1      24.896   2.961  53.258  1.00  0.00     0.029 C 
HETATM   10  C17 UNL     1      23.678   3.152  52.803  1.00  0.00    -0.020 C 
HETATM   11  C18 UNL     1      22.470   2.417  52.442  1.00  0.00     0.063 C 
ENDROOT
BRANCH   1  12
HETATM   12  C9  UNL     1      21.398   0.439  51.686  1.00  0.00     0.304 C 
BRANCH  12  13
HETATM   13  N1  UNL     1      20.431   1.436  51.348  1.00  0.00     0.087 N 
HETATM   14  H12 UNL     1      19.649   1.447  52.057  1.00  0.00     0.316 HD
BRANCH  13  15
HETATM   15  C8  UNL     1      19.928   1.312  49.986  1.00  0.00     0.270 C 
BRANCH  15  16
HETATM   16  C7  UNL     1      21.106   1.048  49.075  1.00  0.00     0.034 C 
BRANCH  16  17
HETATM   17  C6  UNL     1      21.722   2.264  48.479  1.00  0.00     0.029 C 
BRANCH  17  18
HETATM   18  C1  UNL     1      23.149   2.468  48.694  1.00  0.00    -0.026 C 
HETATM   19  C2  UNL     1      23.831   3.463  49.214  1.00  0.00     0.003 C 
BRANCH  19  20
HETATM   20  C3  UNL     1      25.256   3.638  49.416  1.00  0.00    -0.059 A 
HETATM   21  C4  UNL     1      26.501   3.280  49.735  1.00  0.00    -0.015 A 
HETATM   22  C5  UNL     1      26.332   4.682  49.313  1.00  0.00     0.066 A 
ENDBRANCH  19  20
ENDBRANCH  17  18
ENDBRANCH  16  17
ENDBRANCH  15  16
ENDBRANCH  13  15
ENDBRANCH  12  13
ENDBRANCH   1  12
TORSDOF 7
ENDMDL
MODEL 4
REMARK VINA RESULT:      -7.4      1.598      2.493
REMARK  7 active torsions:
REMARK  status: ('A' for Active; 'I' for Inactive)
REMARK    1  A    between atoms: C1_1  and  C6_6 
REMARK    2  A    between atoms: C2_2  and  C3_3 
REMARK    3  A    between atoms: C6_6  and  C7_7 
REMARK    4  A    between atoms: C7_7  and  C8_8 
REMARK    5  A    between atoms: C8_8  and  N1_9 
REMARK    6  A    between atoms: N1_9  and  C9_10 
REMARK    7  A    between atoms: C9_10  and  C10_11 
ROOT
HETATM    1  C10 UNL     1      25.523   1.029  52.824  1.00  0.00    -0.048 C 
HETATM    2  C11 UNL     1      25.918  -0.204  52.558  1.00  0.00     0.020 C 
HETATM    3  C12 UNL     1      27.195  -0.841  52.829  1.00  0.00     0.011 A 
HETATM    4  C13 UNL     1      27.149  -2.201  52.621  1.00  0.00     0.131 A 
HETATM    5  N2  UNL     1      28.265  -2.950  52.873  1.00  0.00    -0.253 NA
HETATM    6  C14 UNL     1      29.363  -2.313  53.317  1.00  0.00     0.233 A 
HETATM    7  N3  UNL     1      29.423  -0.971  53.526  1.00  0.00    -0.241 NA
HETATM    8  C15 UNL     1      28.336  -0.224  53.282  1.00  0.00     0.069 A 
HETATM    9  C16 UNL     1      28.603   1.187  53.568  1.00  0.00     0.029 C 
HETATM   10  C17 UNL     1      27.641   2.083  53.594  1.00  0.00    -0.020 C 
HETATM   11  C18 UNL     1      26.197   2.208  53.416  1.00  0.00     0.063 C 
ENDROOT
BRANCH   1  12
HETATM   12  C9  UNL     1      24.158   1.465  52.458  1.00  0.00     0.304 C 
BRANCH  12  13
HETATM   13  N1  UNL     1      24.034   2.842  52.098  1.00  0.00     0.087 N 
HETATM   14  H12 UNL     1      23.215   3.283  52.599  1.00  0.00     0.316 HD
BRANCH  13  15
HETATM   15  C8  UNL     1      23.970   3.058  50.658  1.00  0.00     0.270 C 
BRANCH  15  16
HETATM   16  C7  UNL     1      25.077   4.017  50.280  1.00  0.00     0.034 C 
BRANCH  16  17
HETATM   17  C6  UNL     1      26.257   3.388  49.629  1.00  0.00     0.029 C 
BRANCH  17  18
HETATM   18  C1  UNL     1      27.187   4.265  48.930  1.00  0.00    -0.026 C 
HETATM   19  C2  UNL     1      27.287   5.573  48.863  1.00  0.00     0.003 C 
BRANCH  19  20
HETATM   20  C3  UNL     1      28.228   6.422  48.157  1.00  0.00    -0.059 A 
HETATM   21  C4  UNL     1      29.406   6.988  47.893  1.00  0.00    -0.015 A 
HETATM   22  C5  UNL     1      28.301   7.371  46.994  1.00  0.00     0.066 A 
ENDBRANCH  19  20
ENDBRANCH  17  18
ENDBRANCH  16  17
ENDBRANCH  15  16
ENDBRANCH  13  15
ENDBRANCH  12  13
ENDBRANCH   1  12
TORSDOF 7
ENDMDL
MODEL 5
REMARK VINA RESULT:      -7.3      2.604      4.938
REMARK  7 active torsions:
REMARK  status: ('A' for Active; 'I' for Inactive)
REMARK    1  A    between atoms: C1_1  and  C6_6 
REMARK    2  A    between atoms: C2_2  and  C3_3 
REMARK    3  A    between atoms: C6_6  and  C7_7 
REMARK    4  A    between atoms: C7_7  and  C8_8 
REMARK    5  A    between atoms: C8_8  and  N1_9 
REMARK    6  A    between atoms: N1_9  and  C9_10 
REMARK    7  A    between atoms: C9_10  and  C10_11 
ROOT
HETATM    1  C10 UNL     1      24.509   2.195  53.005  1.00  0.00    -0.048 C 
HETATM    2  C11 UNL     1      25.783   2.385  53.302  1.00  0.00     0.020 C 
HETATM    3  C12 UNL     1      26.787   1.421  53.717  1.00  0.00     0.011 A 
HETATM    4  C13 UNL     1      28.055   1.957  53.706  1.00  0.00     0.131 A 
HETATM    5  N2  UNL     1      29.116   1.161  54.034  1.00  0.00    -0.253 NA
HETATM    6  C14 UNL     1      28.865  -0.121  54.353  1.00  0.00     0.233 A 
HETATM    7  N3  UNL     1      27.619  -0.665  54.368  1.00  0.00    -0.241 NA
HETATM    8  C15 UNL     1      26.568   0.105  54.049  1.00  0.00     0.069 A 
HETATM    9  C16 UNL     1      25.322  -0.660  54.124  1.00  0.00     0.029 C 
HETATM   10  C17 UNL     1      24.186  -0.181  53.669  1.00  0.00    -0.020 C 
HETATM   11  C18 UNL     1      23.627   1.005  53.027  1.00  0.00     0.063 C 
ENDROOT
BRANCH   1  12
HETATM   12  C9  UNL     1      23.664   3.338  52.596  1.00  0.00     0.304 C 
BRANCH  12  13
HETATM   13  N1  UNL     1      24.299   4.289  51.738  1.00  0.00     0.087 N 
HETATM   14  H12 UNL     1      24.450   5.202  52.246  1.00  0.00     0.316 HD
BRANCH  13  15
HETATM   15  C8  UNL     1      23.602   4.478  50.472  1.00  0.00     0.270 C 
BRANCH  15  16
HETATM   16  C7  UNL     1      24.144   3.470  49.484  1.00  0.00     0.034 C 
BRANCH  16  17
HETATM   17  C6  UNL     1      23.116   2.608  48.841  1.00  0.00     0.029 C 
BRANCH  17  18
HETATM   18  C1  UNL     1      21.986   2.185  49.658  1.00  0.00    -0.026 C 
HETATM   19  C2  UNL     1      21.562   1.001  50.036  1.00  0.00     0.003 C 
BRANCH  19  20
HETATM   20  C3  UNL     1      20.430   0.610  50.853  1.00  0.00    -0.059 A 
HETATM   21  C4  UNL     1      19.149   0.372  51.137  1.00  0.00    -0.015 A 
HETATM   22  C5  UNL     1      20.100   0.128  52.238  1.00  0.00     0.066 A 
ENDBRANCH  19  20
ENDBRANCH  17  18
ENDBRANCH  16  17
ENDBRANCH  15  16
ENDBRANCH  13  15
ENDBRANCH  12  13
ENDBRANCH   1  12
TORSDOF 7
ENDMDL
MODEL 6
REMARK VINA RESULT:      -6.8      2.956      4.448
REMARK  7 active torsions:
REMARK  status: ('A' for Active; 'I' for Inactive)
REMARK    1  A    between atoms: C1_1  and  C6_6 
REMARK    2  A    between atoms: C2_2  and  C3_3 
REMARK    3  A    between atoms: C6_6  and  C7_7 
REMARK    4  A    between atoms: C7_7  and  C8_8 
REMARK    5  A    between atoms: C8_8  and  N1_9 
REMARK    6  A    between atoms: N1_9  and  C9_10 
REMARK    7  A    between atoms: C9_10  and  C10_11 
ROOT
HETATM    1  C10 UNL     1      24.187   0.772  52.707  1.00  0.00    -0.048 C 
HETATM    2  C11 UNL     1      25.152   0.329  53.493  1.00  0.00     0.020 C 
HETATM    3  C12 UNL     1      26.530   0.774  53.601  1.00  0.00     0.011 A 
HETATM    4  C13 UNL     1      27.165   0.233  54.697  1.00  0.00     0.131 A 
HETATM    5  N2  UNL     1      28.459   0.588  54.958  1.00  0.00    -0.253 NA
HETATM    6  C14 UNL     1      29.053   1.460  54.124  1.00  0.00     0.233 A 
HETATM    7  N3  UNL     1      28.439   2.002  53.039  1.00  0.00    -0.241 NA
HETATM    8  C15 UNL     1      27.170   1.662  52.769  1.00  0.00     0.069 A 
HETATM    9  C16 UNL     1      26.692   2.349  51.568  1.00  0.00     0.029 C 
HETATM   10  C17 UNL     1      25.426   2.331  51.215  1.00  0.00    -0.020 C 
HETATM   11  C18 UNL     1      24.135   1.799  51.640  1.00  0.00     0.063 C 
ENDROOT
BRANCH   1  12
HETATM   12  C9  UNL     1      22.840   0.164  52.772  1.00  0.00     0.304 C 
BRANCH  12  13
HETATM   13  N1  UNL     1      22.052   0.300  51.588  1.00  0.00     0.087 N 
HETATM   14  H12 UNL     1      22.446   1.057  50.966  1.00  0.00     0.316 HD
BRANCH  13  15
HETATM   15  C8  UNL     1      20.634   0.503  51.859  1.00  0.00     0.270 C 
BRANCH  15  16
HETATM   16  C7  UNL     1      20.508   1.609  52.883  1.00  0.00     0.034 C 
BRANCH  16  17
HETATM   17  C6  UNL     1      20.100   2.930  52.332  1.00  0.00     0.029 C 
BRANCH  17  18
HETATM   18  C1  UNL     1      21.134   3.749  51.714  1.00  0.00    -0.026 C 
HETATM   19  C2  UNL     1      21.917   4.691  52.188  1.00  0.00     0.003 C 
BRANCH  19  20
HETATM   20  C3  UNL     1      22.942   5.491  51.545  1.00  0.00    -0.059 A 
HETATM   21  C4  UNL     1      24.166   5.793  51.110  1.00  0.00    -0.015 A 
HETATM   22  C5  UNL     1      23.127   6.801  50.833  1.00  0.00     0.066 A 
ENDBRANCH  19  20
ENDBRANCH  17  18
ENDBRANCH  16  17
ENDBRANCH  15  16
ENDBRANCH  13  15
ENDBRANCH  12  13
ENDBRANCH   1  12
TORSDOF 7
ENDMDL
MODEL 7
REMARK VINA RESULT:      -6.8      2.536      7.386
REMARK  7 active torsions:
REMARK  status: ('A' for Active; 'I' for Inactive)
REMARK    1  A    between atoms: C1_1  and  C6_6 
REMARK    2  A    between atoms: C2_2  and  C3_3 
REMARK    3  A    between atoms: C6_6  and  C7_7 
REMARK    4  A    between atoms: C7_7  and  C8_8 
REMARK    5  A    between atoms: C8_8  and  N1_9 
REMARK    6  A    between atoms: N1_9  and  C9_10 
REMARK    7  A    between atoms: C9_10  and  C10_11 
ROOT
HETATM    1  C10 UNL     1      26.022   4.154  49.817  1.00  0.00    -0.048 C 
HETATM    2  C11 UNL     1      27.184   4.388  49.232  1.00  0.00     0.020 C 
HETATM    3  C12 UNL     1      27.625   5.560  48.496  1.00  0.00     0.011 A 
HETATM    4  C13 UNL     1      28.978   5.532  48.241  1.00  0.00     0.131 A 
HETATM    5  N2  UNL     1      29.553   6.587  47.589  1.00  0.00    -0.253 NA
HETATM    6  C14 UNL     1      28.760   7.610  47.226  1.00  0.00     0.233 A 
HETATM    7  N3  UNL     1      27.423   7.651  47.470  1.00  0.00    -0.241 NA
HETATM    8  C15 UNL     1      26.845   6.623  48.108  1.00  0.00     0.069 A 
HETATM    9  C16 UNL     1      25.409   6.856  48.274  1.00  0.00     0.029 C 
HETATM   10  C17 UNL     1      24.665   6.088  49.037  1.00  0.00    -0.020 C 
HETATM   11  C18 UNL     1      24.755   4.917  49.904  1.00  0.00     0.063 C 
ENDROOT
BRANCH   1  12
HETATM   12  C9  UNL     1      25.794   2.876  50.526  1.00  0.00     0.304 C 
BRANCH  12  13
HETATM   13  N1  UNL     1      25.857   2.950  51.952  1.00  0.00     0.087 N 
HETATM   14  H12 UNL     1      26.728   2.471  52.308  1.00  0.00     0.316 HD
BRANCH  13  15
HETATM   15  C8  UNL     1      24.656   2.451  52.609  1.00  0.00     0.270 C 
BRANCH  15  16
HETATM   16  C7  UNL     1      24.514   0.983  52.274  1.00  0.00     0.034 C 
BRANCH  16  17
HETATM   17  C6  UNL     1      24.683   0.058  53.427  1.00  0.00     0.029 C 
BRANCH  17  18
HETATM   18  C1  UNL     1      26.005  -0.516  53.640  1.00  0.00    -0.026 C 
HETATM   19  C2  UNL     1      27.154  -0.343  53.026  1.00  0.00     0.003 C 
BRANCH  19  20
HETATM   20  C3  UNL     1      28.458  -0.929  53.263  1.00  0.00    -0.059 A 
HETATM   21  C4  UNL     1      29.747  -0.951  53.606  1.00  0.00    -0.015 A 
HETATM   22  C5  UNL     1      29.176  -2.248  53.201  1.00  0.00     0.066 A 
ENDBRANCH  19  20
ENDBRANCH  17  18
ENDBRANCH  16  17
ENDBRANCH  15  16
ENDBRANCH  13  15
ENDBRANCH  12  13
ENDBRANCH   1  12
TORSDOF 7
ENDMDL
MODEL 8
REMARK VINA RESULT:      -6.8      2.687      4.593
REMARK  7 active torsions:
REMARK  status: ('A' for Active; 'I' for Inactive)
REMARK    1  A    between atoms: C1_1  and  C6_6 
REMARK    2  A    between atoms: C2_2  and  C3_3 
REMARK    3  A    between atoms: C6_6  and  C7_7 
REMARK    4  A    between atoms: C7_7  and  C8_8 
REMARK    5  A    between atoms: C8_8  and  N1_9 
REMARK    6  A    between atoms: N1_9  and  C9_10 
REMARK    7  A    between atoms: C9_10  and  C10_11 
ROOT
HETATM    1  C10 UNL     1      22.050   1.068  51.260  1.00  0.00    -0.048 C 
HETATM    2  C11 UNL     1      23.025   0.809  52.114  1.00  0.00     0.020 C 
HETATM    3  C12 UNL     1      23.001   0.006  53.323  1.00  0.00     0.011 A 
HETATM    4  C13 UNL     1      24.265  -0.224  53.817  1.00  0.00     0.131 A 
HETATM    5  N2  UNL     1      24.412  -1.000  54.933  1.00  0.00    -0.253 NA
HETATM    6  C14 UNL     1      23.302  -1.506  55.498  1.00  0.00     0.233 A 
HETATM    7  N3  UNL     1      22.047  -1.287  55.022  1.00  0.00    -0.241 NA
HETATM    8  C15 UNL     1      21.888  -0.527  53.928  1.00  0.00     0.069 A 
HETATM    9  C16 UNL     1      20.471  -0.413  53.578  1.00  0.00     0.029 C 
HETATM   10  C17 UNL     1      20.078   0.114  52.440  1.00  0.00    -0.020 C 
HETATM   11  C18 UNL     1      20.611   0.717  51.222  1.00  0.00     0.063 C 
ENDROOT
BRANCH   1  12
HETATM   12  C9  UNL     1      22.307   1.918  50.077  1.00  0.00     0.304 C 
BRANCH  12  13
HETATM   13  N1  UNL     1      22.109   3.319  50.278  1.00  0.00     0.087 N 
HETATM   14  H12 UNL     1      21.151   3.610  49.944  1.00  0.00     0.316 HD
BRANCH  13  15
HETATM   15  C8  UNL     1      23.161   4.140  49.691  1.00  0.00     0.270 C 
BRANCH  15  16
HETATM   16  C7  UNL     1      24.251   3.216  49.192  1.00  0.00     0.034 C 
BRANCH  16  17
HETATM   17  C6  UNL     1      25.636   3.731  49.363  1.00  0.00     0.029 C 
BRANCH  17  18
HETATM   18  C1  UNL     1      26.388   3.267  50.521  1.00  0.00    -0.026 C 
HETATM   19  C2  UNL     1      26.342   2.152  51.216  1.00  0.00     0.003 C 
BRANCH  19  20
HETATM   20  C3  UNL     1      27.107   1.715  52.367  1.00  0.00    -0.059 A 
HETATM   21  C4  UNL     1      28.031   1.020  53.032  1.00  0.00    -0.015 A 
HETATM   22  C5  UNL     1      27.228   1.950  53.847  1.00  0.00     0.066 A 
ENDBRANCH  19  20
ENDBRANCH  17  18
ENDBRANCH  16  17
ENDBRANCH  15  16
ENDBRANCH  13  15
ENDBRANCH  12  13
ENDBRANCH   1  12
TORSDOF 7
ENDMDL
MODEL 9
REMARK VINA RESULT:      -6.8      3.078      5.041
REMARK  7 active torsions:
REMARK  status: ('A' for Active; 'I' for Inactive)
REMARK    1  A    between atoms: C1_1  and  C6_6 
REMARK    2  A    between atoms: C2_2  and  C3_3 
REMARK    3  A    between atoms: C6_6  and  C7_7 
REMARK    4  A    between atoms: C7_7  and  C8_8 
REMARK    5  A    between atoms: C8_8  and  N1_9 
REMARK    6  A    between atoms: N1_9  and  C9_10 
REMARK    7  A    between atoms: C9_10  and  C10_11 
ROOT
HETATM    1  C10 UNL     1      22.879   3.416  52.520  1.00  0.00    -0.048 C 
HETATM    2  C11 UNL     1      21.867   2.588  52.710  1.00  0.00     0.020 C 
HETATM    3  C12 UNL     1      21.882   1.177  53.052  1.00  0.00     0.011 A 
HETATM    4  C13 UNL     1      20.632   0.714  53.398  1.00  0.00     0.131 A 
HETATM    5  N2  UNL     1      20.489  -0.589  53.785  1.00  0.00    -0.253 NA
HETATM    6  C14 UNL     1      21.589  -1.361  53.812  1.00  0.00     0.233 A 
HETATM    7  N3  UNL     1      22.830  -0.919  53.473  1.00  0.00    -0.241 NA
HETATM    8  C15 UNL     1      22.985   0.357  53.090  1.00  0.00     0.069 A 
HETATM    9  C16 UNL     1      24.386   0.636  52.769  1.00  0.00     0.029 C 
HETATM   10  C17 UNL     1      24.819   1.859  52.560  1.00  0.00    -0.020 C 
HETATM   11  C18 UNL     1      24.350   3.241  52.522  1.00  0.00     0.063 C 
ENDROOT
BRANCH   1  12
HETATM   12  C9  UNL     1      22.624   4.833  52.180  1.00  0.00     0.304 C 
BRANCH  12  13
HETATM   13  N1  UNL     1      23.768   5.688  52.238  1.00  0.00     0.087 N 
HETATM   14  H12 UNL     1      23.830   6.159  53.181  1.00  0.00     0.316 HD
BRANCH  13  15
HETATM   15  C8  UNL     1      23.823   6.651  51.145  1.00  0.00     0.270 C 
BRANCH  15  16
HETATM   16  C7  UNL     1      25.164   6.505  50.461  1.00  0.00     0.034 C 
BRANCH  16  17
HETATM   17  C6  UNL     1      25.107   5.949  49.082  1.00  0.00     0.029 C 
BRANCH  17  18
HETATM   18  C1  UNL     1      24.089   4.944  48.804  1.00  0.00    -0.026 C 
HETATM   19  C2  UNL     1      24.075   3.637  48.943  1.00  0.00     0.003 C 
BRANCH  19  20
HETATM   20  C3  UNL     1      23.043   2.660  48.658  1.00  0.00    -0.059 A 
HETATM   21  C4  UNL     1      22.217   1.937  47.901  1.00  0.00    -0.015 A 
HETATM   22  C5  UNL     1      22.131   1.688  49.351  1.00  0.00     0.066 A 
ENDBRANCH  19  20
ENDBRANCH  17  18
ENDBRANCH  16  17
ENDBRANCH  15  16
ENDBRANCH  13  15
ENDBRANCH  12  13
ENDBRANCH   1  12
TORSDOF 7
ENDMDL
