MODEL 1
REMARK VINA RESULT:      -7.5      0.000      0.000
REMARK  9 active torsions:
REMARK  status: ('A' for Active; 'I' for Inactive)
REMARK    1  A    between atoms: N1_2  and  C1_3 
REMARK    2  A    between atoms: C1_3  and  C2_4 
REMARK    3  A    between atoms: C2_4  and  C3_5 
REMARK    4  A    between atoms: C5_7  and  N2_8 
REMARK    5  A    between atoms: N2_8  and  C6_9 
REMARK    6  A    between atoms: C6_9  and  C7_10 
REMARK    7  A    between atoms: C8_11  and  C9_13 
REMARK    8  A    between atoms: C9_13  and  P1_14 
REMARK    9  A    between atoms: P1_14  and  C10_15 
ROOT
HETATM    1  C3  UNL     1      25.415  -0.491  52.990  1.00  0.00     0.251 C 
HETATM    2  C4  UNL     1      25.912   0.789  52.442  1.00  0.00     0.058 C 
HETATM    3  C5  UNL     1      26.873   1.728  52.484  1.00  0.00     0.123 C 
HETATM    4  N3  UNL     1      28.070   2.255  53.009  1.00  0.00    -0.225 NA
HETATM    5  C11 UNL     1      29.001   1.478  53.405  1.00  0.00     0.235 C 
HETATM    6  N4  UNL     1      28.275   0.313  53.080  1.00  0.00    -0.241 NA
HETATM    7  C12 UNL     1      28.694  -0.893  53.233  1.00  0.00     0.107 A 
HETATM    8  C13 UNL     1      29.290  -2.189  53.459  1.00  0.00     0.144 A 
HETATM    9  N5  UNL     1      28.245  -2.768  53.043  1.00  0.00    -0.258 NA
HETATM   10  C14 UNL     1      27.510  -1.594  52.759  1.00  0.00     0.396 A 
HETATM   11  N6  UNL     1      26.409  -1.289  53.666  1.00  0.00     0.122 N 
HETATM   12  H17 UNL     1      26.759  -0.831  54.512  1.00  0.00     0.320 HD
ENDROOT
BRANCH   3  13
HETATM   13  N2  UNL     1      26.813   2.880  51.612  1.00  0.00    -0.371 N 
HETATM   14  H7  UNL     1      27.495   3.634  51.933  1.00  0.00     0.161 HD
BRANCH  13  15
HETATM   15  C6  UNL     1      26.005   3.149  50.437  1.00  0.00     0.150 C 
BRANCH  15  16
HETATM   16  C7  UNL     1      26.754   4.024  49.510  1.00  0.00     0.025 C 
HETATM   17  C8  UNL     1      27.061   5.168  48.864  1.00  0.00     0.077 C 
HETATM   18 CL1  UNL     1      27.584   6.545  47.958  1.00  0.00    -0.075 Cl
BRANCH  17  19
HETATM   19  C9  UNL     1      26.047   5.757  49.504  1.00  0.00    -0.102 C 
BRANCH  19  20
HETATM   20  P1  UNL     1      24.983   6.374  50.148  1.00  0.00    -0.024 P 
HETATM   21  H11 UNL     1      23.000   7.500  51.397  1.00  0.00     0.072 HD
BRANCH  20  22
HETATM   22  C10 UNL     1      24.179   6.849  50.617  1.00  0.00     0.265 C 
HETATM   23  F1  UNL     1      24.169   8.469  50.825  1.00  0.00    -0.250 F 
ENDBRANCH  20  22
ENDBRANCH  19  20
ENDBRANCH  17  19
ENDBRANCH  15  16
ENDBRANCH  13  15
ENDBRANCH   3  13
BRANCH   1  24
HETATM   24  C2  UNL     1      24.272  -0.191  53.950  1.00  0.00     0.064 C 
BRANCH  24  25
HETATM   25  C1  UNL     1      23.024  -0.891  53.460  1.00  0.00     0.184 C 
BRANCH  25  26
HETATM   26  N1  UNL     1      22.232  -1.358  54.575  1.00  0.00    -0.141 NA
HETATM   27  O1  UNL     1      22.747  -1.635  55.615  1.00  0.00    -0.067 OA
ENDBRANCH  25  26
ENDBRANCH  24  25
ENDBRANCH   1  24
TORSDOF 9
ENDMDL
MODEL 2
REMARK VINA RESULT:      -7.3      2.261      2.414
REMARK  9 active torsions:
REMARK  status: ('A' for Active; 'I' for Inactive)
REMARK    1  A    between atoms: N1_2  and  C1_3 
REMARK    2  A    between atoms: C1_3  and  C2_4 
REMARK    3  A    between atoms: C2_4  and  C3_5 
REMARK    4  A    between atoms: C5_7  and  N2_8 
REMARK    5  A    between atoms: N2_8  and  C6_9 
REMARK    6  A    between atoms: C6_9  and  C7_10 
REMARK    7  A    between atoms: C8_11  and  C9_13 
REMARK    8  A    between atoms: C9_13  and  P1_14 
REMARK    9  A    between atoms: P1_14  and  C10_15 
ROOT
HETATM    1  C3  UNL     1      25.339  -0.329  52.907  1.00  0.00     0.251 C 
HETATM    2  C4  UNL     1      25.900   0.929  52.369  1.00  0.00     0.058 C 
HETATM    3  C5  UNL     1      26.896   1.829  52.432  1.00  0.00     0.123 C 
HETATM    4  N3  UNL     1      28.100   2.310  52.985  1.00  0.00    -0.225 NA
HETATM    5  C11 UNL     1      28.990   1.497  53.404  1.00  0.00     0.235 C 
HETATM    6  N4  UNL     1      28.226   0.362  53.064  1.00  0.00    -0.241 NA
HETATM    7  C12 UNL     1      28.593  -0.860  53.230  1.00  0.00     0.107 A 
HETATM    8  C13 UNL     1      29.131  -2.178  53.473  1.00  0.00     0.144 A 
HETATM    9  N5  UNL     1      28.075  -2.716  53.033  1.00  0.00    -0.258 NA
HETATM   10  C14 UNL     1      27.393  -1.515  52.729  1.00  0.00     0.396 A 
HETATM   11  N6  UNL     1      26.284  -1.163  53.609  1.00  0.00     0.122 N 
HETATM   12  H17 UNL     1      26.632  -0.717  54.463  1.00  0.00     0.320 HD
ENDROOT
BRANCH   3  13
HETATM   13  N2  UNL     1      26.903   2.980  51.557  1.00  0.00    -0.371 N 
HETATM   14  H7  UNL     1      27.423   3.795  52.006  1.00  0.00     0.161 HD
BRANCH  13  15
HETATM   15  C6  UNL     1      26.333   3.181  50.237  1.00  0.00     0.150 C 
BRANCH  15  16
HETATM   16  C7  UNL     1      25.630   4.480  50.194  1.00  0.00     0.025 C 
HETATM   17  C8  UNL     1      24.589   5.329  50.326  1.00  0.00     0.077 C 
HETATM   18 CL1  UNL     1      23.365   6.544  50.441  1.00  0.00    -0.075 Cl
BRANCH  17  19
HETATM   19  C9  UNL     1      23.841   4.292  50.710  1.00  0.00    -0.102 C 
BRANCH  19  20
HETATM   20  P1  UNL     1      23.058   3.225  51.131  1.00  0.00    -0.024 P 
HETATM   21  H11 UNL     1      21.617   1.196  51.886  1.00  0.00     0.072 HD
BRANCH  20  22
HETATM   22  C10 UNL     1      22.459   2.434  51.461  1.00  0.00     0.265 C 
HETATM   23  F1  UNL     1      22.552   0.963  50.756  1.00  0.00    -0.250 F 
ENDBRANCH  20  22
ENDBRANCH  19  20
ENDBRANCH  17  19
ENDBRANCH  15  16
ENDBRANCH  13  15
ENDBRANCH   3  13
BRANCH   1  24
HETATM   24  C2  UNL     1      24.186   0.019  53.839  1.00  0.00     0.064 C 
BRANCH  24  25
HETATM   25  C1  UNL     1      23.005  -0.864  53.507  1.00  0.00     0.184 C 
BRANCH  25  26
HETATM   26  N1  UNL     1      22.248  -1.170  54.700  1.00  0.00    -0.141 NA
HETATM   27  O1  UNL     1      22.771  -1.690  55.637  1.00  0.00    -0.067 OA
ENDBRANCH  25  26
ENDBRANCH  24  25
ENDBRANCH   1  24
TORSDOF 9
ENDMDL
MODEL 3
REMARK VINA RESULT:      -7.3      1.929      2.212
REMARK  9 active torsions:
REMARK  status: ('A' for Active; 'I' for Inactive)
REMARK    1  A    between atoms: N1_2  and  C1_3 
REMARK    2  A    between atoms: C1_3  and  C2_4 
REMARK    3  A    between atoms: C2_4  and  C3_5 
REMARK    4  A    between atoms: C5_7  and  N2_8 
REMARK    5  A    between atoms: N2_8  and  C6_9 
REMARK    6  A    between atoms: C6_9  and  C7_10 
REMARK    7  A    between atoms: C8_11  and  C9_13 
REMARK    8  A    between atoms: C9_13  and  P1_14 
REMARK    9  A    between atoms: P1_14  and  C10_15 
ROOT
HETATM    1  C3  UNL     1      25.384  -0.608  52.916  1.00  0.00     0.251 C 
HETATM    2  C4  UNL     1      25.799   0.715  52.401  1.00  0.00     0.058 C 
HETATM    3  C5  UNL     1      26.675   1.730  52.496  1.00  0.00     0.123 C 
HETATM    4  N3  UNL     1      27.797   2.348  53.083  1.00  0.00    -0.225 NA
HETATM    5  C11 UNL     1      28.770   1.646  53.519  1.00  0.00     0.235 C 
HETATM    6  N4  UNL     1      28.159   0.430  53.152  1.00  0.00    -0.241 NA
HETATM    7  C12 UNL     1      28.670  -0.740  53.318  1.00  0.00     0.107 A 
HETATM    8  C13 UNL     1      29.360  -1.984  53.564  1.00  0.00     0.144 A 
HETATM    9  N5  UNL     1      28.388  -2.643  53.094  1.00  0.00    -0.258 NA
HETATM   10  C14 UNL     1      27.572  -1.531  52.782  1.00  0.00     0.396 A 
HETATM   11  N6  UNL     1      26.406  -1.327  53.635  1.00  0.00     0.122 N 
HETATM   12  H17 UNL     1      26.676  -0.851  54.501  1.00  0.00     0.320 HD
ENDROOT
BRANCH   3  13
HETATM   13  N2  UNL     1      26.562   2.881  51.630  1.00  0.00    -0.371 N 
HETATM   14  H7  UNL     1      26.501   3.780  52.200  1.00  0.00     0.161 HD
BRANCH  13  15
HETATM   15  C6  UNL     1      26.515   2.989  50.183  1.00  0.00     0.150 C 
BRANCH  15  16
HETATM   16  C7  UNL     1      25.551   4.040  49.796  1.00  0.00     0.025 C 
HETATM   17  C8  UNL     1      25.140   5.199  49.239  1.00  0.00     0.077 C 
HETATM   18 CL1  UNL     1      24.452   6.642  48.581  1.00  0.00    -0.075 Cl
BRANCH  17  19
HETATM   19  C9  UNL     1      26.404   5.427  48.873  1.00  0.00    -0.102 C 
BRANCH  19  20
HETATM   20  P1  UNL     1      27.725   5.665  48.515  1.00  0.00    -0.024 P 
HETATM   21  H11 UNL     1      30.194   6.072  47.810  1.00  0.00     0.072 HD
BRANCH  20  22
HETATM   22  C10 UNL     1      28.720   5.858  48.260  1.00  0.00     0.265 C 
HETATM   23  F1  UNL     1      29.706   4.654  47.764  1.00  0.00    -0.250 F 
ENDBRANCH  20  22
ENDBRANCH  19  20
ENDBRANCH  17  19
ENDBRANCH  15  16
ENDBRANCH  13  15
ENDBRANCH   3  13
BRANCH   1  24
HETATM   24  C2  UNL     1      24.174  -0.413  53.821  1.00  0.00     0.064 C 
BRANCH  24  25
HETATM   25  C1  UNL     1      24.444  -1.082  55.149  1.00  0.00     0.184 C 
BRANCH  25  26
HETATM   26  N1  UNL     1      23.214  -1.561  55.737  1.00  0.00    -0.141 NA
HETATM   27  O1  UNL     1      22.157  -1.219  55.301  1.00  0.00    -0.067 OA
ENDBRANCH  25  26
ENDBRANCH  24  25
ENDBRANCH   1  24
TORSDOF 9
ENDMDL
MODEL 4
REMARK VINA RESULT:      -7.2      3.629      5.487
REMARK  9 active torsions:
REMARK  status: ('A' for Active; 'I' for Inactive)
REMARK    1  A    between atoms: N1_2  and  C1_3 
REMARK    2  A    between atoms: C1_3  and  C2_4 
REMARK    3  A    between atoms: C2_4  and  C3_5 
REMARK    4  A    between atoms: C5_7  and  N2_8 
REMARK    5  A    between atoms: N2_8  and  C6_9 
REMARK    6  A    between atoms: C6_9  and  C7_10 
REMARK    7  A    between atoms: C8_11  and  C9_13 
REMARK    8  A    between atoms: C9_13  and  P1_14 
REMARK    9  A    between atoms: P1_14  and  C10_15 
ROOT
HETATM    1  C3  UNL     1      25.669   2.754  52.014  1.00  0.00     0.251 C 
HETATM    2  C4  UNL     1      24.775   1.706  52.550  1.00  0.00     0.058 C 
HETATM    3  C5  UNL     1      24.656   0.422  52.930  1.00  0.00     0.123 C 
HETATM    4  N3  UNL     1      25.187  -0.871  53.117  1.00  0.00    -0.225 NA
HETATM    5  C11 UNL     1      26.409  -1.027  53.449  1.00  0.00     0.235 C 
HETATM    6  N4  UNL     1      26.664   0.360  53.465  1.00  0.00    -0.241 NA
HETATM    7  C12 UNL     1      27.791   0.906  53.761  1.00  0.00     0.107 A 
HETATM    8  C13 UNL     1      29.108   1.383  54.114  1.00  0.00     0.144 A 
HETATM    9  N5  UNL     1      28.747   2.582  53.934  1.00  0.00    -0.258 NA
HETATM   10  C14 UNL     1      27.412   2.298  53.566  1.00  0.00     0.396 A 
HETATM   11  N6  UNL     1      27.078   2.484  52.158  1.00  0.00     0.122 N 
HETATM   12  H17 UNL     1      27.372   1.670  51.610  1.00  0.00     0.320 HD
ENDROOT
BRANCH   3  13
HETATM   13  N2  UNL     1      23.396  -0.083  53.427  1.00  0.00    -0.371 N 
HETATM   14  H7  UNL     1      23.549  -0.936  54.049  1.00  0.00     0.161 HD
BRANCH  13  15
HETATM   15  C6  UNL     1      22.033   0.367  53.212  1.00  0.00     0.150 C 
BRANCH  15  16
HETATM   16  C7  UNL     1      21.700   0.268  51.774  1.00  0.00     0.025 C 
HETATM   17  C8  UNL     1      21.389   0.721  50.542  1.00  0.00     0.077 C 
HETATM   18 CL1  UNL     1      20.987   1.133  48.912  1.00  0.00    -0.075 Cl
BRANCH  17  19
HETATM   19  C9  UNL     1      21.433   1.964  51.029  1.00  0.00    -0.102 C 
BRANCH  19  20
HETATM   20  P1  UNL     1      21.498   3.261  51.521  1.00  0.00    -0.024 P 
HETATM   21  H11 UNL     1      21.585   5.676  52.480  1.00  0.00     0.072 HD
BRANCH  20  22
HETATM   22  C10 UNL     1      21.560   4.242  51.878  1.00  0.00     0.265 C 
HETATM   23  F1  UNL     1      22.770   4.695  52.877  1.00  0.00    -0.250 F 
ENDBRANCH  20  22
ENDBRANCH  19  20
ENDBRANCH  17  19
ENDBRANCH  15  16
ENDBRANCH  13  15
ENDBRANCH   3  13
BRANCH   1  24
HETATM   24  C2  UNL     1      25.343   2.954  50.539  1.00  0.00     0.064 C 
BRANCH  24  25
HETATM   25  C1  UNL     1      26.058   4.190  50.043  1.00  0.00     0.184 C 
BRANCH  25  26
HETATM   26  N1  UNL     1      27.213   3.827  49.253  1.00  0.00    -0.141 NA
HETATM   27  O1  UNL     1      27.910   4.666  48.771  1.00  0.00    -0.067 OA
ENDBRANCH  25  26
ENDBRANCH  24  25
ENDBRANCH   1  24
TORSDOF 9
ENDMDL
MODEL 5
REMARK VINA RESULT:      -7.0      2.296      4.302
REMARK  9 active torsions:
REMARK  status: ('A' for Active; 'I' for Inactive)
REMARK    1  A    between atoms: N1_2  and  C1_3 
REMARK    2  A    between atoms: C1_3  and  C2_4 
REMARK    3  A    between atoms: C2_4  and  C3_5 
REMARK    4  A    between atoms: C5_7  and  N2_8 
REMARK    5  A    between atoms: N2_8  and  C6_9 
REMARK    6  A    between atoms: C6_9  and  C7_10 
REMARK    7  A    between atoms: C8_11  and  C9_13 
REMARK    8  A    between atoms: C9_13  and  P1_14 
REMARK    9  A    between atoms: P1_14  and  C10_15 
ROOT
HETATM    1  C3  UNL     1      25.125   0.278  53.158  1.00  0.00     0.251 C 
HETATM    2  C4  UNL     1      24.422   1.370  52.451  1.00  0.00     0.058 C 
HETATM    3  C5  UNL     1      23.371   1.716  51.689  1.00  0.00     0.123 C 
HETATM    4  N3  UNL     1      22.192   1.399  50.984  1.00  0.00    -0.225 NA
HETATM    5  C11 UNL     1      21.411   0.483  51.407  1.00  0.00     0.235 C 
HETATM    6  N4  UNL     1      22.223   0.197  52.523  1.00  0.00    -0.241 NA
HETATM    7  C12 UNL     1      21.967  -0.687  53.423  1.00  0.00     0.107 A 
HETATM    8  C13 UNL     1      21.556  -1.708  54.358  1.00  0.00     0.144 A 
HETATM    9  N5  UNL     1      22.604  -1.534  55.044  1.00  0.00    -0.258 NA
HETATM   10  C14 UNL     1      23.160  -0.513  54.239  1.00  0.00     0.396 A 
HETATM   11  N6  UNL     1      24.318  -0.885  53.435  1.00  0.00     0.122 N 
HETATM   12  H17 UNL     1      24.021  -1.360  52.578  1.00  0.00     0.320 HD
ENDROOT
BRANCH   3  13
HETATM   13  N2  UNL     1      23.192   3.086  51.262  1.00  0.00    -0.371 N 
HETATM   14  H7  UNL     1      22.947   3.712  52.090  1.00  0.00     0.161 HD
BRANCH  13  15
HETATM   15  C6  UNL     1      23.285   3.698  49.949  1.00  0.00     0.150 C 
BRANCH  15  16
HETATM   16  C7  UNL     1      24.693   3.693  49.498  1.00  0.00     0.025 C 
HETATM   17  C8  UNL     1      25.910   4.212  49.236  1.00  0.00     0.077 C 
HETATM   18 CL1  UNL     1      27.517   4.717  48.845  1.00  0.00    -0.075 Cl
BRANCH  17  19
HETATM   19  C9  UNL     1      25.455   5.395  49.657  1.00  0.00    -0.102 C 
BRANCH  19  20
HETATM   20  P1  UNL     1      24.999   6.625  50.111  1.00  0.00    -0.024 P 
HETATM   21  H11 UNL     1      24.103   8.905  50.984  1.00  0.00     0.072 HD
BRANCH  20  22
HETATM   22  C10 UNL     1      24.671   7.560  50.445  1.00  0.00     0.265 C 
HETATM   23  F1  UNL     1      25.646   8.868  50.363  1.00  0.00    -0.250 F 
ENDBRANCH  20  22
ENDBRANCH  19  20
ENDBRANCH  17  19
ENDBRANCH  15  16
ENDBRANCH  13  15
ENDBRANCH   3  13
BRANCH   1  24
HETATM   24  C2  UNL     1      26.333  -0.134  52.326  1.00  0.00     0.064 C 
BRANCH  24  25
HETATM   25  C1  UNL     1      27.231  -1.012  53.167  1.00  0.00     0.184 C 
BRANCH  25  26
HETATM   26  N1  UNL     1      27.226  -0.573  54.544  1.00  0.00    -0.141 NA
HETATM   27  O1  UNL     1      28.229  -0.199  55.069  1.00  0.00    -0.067 OA
ENDBRANCH  25  26
ENDBRANCH  24  25
ENDBRANCH   1  24
TORSDOF 9
ENDMDL
MODEL 6
REMARK VINA RESULT:      -6.8      4.122      6.271
REMARK  9 active torsions:
REMARK  status: ('A' for Active; 'I' for Inactive)
REMARK    1  A    between atoms: N1_2  and  C1_3 
REMARK    2  A    between atoms: C1_3  and  C2_4 
REMARK    3  A    between atoms: C2_4  and  C3_5 
REMARK    4  A    between atoms: C5_7  and  N2_8 
REMARK    5  A    between atoms: N2_8  and  C6_9 
REMARK    6  A    between atoms: C6_9  and  C7_10 
REMARK    7  A    between atoms: C8_11  and  C9_13 
REMARK    8  A    between atoms: C9_13  and  P1_14 
REMARK    9  A    between atoms: P1_14  and  C10_15 
ROOT
HETATM    1  C3  UNL     1      26.076   1.444  52.493  1.00  0.00     0.251 C 
HETATM    2  C4  UNL     1      24.603   1.316  52.512  1.00  0.00     0.058 C 
HETATM    3  C5  UNL     1      23.422   1.953  52.441  1.00  0.00     0.123 C 
HETATM    4  N3  UNL     1      22.652   3.127  52.316  1.00  0.00    -0.225 NA
HETATM    5  C11 UNL     1      23.067   4.102  51.605  1.00  0.00     0.235 C 
HETATM    6  N4  UNL     1      24.256   3.435  51.246  1.00  0.00    -0.241 NA
HETATM    7  C12 UNL     1      25.170   3.908  50.473  1.00  0.00     0.107 A 
HETATM    8  C13 UNL     1      26.111   4.559  49.593  1.00  0.00     0.144 A 
HETATM    9  N5  UNL     1      26.899   3.572  49.667  1.00  0.00    -0.258 NA
HETATM   10  C14 UNL     1      26.100   2.790  50.532  1.00  0.00     0.396 A 
HETATM   11  N6  UNL     1      26.572   2.665  51.907  1.00  0.00     0.122 N 
HETATM   12  H17 UNL     1      26.305   3.490  52.453  1.00  0.00     0.320 HD
ENDROOT
BRANCH   3  13
HETATM   13  N2  UNL     1      22.182   1.215  52.527  1.00  0.00    -0.371 N 
HETATM   14  H7  UNL     1      21.613   1.527  53.374  1.00  0.00     0.161 HD
BRANCH  13  15
HETATM   15  C6  UNL     1      21.632   0.168  51.686  1.00  0.00     0.150 C 
BRANCH  15  16
HETATM   16  C7  UNL     1      20.311   0.589  51.171  1.00  0.00     0.025 C 
HETATM   17  C8  UNL     1      19.443   1.151  50.304  1.00  0.00     0.077 C 
HETATM   18 CL1  UNL     1      18.202   1.823  49.305  1.00  0.00    -0.075 Cl
BRANCH  17  19
HETATM   19  C9  UNL     1      20.482   1.466  49.526  1.00  0.00    -0.102 C 
BRANCH  19  20
HETATM   20  P1  UNL     1      21.547   1.808  48.704  1.00  0.00    -0.024 P 
HETATM   21  H11 UNL     1      23.529   2.498  47.169  1.00  0.00     0.072 HD
BRANCH  20  22
HETATM   22  C10 UNL     1      22.354   2.046  48.083  1.00  0.00     0.265 C 
HETATM   23  F1  UNL     1      22.930   3.573  48.008  1.00  0.00    -0.250 F 
ENDBRANCH  20  22
ENDBRANCH  19  20
ENDBRANCH  17  19
ENDBRANCH  15  16
ENDBRANCH  13  15
ENDBRANCH   3  13
BRANCH   1  24
HETATM   24  C2  UNL     1      26.586   1.328  53.923  1.00  0.00     0.064 C 
BRANCH  24  25
HETATM   25  C1  UNL     1      28.088   1.161  53.895  1.00  0.00     0.184 C 
BRANCH  25  26
HETATM   26  N1  UNL     1      28.744   2.399  54.250  1.00  0.00    -0.141 NA
HETATM   27  O1  UNL     1      29.657   2.407  55.018  1.00  0.00    -0.067 OA
ENDBRANCH  25  26
ENDBRANCH  24  25
ENDBRANCH   1  24
TORSDOF 9
ENDMDL
MODEL 7
REMARK VINA RESULT:      -6.7      3.134      3.428
REMARK  9 active torsions:
REMARK  status: ('A' for Active; 'I' for Inactive)
REMARK    1  A    between atoms: N1_2  and  C1_3 
REMARK    2  A    between atoms: C1_3  and  C2_4 
REMARK    3  A    between atoms: C2_4  and  C3_5 
REMARK    4  A    between atoms: C5_7  and  N2_8 
REMARK    5  A    between atoms: N2_8  and  C6_9 
REMARK    6  A    between atoms: C6_9  and  C7_10 
REMARK    7  A    between atoms: C8_11  and  C9_13 
REMARK    8  A    between atoms: C9_13  and  P1_14 
REMARK    9  A    between atoms: P1_14  and  C10_15 
ROOT
HETATM    1  C3  UNL     1      25.237  -0.700  53.395  1.00  0.00     0.251 C 
HETATM    2  C4  UNL     1      25.421   0.693  52.934  1.00  0.00     0.058 C 
HETATM    3  C5  UNL     1      26.173   1.805  53.001  1.00  0.00     0.123 C 
HETATM    4  N3  UNL     1      27.276   2.528  53.499  1.00  0.00    -0.225 NA
HETATM    5  C11 UNL     1      28.372   1.934  53.768  1.00  0.00     0.235 C 
HETATM    6  N4  UNL     1      27.873   0.672  53.385  1.00  0.00    -0.241 NA
HETATM    7  C12 UNL     1      28.538  -0.429  53.407  1.00  0.00     0.107 A 
HETATM    8  C13 UNL     1      29.399  -1.586  53.481  1.00  0.00     0.144 A 
HETATM    9  N5  UNL     1      28.464  -2.337  53.079  1.00  0.00    -0.258 NA
HETATM   10  C14 UNL     1      27.487  -1.324  52.944  1.00  0.00     0.396 A 
HETATM   11  N6  UNL     1      26.420  -1.321  53.938  1.00  0.00     0.122 N 
HETATM   12  H17 UNL     1      26.734  -0.865  54.800  1.00  0.00     0.320 HD
ENDROOT
BRANCH   3  13
HETATM   13  N2  UNL     1      25.815   2.980  52.239  1.00  0.00    -0.371 N 
HETATM   14  H7  UNL     1      26.477   3.788  52.456  1.00  0.00     0.161 HD
BRANCH  13  15
HETATM   15  C6  UNL     1      24.747   3.213  51.284  1.00  0.00     0.150 C 
BRANCH  15  16
HETATM   16  C7  UNL     1      23.457   3.316  52.000  1.00  0.00     0.025 C 
HETATM   17  C8  UNL     1      22.116   3.290  52.142  1.00  0.00     0.077 C 
HETATM   18 CL1  UNL     1      20.423   3.296  52.495  1.00  0.00    -0.075 Cl
BRANCH  17  19
HETATM   19  C9  UNL     1      22.020   3.008  50.841  1.00  0.00    -0.102 C 
BRANCH  19  20
HETATM   20  P1  UNL     1      21.907   2.695  49.492  1.00  0.00    -0.024 P 
HETATM   21  H11 UNL     1      21.669   2.067  46.981  1.00  0.00     0.072 HD
BRANCH  20  22
HETATM   22  C10 UNL     1      21.831   2.477  48.473  1.00  0.00     0.265 C 
HETATM   23  F1  UNL     1      23.117   1.912  47.639  1.00  0.00    -0.250 F 
ENDBRANCH  20  22
ENDBRANCH  19  20
ENDBRANCH  17  19
ENDBRANCH  15  16
ENDBRANCH  13  15
ENDBRANCH   3  13
BRANCH   1  24
HETATM   24  C2  UNL     1      24.133  -0.716  54.445  1.00  0.00     0.064 C 
BRANCH  24  25
HETATM   25  C1  UNL     1      22.822  -0.361  53.782  1.00  0.00     0.184 C 
BRANCH  25  26
HETATM   26  N1  UNL     1      21.709  -0.856  54.559  1.00  0.00    -0.141 NA
HETATM   27  O1  UNL     1      21.835  -1.806  55.269  1.00  0.00    -0.067 OA
ENDBRANCH  25  26
ENDBRANCH  24  25
ENDBRANCH   1  24
TORSDOF 9
ENDMDL
MODEL 8
REMARK VINA RESULT:      -6.7      4.921      7.311
REMARK  9 active torsions:
REMARK  status: ('A' for Active; 'I' for Inactive)
REMARK    1  A    between atoms: N1_2  and  C1_3 
REMARK    2  A    between atoms: C1_3  and  C2_4 
REMARK    3  A    between atoms: C2_4  and  C3_5 
REMARK    4  A    between atoms: C5_7  and  N2_8 
REMARK    5  A    between atoms: N2_8  and  C6_9 
REMARK    6  A    between atoms: C6_9  and  C7_10 
REMARK    7  A    between atoms: C8_11  and  C9_13 
REMARK    8  A    between atoms: C9_13  and  P1_14 
REMARK    9  A    between atoms: P1_14  and  C10_15 
ROOT
HETATM    1  C3  UNL     1      25.756   2.140  52.166  1.00  0.00     0.251 C 
HETATM    2  C4  UNL     1      24.289   2.189  51.992  1.00  0.00     0.058 C 
HETATM    3  C5  UNL     1      23.218   2.954  51.719  1.00  0.00     0.123 C 
HETATM    4  N3  UNL     1      22.628   4.197  51.413  1.00  0.00    -0.225 NA
HETATM    5  C11 UNL     1      23.251   5.053  50.702  1.00  0.00     0.235 C 
HETATM    6  N4  UNL     1      24.381   4.223  50.553  1.00  0.00    -0.241 NA
HETATM    7  C12 UNL     1      25.439   4.518  49.882  1.00  0.00     0.107 A 
HETATM    8  C13 UNL     1      26.561   4.978  49.097  1.00  0.00     0.144 A 
HETATM    9  N5  UNL     1      27.199   3.914  49.344  1.00  0.00    -0.258 NA
HETATM   10  C14 UNL     1      26.203   3.306  50.142  1.00  0.00     0.396 A 
HETATM   11  N6  UNL     1      26.476   3.241  51.574  1.00  0.00     0.122 N 
HETATM   12  H17 UNL     1      26.250   4.133  52.022  1.00  0.00     0.320 HD
ENDROOT
BRANCH   3  13
HETATM   13  N2  UNL     1      21.893   2.378  51.684  1.00  0.00    -0.371 N 
HETATM   14  H7  UNL     1      21.833   1.610  50.946  1.00  0.00     0.161 HD
BRANCH  13  15
HETATM   15  C6  UNL     1      20.700   2.675  52.455  1.00  0.00     0.150 C 
BRANCH  15  16
HETATM   16  C7  UNL     1      19.556   1.910  51.913  1.00  0.00     0.025 C 
HETATM   17  C8  UNL     1      18.746   0.844  51.753  1.00  0.00     0.077 C 
HETATM   18 CL1  UNL     1      17.614  -0.424  51.436  1.00  0.00    -0.075 Cl
BRANCH  17  19
HETATM   19  C9  UNL     1      19.518   0.175  52.614  1.00  0.00    -0.102 C 
BRANCH  19  20
HETATM   20  P1  UNL     1      20.307  -0.540  53.505  1.00  0.00    -0.024 P 
HETATM   21  H11 UNL     1      21.822  -1.843  55.168  1.00  0.00     0.072 HD
BRANCH  20  22
HETATM   22  C10 UNL     1      20.887  -1.091  54.178  1.00  0.00     0.265 C 
HETATM   23  F1  UNL     1      21.792  -0.342  55.313  1.00  0.00    -0.250 F 
ENDBRANCH  20  22
ENDBRANCH  19  20
ENDBRANCH  17  19
ENDBRANCH  15  16
ENDBRANCH  13  15
ENDBRANCH   3  13
BRANCH   1  24
HETATM   24  C2  UNL     1      26.062   2.083  53.657  1.00  0.00     0.064 C 
BRANCH  24  25
HETATM   25  C1  UNL     1      27.425   1.460  53.855  1.00  0.00     0.184 C 
BRANCH  25  26
HETATM   26  N1  UNL     1      28.423   2.481  54.079  1.00  0.00    -0.141 NA
HETATM   27  O1  UNL     1      29.111   2.867  53.186  1.00  0.00    -0.067 OA
ENDBRANCH  25  26
ENDBRANCH  24  25
ENDBRANCH   1  24
TORSDOF 9
ENDMDL
MODEL 9
REMARK VINA RESULT:      -6.6      2.802      4.876
REMARK  9 active torsions:
REMARK  status: ('A' for Active; 'I' for Inactive)
REMARK    1  A    between atoms: N1_2  and  C1_3 
REMARK    2  A    between atoms: C1_3  and  C2_4 
REMARK    3  A    between atoms: C2_4  and  C3_5 
REMARK    4  A    between atoms: C5_7  and  N2_8 
REMARK    5  A    between atoms: N2_8  and  C6_9 
REMARK    6  A    between atoms: C6_9  and  C7_10 
REMARK    7  A    between atoms: C8_11  and  C9_13 
REMARK    8  A    between atoms: C9_13  and  P1_14 
REMARK    9  A    between atoms: P1_14  and  C10_15 
ROOT
HETATM    1  C3  UNL     1      24.926   0.058  53.355  1.00  0.00     0.251 C 
HETATM    2  C4  UNL     1      24.375   1.145  52.518  1.00  0.00     0.058 C 
HETATM    3  C5  UNL     1      23.426   1.512  51.640  1.00  0.00     0.123 C 
HETATM    4  N3  UNL     1      22.293   1.232  50.850  1.00  0.00    -0.225 NA
HETATM    5  C11 UNL     1      21.409   0.406  51.254  1.00  0.00     0.235 C 
HETATM    6  N4  UNL     1      22.094   0.141  52.457  1.00  0.00    -0.241 NA
HETATM    7  C12 UNL     1      21.691  -0.657  53.383  1.00  0.00     0.107 A 
HETATM    8  C13 UNL     1      21.121  -1.579  54.338  1.00  0.00     0.144 A 
HETATM    9  N5  UNL     1      22.114  -1.432  55.107  1.00  0.00    -0.258 NA
HETATM   10  C14 UNL     1      22.817  -0.513  54.295  1.00  0.00     0.396 A 
HETATM   11  N6  UNL     1      24.009  -1.022  53.628  1.00  0.00     0.122 N 
HETATM   12  H17 UNL     1      23.753  -1.533  52.778  1.00  0.00     0.320 HD
ENDROOT
BRANCH   3  13
HETATM   13  N2  UNL     1      23.393   2.858  51.113  1.00  0.00    -0.371 N 
HETATM   14  H7  UNL     1      22.665   2.944  50.339  1.00  0.00     0.161 HD
BRANCH  13  15
HETATM   15  C6  UNL     1      24.164   4.039  51.457  1.00  0.00     0.150 C 
BRANCH  15  16
HETATM   16  C7  UNL     1      23.527   5.235  50.867  1.00  0.00     0.025 C 
HETATM   17  C8  UNL     1      23.428   6.317  50.066  1.00  0.00     0.077 C 
HETATM   18 CL1  UNL     1      23.141   7.728  49.109  1.00  0.00    -0.075 Cl
BRANCH  17  19
HETATM   19  C9  UNL     1      24.653   6.043  49.609  1.00  0.00    -0.102 C 
BRANCH  19  20
HETATM   20  P1  UNL     1      25.929   5.783  49.128  1.00  0.00    -0.024 P 
HETATM   21  H11 UNL     1      28.338   5.326  48.262  1.00  0.00     0.072 HD
BRANCH  20  22
HETATM   22  C10 UNL     1      26.882   5.574  48.752  1.00  0.00     0.265 C 
HETATM   23  F1  UNL     1      27.464   4.048  48.746  1.00  0.00    -0.250 F 
ENDBRANCH  20  22
ENDBRANCH  19  20
ENDBRANCH  17  19
ENDBRANCH  15  16
ENDBRANCH  13  15
ENDBRANCH   3  13
BRANCH   1  24
HETATM   24  C2  UNL     1      26.167  -0.496  52.667  1.00  0.00     0.064 C 
BRANCH  24  25
HETATM   25  C1  UNL     1      27.391   0.164  53.260  1.00  0.00     0.184 C 
BRANCH  25  26
HETATM   26  N1  UNL     1      28.082  -0.747  54.143  1.00  0.00    -0.141 NA
HETATM   27  O1  UNL     1      28.824  -1.573  53.708  1.00  0.00    -0.067 OA
ENDBRANCH  25  26
ENDBRANCH  24  25
ENDBRANCH   1  24
TORSDOF 9
ENDMDL
