MODEL 1
REMARK VINA RESULT:      -8.5      0.000      0.000
REMARK  1 active torsions:
REMARK  status: ('A' for Active; 'I' for Inactive)
REMARK    1  A    between atoms: N1_4  and  C3_5 
ROOT
HETATM    1  C3  UNL     1      29.722   6.393  48.444  1.00  0.00     0.152 A 
HETATM    2  N2  UNL     1      29.193   5.208  48.440  1.00  0.00    -0.214 NA
HETATM    3  C4  UNL     1      27.792   5.042  48.498  1.00  0.00     0.294 A 
HETATM    4  N3  UNL     1      27.707   6.203  48.558  1.00  0.00    -0.426 NA
HETATM    5  C5  UNL     1      27.553   7.504  48.627  1.00  0.00     0.150 A 
HETATM    6  C6  UNL     1      27.162   8.847  48.549  1.00  0.00     0.064 A 
HETATM    7  C7  UNL     1      26.299   8.053  47.832  1.00  0.00     0.064 A 
HETATM    8  C8  UNL     1      25.951   9.382  47.630  1.00  0.00     0.100 A 
HETATM    9  N4  UNL     1      24.859   9.727  46.757  1.00  0.00    -0.362 N 
HETATM   10  C9  UNL     1      25.657   9.090  45.642  1.00  0.00     0.167 C 
HETATM   11  S1  UNL     1      24.793   9.175  44.223  1.00  0.00    -0.041 SA
HETATM   12  N5  UNL     1      27.011   8.513  45.866  1.00  0.00    -0.367 N 
HETATM   13  C10 UNL     1      28.303   7.930  45.977  1.00  0.00     0.130 C 
HETATM   14  C11 UNL     1      29.122   8.411  47.096  1.00  0.00     0.054 C 
HETATM   15  C12 UNL     1      30.595   8.603  46.698  1.00  0.00     0.009 C 
HETATM   16  C13 UNL     1      30.879  10.007  46.270  1.00  0.00     0.001 C 
HETATM   17  C14 UNL     1      31.002  10.965  47.411  1.00  0.00     0.002 C 
HETATM   18  C15 UNL     1      31.175  10.327  48.771  1.00  0.00     0.030 C 
HETATM   19  C16 UNL     1      29.844   9.885  49.357  1.00  0.00     0.271 C 
HETATM   20  N6  UNL     1      29.701   8.505  49.405  1.00  0.00     0.105 N 
HETATM   21  C17 UNL     1      29.065   7.700  48.453  1.00  0.00     0.259 A 
HETATM   22  H6  UNL     1      23.947  10.127  46.535  1.00  0.00     0.162 HD
HETATM   23  H7  UNL     1      26.794   8.177  44.913  1.00  0.00     0.161 HD
HETATM   24  H21 UNL     1      30.674   8.076  49.589  1.00  0.00     0.317 HD
ENDROOT
BRANCH   1  25
HETATM   25  N1  UNL     1      31.035   5.853  48.386  1.00  0.00    -0.336 N 
HETATM   26  C2  UNL     1      31.175   4.753  47.449  1.00  0.00     0.136 A 
HETATM   27  C1  UNL     1      32.232   4.018  47.058  1.00  0.00     0.153 A 
HETATM   28  F1  UNL     1      32.106   3.022  46.139  1.00  0.00    -0.203 F 
HETATM   29  C20 UNL     1      33.485   4.380  47.700  1.00  0.00     0.071 A 
HETATM   30  C19 UNL     1      33.400   5.356  48.567  1.00  0.00     0.020 A 
HETATM   31 CL1  UNL     1      34.946   3.525  47.304  1.00  0.00    -0.081 Cl
HETATM   32  C18 UNL     1      32.276   6.181  49.048  1.00  0.00     0.159 A 
ENDBRANCH   1  25
TORSDOF 1
ENDMDL
MODEL 2
REMARK VINA RESULT:      -8.3      8.149      9.992
REMARK  1 active torsions:
REMARK  status: ('A' for Active; 'I' for Inactive)
REMARK    1  A    between atoms: N1_4  and  C3_5 
ROOT
HETATM    1  C3  UNL     1      23.605   0.777  53.167  1.00  0.00     0.152 A 
HETATM    2  N2  UNL     1      23.336  -0.282  53.866  1.00  0.00    -0.214 NA
HETATM    3  C4  UNL     1      22.027  -0.520  54.341  1.00  0.00     0.294 A 
HETATM    4  N3  UNL     1      21.719   0.492  53.851  1.00  0.00    -0.426 NA
HETATM    5  C5  UNL     1      21.317   1.621  53.318  1.00  0.00     0.150 A 
HETATM    6  C6  UNL     1      20.654   2.689  52.700  1.00  0.00     0.064 A 
HETATM    7  C7  UNL     1      19.864   1.565  52.695  1.00  0.00     0.064 A 
HETATM    8  C8  UNL     1      19.223   2.560  51.969  1.00  0.00     0.100 A 
HETATM    9  N4  UNL     1      17.954   2.305  51.339  1.00  0.00    -0.362 N 
HETATM   10  C9  UNL     1      18.668   1.258  50.513  1.00  0.00     0.167 C 
HETATM   11  S1  UNL     1      17.580   0.519  49.493  1.00  0.00    -0.041 SA
HETATM   12  N5  UNL     1      20.130   1.004  50.645  1.00  0.00    -0.367 N 
HETATM   13  C10 UNL     1      21.512   0.683  50.702  1.00  0.00     0.130 C 
HETATM   14  C11 UNL     1      22.391   1.744  51.207  1.00  0.00     0.054 C 
HETATM   15  C12 UNL     1      23.707   1.835  50.415  1.00  0.00     0.009 C 
HETATM   16  C13 UNL     1      23.624   2.834  49.307  1.00  0.00     0.001 C 
HETATM   17  C14 UNL     1      23.738   4.251  49.772  1.00  0.00     0.002 C 
HETATM   18  C15 UNL     1      24.261   4.426  51.180  1.00  0.00     0.030 C 
HETATM   19  C16 UNL     1      23.164   4.232  52.214  1.00  0.00     0.271 C 
HETATM   20  N6  UNL     1      23.316   3.069  52.957  1.00  0.00     0.105 N 
HETATM   21  C17 UNL     1      22.707   1.835  52.704  1.00  0.00     0.259 A 
HETATM   22  H6  UNL     1      16.956   2.447  51.184  1.00  0.00     0.162 HD
HETATM   23  H7  UNL     1      19.829   0.206  50.061  1.00  0.00     0.161 HD
HETATM   24  H21 UNL     1      24.373   2.887  53.079  1.00  0.00     0.317 HD
ENDROOT
BRANCH   1  25
HETATM   25  N1  UNL     1      24.973   0.406  53.054  1.00  0.00    -0.336 N 
HETATM   26  C2  UNL     1      25.897   1.467  53.412  1.00  0.00     0.136 A 
HETATM   27  C1  UNL     1      27.239   1.516  53.496  1.00  0.00     0.153 A 
HETATM   28  F1  UNL     1      27.889   2.653  53.868  1.00  0.00    -0.203 F 
HETATM   29  C20 UNL     1      27.907   0.270  53.155  1.00  0.00     0.071 A 
HETATM   30  C19 UNL     1      27.111  -0.707  52.808  1.00  0.00     0.020 A 
HETATM   31 CL1  UNL     1      29.642   0.168  53.213  1.00  0.00    -0.081 Cl
HETATM   32  C18 UNL     1      25.646  -0.816  52.680  1.00  0.00     0.159 A 
ENDBRANCH   1  25
TORSDOF 1
ENDMDL
MODEL 3
REMARK VINA RESULT:      -8.2      6.632      9.014
REMARK  1 active torsions:
REMARK  status: ('A' for Active; 'I' for Inactive)
REMARK    1  A    between atoms: N1_4  and  C3_5 
ROOT
HETATM    1  C3  UNL     1      24.328   3.109  50.773  1.00  0.00     0.152 A 
HETATM    2  N2  UNL     1      25.348   3.877  50.545  1.00  0.00    -0.214 NA
HETATM    3  C4  UNL     1      25.352   4.766  49.448  1.00  0.00     0.294 A 
HETATM    4  N3  UNL     1      24.300   4.348  49.170  1.00  0.00    -0.426 NA
HETATM    5  C5  UNL     1      23.115   3.915  48.811  1.00  0.00     0.150 A 
HETATM    6  C6  UNL     1      21.806   3.715  48.352  1.00  0.00     0.064 A 
HETATM    7  C7  UNL     1      22.157   5.039  48.242  1.00  0.00     0.064 A 
HETATM    8  C8  UNL     1      20.820   4.905  47.894  1.00  0.00     0.100 A 
HETATM    9  N4  UNL     1      20.039   6.058  47.530  1.00  0.00    -0.362 N 
HETATM   10  C9  UNL     1      20.296   6.572  48.929  1.00  0.00     0.167 C 
HETATM   11  S1  UNL     1      19.573   8.059  49.115  1.00  0.00    -0.041 SA
HETATM   12  N5  UNL     1      21.074   5.792  49.930  1.00  0.00    -0.367 N 
HETATM   13  C10 UNL     1      21.808   5.130  50.951  1.00  0.00     0.130 C 
HETATM   14  C11 UNL     1      21.892   3.669  50.828  1.00  0.00     0.054 C 
HETATM   15  C12 UNL     1      21.743   2.963  52.186  1.00  0.00     0.009 C 
HETATM   16  C13 UNL     1      20.328   2.564  52.456  1.00  0.00     0.001 C 
HETATM   17  C14 UNL     1      19.898   1.344  51.707  1.00  0.00     0.002 C 
HETATM   18  C15 UNL     1      21.021   0.530  51.104  1.00  0.00     0.030 C 
HETATM   19  C16 UNL     1      21.487   1.112  49.780  1.00  0.00     0.271 C 
HETATM   20  N6  UNL     1      22.754   1.676  49.849  1.00  0.00     0.105 N 
HETATM   21  C17 UNL     1      23.053   3.027  50.060  1.00  0.00     0.259 A 
HETATM   22  H6  UNL     1      19.477   6.630  46.898  1.00  0.00     0.162 HD
HETATM   23  H7  UNL     1      20.993   6.711  50.396  1.00  0.00     0.161 HD
HETATM   24  H21 UNL     1      23.336   1.105  50.556  1.00  0.00     0.317 HD
ENDROOT
BRANCH   1  25
HETATM   25  N1  UNL     1      24.960   2.535  51.909  1.00  0.00    -0.336 N 
HETATM   26  C2  UNL     1      25.720   1.335  51.611  1.00  0.00     0.136 A 
HETATM   27  C1  UNL     1      26.495   0.536  52.367  1.00  0.00     0.153 A 
HETATM   28  F1  UNL     1      27.120  -0.554  51.843  1.00  0.00    -0.203 F 
HETATM   29  C20 UNL     1      26.588   0.936  53.761  1.00  0.00     0.071 A 
HETATM   30  C19 UNL     1      25.902   2.004  54.077  1.00  0.00     0.020 A 
HETATM   31 CL1  UNL     1      27.551   0.007  54.872  1.00  0.00    -0.081 Cl
HETATM   32  C18 UNL     1      25.028   2.904  53.304  1.00  0.00     0.159 A 
ENDBRANCH   1  25
TORSDOF 1
ENDMDL
MODEL 4
REMARK VINA RESULT:      -8.0      8.714     10.568
REMARK  1 active torsions:
REMARK  status: ('A' for Active; 'I' for Inactive)
REMARK    1  A    between atoms: N1_4  and  C3_5 
ROOT
HETATM    1  C3  UNL     1      22.360   1.569  52.465  1.00  0.00     0.152 A 
HETATM    2  N2  UNL     1      22.104   0.773  53.457  1.00  0.00    -0.214 NA
HETATM    3  C4  UNL     1      20.805   0.697  54.005  1.00  0.00     0.294 A 
HETATM    4  N3  UNL     1      20.487   1.513  53.237  1.00  0.00    -0.426 NA
HETATM    5  C5  UNL     1      20.075   2.430  52.394  1.00  0.00     0.150 A 
HETATM    6  C6  UNL     1      19.398   3.263  51.493  1.00  0.00     0.064 A 
HETATM    7  C7  UNL     1      18.610   2.194  51.842  1.00  0.00     0.064 A 
HETATM    8  C8  UNL     1      17.955   2.925  50.860  1.00  0.00     0.100 A 
HETATM    9  N4  UNL     1      16.675   2.496  50.360  1.00  0.00    -0.362 N 
HETATM   10  C9  UNL     1      17.375   1.245  49.878  1.00  0.00     0.167 C 
HETATM   11  S1  UNL     1      16.270   0.236  49.150  1.00  0.00    -0.041 SA
HETATM   12  N5  UNL     1      18.839   1.037  50.055  1.00  0.00    -0.367 N 
HETATM   13  C10 UNL     1      20.223   0.741  50.182  1.00  0.00     0.130 C 
HETATM   14  C11 UNL     1      21.110   1.902  50.326  1.00  0.00     0.054 C 
HETATM   15  C12 UNL     1      22.411   1.742  49.521  1.00  0.00     0.009 C 
HETATM   16  C13 UNL     1      22.307   2.359  48.164  1.00  0.00     0.001 C 
HETATM   17  C14 UNL     1      22.428   3.850  48.175  1.00  0.00     0.002 C 
HETATM   18  C15 UNL     1      22.976   4.441  49.454  1.00  0.00     0.030 C 
HETATM   19  C16 UNL     1      21.899   4.575  50.518  1.00  0.00     0.271 C 
HETATM   20  N6  UNL     1      22.065   3.691  51.575  1.00  0.00     0.105 N 
HETATM   21  C17 UNL     1      21.453   2.441  51.720  1.00  0.00     0.259 A 
HETATM   22  H6  UNL     1      15.674   2.589  50.186  1.00  0.00     0.162 HD
HETATM   23  H7  UNL     1      18.529   0.100  49.746  1.00  0.00     0.161 HD
HETATM   24  H21 UNL     1      23.124   3.550  51.728  1.00  0.00     0.317 HD
ENDROOT
BRANCH   1  25
HETATM   25  N1  UNL     1      23.726   1.175  52.447  1.00  0.00    -0.336 N 
HETATM   26  C2  UNL     1      24.061   0.181  53.450  1.00  0.00     0.136 A 
HETATM   27  C1  UNL     1      25.197  -0.484  53.729  1.00  0.00     0.153 A 
HETATM   28  F1  UNL     1      25.261  -1.392  54.742  1.00  0.00    -0.203 F 
HETATM   29  C20 UNL     1      26.319  -0.141  52.871  1.00  0.00     0.071 A 
HETATM   30  C19 UNL     1      26.065   0.766  51.964  1.00  0.00     0.020 A 
HETATM   31 CL1  UNL     1      27.860  -0.912  53.102  1.00  0.00    -0.081 Cl
HETATM   32  C18 UNL     1      24.855   1.538  51.623  1.00  0.00     0.159 A 
ENDBRANCH   1  25
TORSDOF 1
ENDMDL
MODEL 5
REMARK VINA RESULT:      -8.0      6.707      8.764
REMARK  1 active torsions:
REMARK  status: ('A' for Active; 'I' for Inactive)
REMARK    1  A    between atoms: N1_4  and  C3_5 
ROOT
HETATM    1  C3  UNL     1      23.718   4.699  50.425  1.00  0.00     0.152 A 
HETATM    2  N2  UNL     1      24.233   4.661  51.615  1.00  0.00    -0.214 NA
HETATM    3  C4  UNL     1      23.406   4.608  52.758  1.00  0.00     0.294 A 
HETATM    4  N3  UNL     1      22.491   4.651  52.037  1.00  0.00    -0.426 NA
HETATM    5  C5  UNL     1      21.426   4.697  51.273  1.00  0.00     0.150 A 
HETATM    6  C6  UNL     1      20.179   4.577  50.646  1.00  0.00     0.064 A 
HETATM    7  C7  UNL     1      20.224   3.799  51.778  1.00  0.00     0.064 A 
HETATM    8  C8  UNL     1      19.024   3.559  51.124  1.00  0.00     0.100 A 
HETATM    9  N4  UNL     1      18.086   2.598  51.644  1.00  0.00    -0.362 N 
HETATM   10  C9  UNL     1      19.161   1.556  51.430  1.00  0.00     0.167 C 
HETATM   11  S1  UNL     1      18.601   0.071  51.930  1.00  0.00    -0.041 SA
HETATM   12  N5  UNL     1      20.486   1.892  50.839  1.00  0.00    -0.367 N 
HETATM   13  C10 UNL     1      21.779   2.112  50.292  1.00  0.00     0.130 C 
HETATM   14  C11 UNL     1      21.910   3.290  49.426  1.00  0.00     0.054 C 
HETATM   15  C12 UNL     1      22.786   3.009  48.193  1.00  0.00     0.009 C 
HETATM   16  C13 UNL     1      21.972   2.595  47.011  1.00  0.00     0.001 C 
HETATM   17  C14 UNL     1      21.280   3.734  46.333  1.00  0.00     0.002 C 
HETATM   18  C15 UNL     1      21.784   5.109  46.712  1.00  0.00     0.030 C 
HETATM   19  C16 UNL     1      21.175   5.589  48.019  1.00  0.00     0.271 C 
HETATM   20  N6  UNL     1      22.092   5.637  49.060  1.00  0.00     0.105 N 
HETATM   21  C17 UNL     1      22.312   4.644  50.022  1.00  0.00     0.259 A 
HETATM   22  H6  UNL     1      17.191   2.299  52.031  1.00  0.00     0.162 HD
HETATM   23  H7  UNL     1      20.644   0.928  51.175  1.00  0.00     0.161 HD
HETATM   24  H21 UNL     1      23.053   5.902  48.648  1.00  0.00     0.317 HD
ENDROOT
BRANCH   1  25
HETATM   25  N1  UNL     1      25.004   4.751  49.823  1.00  0.00    -0.336 N 
HETATM   26  C2  UNL     1      25.357   6.063  49.311  1.00  0.00     0.136 A 
HETATM   27  C1  UNL     1      26.473   6.546  48.734  1.00  0.00     0.153 A 
HETATM   28  F1  UNL     1      26.564   7.844  48.335  1.00  0.00    -0.203 F 
HETATM   29  C20 UNL     1      27.538   5.569  48.579  1.00  0.00     0.071 A 
HETATM   30  C19 UNL     1      27.255   4.368  49.012  1.00  0.00     0.020 A 
HETATM   31 CL1  UNL     1      29.047   6.035  47.850  1.00  0.00    -0.081 Cl
HETATM   32  C18 UNL     1      26.054   3.778  49.631  1.00  0.00     0.159 A 
ENDBRANCH   1  25
TORSDOF 1
ENDMDL
MODEL 6
REMARK VINA RESULT:      -7.9      3.720      5.655
REMARK  1 active torsions:
REMARK  status: ('A' for Active; 'I' for Inactive)
REMARK    1  A    between atoms: N1_4  and  C3_5 
ROOT
HETATM    1  C3  UNL     1      28.234   8.661  48.725  1.00  0.00     0.152 A 
HETATM    2  N2  UNL     1      27.175   9.399  48.591  1.00  0.00    -0.214 NA
HETATM    3  C4  UNL     1      27.289  10.782  48.325  1.00  0.00     0.294 A 
HETATM    4  N3  UNL     1      28.445  10.645  48.371  1.00  0.00    -0.426 NA
HETATM    5  C5  UNL     1      29.753  10.549  48.412  1.00  0.00     0.150 A 
HETATM    6  C6  UNL     1      31.142  10.637  48.255  1.00  0.00     0.064 A 
HETATM    7  C7  UNL     1      30.504  11.455  47.353  1.00  0.00     0.064 A 
HETATM    8  C8  UNL     1      31.866  11.477  47.085  1.00  0.00     0.100 A 
HETATM    9  N4  UNL     1      32.383  12.252  45.987  1.00  0.00    -0.362 N 
HETATM   10  C9  UNL     1      31.559  11.365  45.081  1.00  0.00     0.167 C 
HETATM   11  S1  UNL     1      31.755  11.850  43.502  1.00  0.00    -0.041 SA
HETATM   12  N5  UNL     1      30.738  10.239  45.606  1.00  0.00    -0.367 N 
HETATM   13  C10 UNL     1      29.920   9.149  46.008  1.00  0.00     0.130 C 
HETATM   14  C11 UNL     1      30.275   8.526  47.288  1.00  0.00     0.054 C 
HETATM   15  C12 UNL     1      30.160   6.993  47.240  1.00  0.00     0.009 C 
HETATM   16  C13 UNL     1      31.463   6.346  46.899  1.00  0.00     0.001 C 
HETATM   17  C14 UNL     1      32.424   6.296  48.044  1.00  0.00     0.002 C 
HETATM   18  C15 UNL     1      31.818   6.567  49.403  1.00  0.00     0.030 C 
HETATM   19  C16 UNL     1      31.668   8.056  49.664  1.00  0.00     0.271 C 
HETATM   20  N6  UNL     1      30.345   8.477  49.669  1.00  0.00     0.105 N 
HETATM   21  C17 UNL     1      29.643   9.029  48.591  1.00  0.00     0.259 A 
HETATM   22  H6  UNL     1      32.944  12.991  45.563  1.00  0.00     0.162 HD
HETATM   23  H7  UNL     1      30.414  10.297  44.626  1.00  0.00     0.161 HD
HETATM   24  H21 UNL     1      29.742   7.677  50.069  1.00  0.00     0.317 HD
ENDROOT
BRANCH   1  25
HETATM   25  N1  UNL     1      27.446   7.503  48.967  1.00  0.00    -0.336 N 
HETATM   26  C2  UNL     1      26.357   7.721  49.902  1.00  0.00     0.136 A 
HETATM   27  C1  UNL     1      25.368   6.926  50.350  1.00  0.00     0.153 A 
HETATM   28  F1  UNL     1      24.442   7.375  51.242  1.00  0.00    -0.203 F 
HETATM   29  C20 UNL     1      25.390   5.578  49.808  1.00  0.00     0.071 A 
HETATM   30  C19 UNL     1      26.368   5.333  48.975  1.00  0.00     0.020 A 
HETATM   31 CL1  UNL     1      24.179   4.426  50.288  1.00  0.00    -0.081 Cl
HETATM   32  C18 UNL     1      27.483   6.150  48.462  1.00  0.00     0.159 A 
ENDBRANCH   1  25
TORSDOF 1
ENDMDL
MODEL 7
REMARK VINA RESULT:      -7.9      6.595      8.134
REMARK  1 active torsions:
REMARK  status: ('A' for Active; 'I' for Inactive)
REMARK    1  A    between atoms: N1_4  and  C3_5 
ROOT
HETATM    1  C3  UNL     1      23.830   2.932  52.129  1.00  0.00     0.152 A 
HETATM    2  N2  UNL     1      23.351   1.823  52.605  1.00  0.00    -0.214 NA
HETATM    3  C4  UNL     1      21.957   1.626  52.712  1.00  0.00     0.294 A 
HETATM    4  N3  UNL     1      21.822   2.704  52.290  1.00  0.00    -0.426 NA
HETATM    5  C5  UNL     1      21.612   3.910  51.819  1.00  0.00     0.150 A 
HETATM    6  C6  UNL     1      21.168   5.083  51.195  1.00  0.00     0.064 A 
HETATM    7  C7  UNL     1      20.361   4.024  50.856  1.00  0.00     0.064 A 
HETATM    8  C8  UNL     1      19.964   5.134  50.125  1.00  0.00     0.100 A 
HETATM    9  N4  UNL     1      18.885   5.038  49.176  1.00  0.00    -0.362 N 
HETATM   10  C9  UNL     1      19.742   4.042  48.428  1.00  0.00     0.167 C 
HETATM   11  S1  UNL     1      18.917   3.497  47.089  1.00  0.00    -0.041 SA
HETATM   12  N5  UNL     1      21.112   3.675  48.881  1.00  0.00    -0.367 N 
HETATM   13  C10 UNL     1      22.422   3.254  49.235  1.00  0.00     0.130 C 
HETATM   14  C11 UNL     1      23.187   4.191  50.067  1.00  0.00     0.054 C 
HETATM   15  C12 UNL     1      24.662   4.277  49.640  1.00  0.00     0.009 C 
HETATM   16  C13 UNL     1      24.900   5.396  48.679  1.00  0.00     0.001 C 
HETATM   17  C14 UNL     1      24.949   6.742  49.329  1.00  0.00     0.002 C 
HETATM   18  C15 UNL     1      25.107   6.724  50.833  1.00  0.00     0.030 C 
HETATM   19  C16 UNL     1      23.779   6.493  51.534  1.00  0.00     0.271 C 
HETATM   20  N6  UNL     1      23.693   5.248  52.141  1.00  0.00     0.105 N 
HETATM   21  C17 UNL     1      23.119   4.094  51.596  1.00  0.00     0.259 A 
HETATM   22  H6  UNL     1      17.964   5.266  48.800  1.00  0.00     0.162 HD
HETATM   23  H7  UNL     1      20.937   2.969  48.147  1.00  0.00     0.161 HD
HETATM   24  H21 UNL     1      24.677   4.981  52.495  1.00  0.00     0.317 HD
ENDROOT
BRANCH   1  25
HETATM   25  N1  UNL     1      25.166   2.482  52.311  1.00  0.00    -0.336 N 
HETATM   26  C2  UNL     1      25.387   1.802  53.574  1.00  0.00     0.136 A 
HETATM   27  C1  UNL     1      26.462   1.189  54.103  1.00  0.00     0.153 A 
HETATM   28  F1  UNL     1      26.418   0.607  55.333  1.00  0.00    -0.203 F 
HETATM   29  C20 UNL     1      27.644   1.216  53.256  1.00  0.00     0.071 A 
HETATM   30  C19 UNL     1      27.493   1.836  52.115  1.00  0.00     0.020 A 
HETATM   31 CL1  UNL     1      29.118   0.467  53.795  1.00  0.00    -0.081 Cl
HETATM   32  C18 UNL     1      26.354   2.537  51.493  1.00  0.00     0.159 A 
ENDBRANCH   1  25
TORSDOF 1
ENDMDL
MODEL 8
REMARK VINA RESULT:      -7.8      3.655      5.104
REMARK  1 active torsions:
REMARK  status: ('A' for Active; 'I' for Inactive)
REMARK    1  A    between atoms: N1_4  and  C3_5 
ROOT
HETATM    1  C3  UNL     1      27.493   8.992  48.845  1.00  0.00     0.152 A 
HETATM    2  N2  UNL     1      26.222   9.238  48.756  1.00  0.00    -0.214 NA
HETATM    3  C4  UNL     1      25.748  10.565  48.670  1.00  0.00     0.294 A 
HETATM    4  N3  UNL     1      26.857  10.914  48.751  1.00  0.00    -0.426 NA
HETATM    5  C5  UNL     1      28.087  11.362  48.839  1.00  0.00     0.150 A 
HETATM    6  C6  UNL     1      29.312  12.036  48.758  1.00  0.00     0.064 A 
HETATM    7  C7  UNL     1      28.383  12.629  47.938  1.00  0.00     0.064 A 
HETATM    8  C8  UNL     1      29.610  13.247  47.737  1.00  0.00     0.100 A 
HETATM    9  N4  UNL     1      29.747  14.304  46.768  1.00  0.00    -0.362 N 
HETATM   10  C9  UNL     1      29.356  13.284  45.722  1.00  0.00     0.167 C 
HETATM   11  S1  UNL     1      29.316  14.011  44.226  1.00  0.00    -0.041 SA
HETATM   12  N5  UNL     1      29.083  11.861  46.065  1.00  0.00    -0.367 N 
HETATM   13  C10 UNL     1      28.795  10.487  46.290  1.00  0.00     0.130 C 
HETATM   14  C11 UNL     1      29.391   9.904  47.498  1.00  0.00     0.054 C 
HETATM   15  C12 UNL     1      29.923   8.481  47.254  1.00  0.00     0.009 C 
HETATM   16  C13 UNL     1      31.374   8.482  46.894  1.00  0.00     0.001 C 
HETATM   17  C14 UNL     1      32.279   8.683  48.067  1.00  0.00     0.002 C 
HETATM   18  C15 UNL     1      31.630   8.496  49.420  1.00  0.00     0.030 C 
HETATM   19  C16 UNL     1      30.878   9.742  49.857  1.00  0.00     0.271 C 
HETATM   20  N6  UNL     1      29.500   9.574  49.854  1.00  0.00     0.105 N 
HETATM   21  C17 UNL     1      28.620   9.923  48.823  1.00  0.00     0.259 A 
HETATM   22  H6  UNL     1      29.945  15.258  46.466  1.00  0.00     0.162 HD
HETATM   23  H7  UNL     1      28.754  11.909  45.086  1.00  0.00     0.161 HD
HETATM   24  H21 UNL     1      29.288   8.551  50.124  1.00  0.00     0.317 HD
ENDROOT
BRANCH   1  25
HETATM   25  N1  UNL     1      27.261   7.591  48.905  1.00  0.00    -0.336 N 
HETATM   26  C2  UNL     1      26.125   7.221  49.730  1.00  0.00     0.136 A 
HETATM   27  C1  UNL     1      25.542   6.039  50.002  1.00  0.00     0.153 A 
HETATM   28  F1  UNL     1      24.459   5.950  50.822  1.00  0.00    -0.203 F 
HETATM   29  C20 UNL     1      26.172   4.898  49.357  1.00  0.00     0.071 A 
HETATM   30  C19 UNL     1      27.212   5.185  48.618  1.00  0.00     0.020 A 
HETATM   31 CL1  UNL     1      25.540   3.298  49.607  1.00  0.00    -0.081 Cl
HETATM   32  C18 UNL     1      27.903   6.448  48.298  1.00  0.00     0.159 A 
ENDBRANCH   1  25
TORSDOF 1
ENDMDL
MODEL 9
REMARK VINA RESULT:      -7.6      6.121      7.570
REMARK  1 active torsions:
REMARK  status: ('A' for Active; 'I' for Inactive)
REMARK    1  A    between atoms: N1_4  and  C3_5 
ROOT
HETATM    1  C3  UNL     1      23.263   4.037  51.217  1.00  0.00     0.152 A 
HETATM    2  N2  UNL     1      22.597   2.977  51.557  1.00  0.00    -0.214 NA
HETATM    3  C4  UNL     1      21.186   3.000  51.621  1.00  0.00     0.294 A 
HETATM    4  N3  UNL     1      21.241   4.125  51.321  1.00  0.00    -0.426 NA
HETATM    5  C5  UNL     1      21.243   5.393  50.986  1.00  0.00     0.150 A 
HETATM    6  C6  UNL     1      21.014   6.683  50.490  1.00  0.00     0.064 A 
HETATM    7  C7  UNL     1      20.058   5.813  50.024  1.00  0.00     0.064 A 
HETATM    8  C8  UNL     1      19.869   7.047  49.416  1.00  0.00     0.100 A 
HETATM    9  N4  UNL     1      18.820   7.231  48.446  1.00  0.00    -0.362 N 
HETATM   10  C9  UNL     1      19.530   6.196  47.603  1.00  0.00     0.167 C 
HETATM   11  S1  UNL     1      18.674   5.941  46.200  1.00  0.00    -0.041 SA
HETATM   12  N5  UNL     1      20.808   5.563  48.033  1.00  0.00    -0.367 N 
HETATM   13  C10 UNL     1      22.021   4.898  48.356  1.00  0.00     0.130 C 
HETATM   14  C11 UNL     1      22.899   5.601  49.300  1.00  0.00     0.054 C 
HETATM   15  C12 UNL     1      24.381   5.490  48.907  1.00  0.00     0.009 C 
HETATM   16  C13 UNL     1      24.828   6.653  48.081  1.00  0.00     0.001 C 
HETATM   17  C14 UNL     1      25.071   7.894  48.879  1.00  0.00     0.002 C 
HETATM   18  C15 UNL     1      25.175   7.688  50.373  1.00  0.00     0.030 C 
HETATM   19  C16 UNL     1      23.805   7.603  51.025  1.00  0.00     0.271 C 
HETATM   20  N6  UNL     1      23.500   6.330  51.487  1.00  0.00     0.105 N 
HETATM   21  C17 UNL     1      22.766   5.351  50.807  1.00  0.00     0.259 A 
HETATM   22  H6  UNL     1      17.961   7.646  48.084  1.00  0.00     0.162 HD
HETATM   23  H7  UNL     1      20.546   4.979  47.222  1.00  0.00     0.161 HD
HETATM   24  H21 UNL     1      24.416   5.868  51.823  1.00  0.00     0.317 HD
ENDROOT
BRANCH   1  25
HETATM   25  N1  UNL     1      24.502   3.358  51.366  1.00  0.00    -0.336 N 
HETATM   26  C2  UNL     1      24.768   2.919  52.724  1.00  0.00     0.136 A 
HETATM   27  C1  UNL     1      25.772   2.210  53.272  1.00  0.00     0.153 A 
HETATM   28  F1  UNL     1      25.793   1.915  54.601  1.00  0.00    -0.203 F 
HETATM   29  C20 UNL     1      26.806   1.810  52.332  1.00  0.00     0.071 A 
HETATM   30  C19 UNL     1      26.615   2.202  51.099  1.00  0.00     0.020 A 
HETATM   31 CL1  UNL     1      28.174   0.889  52.883  1.00  0.00    -0.081 Cl
HETATM   32  C18 UNL     1      25.552   2.989  50.446  1.00  0.00     0.159 A 
ENDBRANCH   1  25
TORSDOF 1
ENDMDL
