MODEL 1
REMARK VINA RESULT:      -7.5      0.000      0.000
REMARK  5 active torsions:
REMARK  status: ('A' for Active; 'I' for Inactive)
REMARK    1  A    between atoms: C2_2  and  C3_3 
REMARK    2  A    between atoms: C2_2  and  N1_11 
REMARK    3  A    between atoms: C3_3  and  C4_4 
REMARK    4  A    between atoms: N1_11  and  S1_12 
REMARK    5  A    between atoms: S1_12  and  C10_14 
ROOT
HETATM    1  N1  UNL     1      25.274   4.069  51.129  1.00  0.00    -0.234 NA
HETATM    2  H11 UNL     1      26.130   4.580  51.441  1.00  0.00     0.138 HD
ENDROOT
BRANCH   1   3
HETATM    3  C2  UNL     1      25.243   3.875  49.693  1.00  0.00     0.069 C 
HETATM    4  C1  UNL     1      23.982   3.127  49.348  1.00  0.00     0.027 C 
BRANCH   3   5
HETATM    5  C3  UNL     1      25.268   5.249  49.054  1.00  0.00     0.058 C 
BRANCH   5   6
HETATM    6  C4  UNL     1      26.607   5.654  48.627  1.00  0.00    -0.057 A 
HETATM    7  C5  UNL     1      26.731   6.969  48.161  1.00  0.00     0.008 A 
HETATM    8  C6  UNL     1      27.935   7.471  47.732  1.00  0.00     0.019 A 
HETATM    9  C7  UNL     1      29.085   6.709  47.736  1.00  0.00     0.011 A 
HETATM   10 BR1  UNL     1      30.751   7.393  47.143  1.00  0.00    -0.051 Br
HETATM   11  C8  UNL     1      28.973   5.399  48.197  1.00  0.00     0.019 A 
HETATM   12  C9  UNL     1      27.757   4.908  48.626  1.00  0.00     0.008 A 
ENDBRANCH   5   6
ENDBRANCH   3   5
ENDBRANCH   1   3
BRANCH   1  13
HETATM   13  S1  UNL     1      24.914   2.664  52.053  1.00  0.00     0.125 S 
HETATM   14  O1  UNL     1      23.963   2.859  53.192  1.00  0.00    -0.236 OA
BRANCH  13  15
HETATM   15  C10 UNL     1      26.343   1.754  52.533  1.00  0.00     0.047 A 
HETATM   16  C11 UNL     1      27.540   2.229  53.029  1.00  0.00     0.023 A 
HETATM   17  C12 UNL     1      28.555   1.359  53.353  1.00  0.00     0.020 A 
HETATM   18  C13 UNL     1      28.387  -0.017  53.186  1.00  0.00     0.011 A 
HETATM   19 BR2  UNL     1      29.895  -1.082  53.685  1.00  0.00    -0.051 Br
HETATM   20  C14 UNL     1      27.196  -0.509  52.691  1.00  0.00     0.020 A 
HETATM   21  C15 UNL     1      26.176   0.387  52.367  1.00  0.00     0.023 A 
ENDBRANCH  13  15
ENDBRANCH   1  13
TORSDOF 5
ENDMDL
MODEL 2
REMARK VINA RESULT:      -7.5      4.445      8.320
REMARK  5 active torsions:
REMARK  status: ('A' for Active; 'I' for Inactive)
REMARK    1  A    between atoms: C2_2  and  C3_3 
REMARK    2  A    between atoms: C2_2  and  N1_11 
REMARK    3  A    between atoms: C3_3  and  C4_4 
REMARK    4  A    between atoms: N1_11  and  S1_12 
REMARK    5  A    between atoms: S1_12  and  C10_14 
ROOT
HETATM    1  N1  UNL     1      26.140   1.043  53.460  1.00  0.00    -0.234 NA
HETATM    2  H11 UNL     1      25.446   1.687  53.899  1.00  0.00     0.138 HD
ENDROOT
BRANCH   1   3
HETATM    3  C2  UNL     1      25.558  -0.238  53.111  1.00  0.00     0.069 C 
HETATM    4  C1  UNL     1      26.678  -1.228  52.928  1.00  0.00     0.027 C 
BRANCH   3   5
HETATM    5  C3  UNL     1      24.641  -0.638  54.249  1.00  0.00     0.058 C 
BRANCH   5   6
HETATM    6  C4  UNL     1      23.227  -0.610  53.878  1.00  0.00    -0.057 A 
HETATM    7  C5  UNL     1      22.365  -1.360  54.687  1.00  0.00     0.008 A 
HETATM    8  C6  UNL     1      21.014  -1.416  54.445  1.00  0.00     0.019 A 
HETATM    9  C7  UNL     1      20.435  -0.738  53.392  1.00  0.00     0.011 A 
HETATM   10 BR1  UNL     1      18.571  -0.809  53.048  1.00  0.00    -0.051 Br
HETATM   11  C8  UNL     1      21.283   0.012  52.580  1.00  0.00     0.019 A 
HETATM   12  C9  UNL     1      22.638   0.060  52.836  1.00  0.00     0.008 A 
ENDBRANCH   5   6
ENDBRANCH   3   5
ENDBRANCH   1   3
BRANCH   1  13
HETATM   13  S1  UNL     1      27.085   1.765  52.217  1.00  0.00     0.125 S 
HETATM   14  O1  UNL     1      28.326   2.469  52.668  1.00  0.00    -0.236 OA
BRANCH  13  15
HETATM   15  C10 UNL     1      26.143   2.740  51.094  1.00  0.00     0.047 A 
HETATM   16  C11 UNL     1      26.592   3.545  50.067  1.00  0.00     0.023 A 
HETATM   17  C12 UNL     1      25.699   4.240  49.285  1.00  0.00     0.020 A 
HETATM   18  C13 UNL     1      24.326   4.139  49.518  1.00  0.00     0.011 A 
HETATM   19 BR2  UNL     1      23.227   5.169  48.339  1.00  0.00    -0.051 Br
HETATM   20  C14 UNL     1      23.860   3.338  50.541  1.00  0.00     0.020 A 
HETATM   21  C15 UNL     1      24.779   2.640  51.326  1.00  0.00     0.023 A 
ENDBRANCH  13  15
ENDBRANCH   1  13
TORSDOF 5
ENDMDL
MODEL 3
REMARK VINA RESULT:      -7.3      5.890      8.297
REMARK  5 active torsions:
REMARK  status: ('A' for Active; 'I' for Inactive)
REMARK    1  A    between atoms: C2_2  and  C3_3 
REMARK    2  A    between atoms: C2_2  and  N1_11 
REMARK    3  A    between atoms: C3_3  and  C4_4 
REMARK    4  A    between atoms: N1_11  and  S1_12 
REMARK    5  A    between atoms: S1_12  and  C10_14 
ROOT
HETATM    1  N1  UNL     1      22.774  -0.988  53.011  1.00  0.00    -0.234 NA
HETATM    2  H11 UNL     1      23.346  -1.819  52.740  1.00  0.00     0.138 HD
ENDROOT
BRANCH   1   3
HETATM    3  C2  UNL     1      21.847  -1.285  54.085  1.00  0.00     0.069 C 
HETATM    4  C1  UNL     1      22.637  -1.431  55.359  1.00  0.00     0.027 C 
BRANCH   3   5
HETATM    5  C3  UNL     1      20.868  -0.131  54.165  1.00  0.00     0.058 C 
BRANCH   5   6
HETATM    6  C4  UNL     1      19.783  -0.236  53.191  1.00  0.00    -0.057 A 
HETATM    7  C5  UNL     1      19.929   0.524  52.024  1.00  0.00     0.008 A 
HETATM    8  C6  UNL     1      18.979   0.512  51.033  1.00  0.00     0.019 A 
HETATM    9  C7  UNL     1      17.831  -0.247  51.132  1.00  0.00     0.011 A 
HETATM   10 BR1  UNL     1      16.513  -0.269  49.769  1.00  0.00    -0.051 Br
HETATM   11  C8  UNL     1      17.675  -1.007  52.289  1.00  0.00     0.019 A 
HETATM   12  C9  UNL     1      18.638  -0.986  53.277  1.00  0.00     0.008 A 
ENDBRANCH   5   6
ENDBRANCH   3   5
ENDBRANCH   1   3
BRANCH   1  13
HETATM   13  S1  UNL     1      23.683   0.456  53.223  1.00  0.00     0.125 S 
HETATM   14  O1  UNL     1      23.432   1.538  52.220  1.00  0.00    -0.236 OA
BRANCH  13  15
HETATM   15  C10 UNL     1      25.403   0.173  53.476  1.00  0.00     0.047 A 
HETATM   16  C11 UNL     1      26.211   0.641  54.491  1.00  0.00     0.023 A 
HETATM   17  C12 UNL     1      27.547   0.313  54.526  1.00  0.00     0.020 A 
HETATM   18  C13 UNL     1      28.102  -0.497  53.534  1.00  0.00     0.011 A 
HETATM   19 BR2  UNL     1      29.970  -0.855  53.732  1.00  0.00    -0.051 Br
HETATM   20  C14 UNL     1      27.307  -0.973  52.510  1.00  0.00     0.020 A 
HETATM   21  C15 UNL     1      25.954  -0.632  52.490  1.00  0.00     0.023 A 
ENDBRANCH  13  15
ENDBRANCH   1  13
TORSDOF 5
ENDMDL
MODEL 4
REMARK VINA RESULT:      -7.3      2.645      3.122
REMARK  5 active torsions:
REMARK  status: ('A' for Active; 'I' for Inactive)
REMARK    1  A    between atoms: C2_2  and  C3_3 
REMARK    2  A    between atoms: C2_2  and  N1_11 
REMARK    3  A    between atoms: C3_3  and  C4_4 
REMARK    4  A    between atoms: N1_11  and  S1_12 
REMARK    5  A    between atoms: S1_12  and  C10_14 
ROOT
HETATM    1  N1  UNL     1      25.182   3.919  51.070  1.00  0.00    -0.234 NA
HETATM    2  H11 UNL     1      25.603   4.812  51.409  1.00  0.00     0.138 HD
ENDROOT
BRANCH   1   3
HETATM    3  C2  UNL     1      25.174   3.828  49.623  1.00  0.00     0.069 C 
HETATM    4  C1  UNL     1      23.914   3.117  49.205  1.00  0.00     0.027 C 
BRANCH   3   5
HETATM    5  C3  UNL     1      25.221   5.243  49.085  1.00  0.00     0.058 C 
BRANCH   5   6
HETATM    6  C4  UNL     1      26.558   5.643  48.648  1.00  0.00    -0.057 A 
HETATM    7  C5  UNL     1      26.680   6.950  48.160  1.00  0.00     0.008 A 
HETATM    8  C6  UNL     1      27.882   7.445  47.719  1.00  0.00     0.019 A 
HETATM    9  C7  UNL     1      29.032   6.684  47.731  1.00  0.00     0.011 A 
HETATM   10 BR1  UNL     1      30.697   7.359  47.123  1.00  0.00    -0.051 Br
HETATM   11  C8  UNL     1      28.923   5.382  48.213  1.00  0.00     0.019 A 
HETATM   12  C9  UNL     1      27.709   4.897  48.654  1.00  0.00     0.008 A 
ENDBRANCH   5   6
ENDBRANCH   3   5
ENDBRANCH   1   3
BRANCH   1  13
HETATM   13  S1  UNL     1      25.762   2.515  51.876  1.00  0.00     0.125 S 
HETATM   14  O1  UNL     1      26.775   1.706  51.129  1.00  0.00    -0.236 OA
BRANCH  13  15
HETATM   15  C10 UNL     1      24.481   1.512  52.551  1.00  0.00     0.047 A 
HETATM   16  C11 UNL     1      23.120   1.737  52.547  1.00  0.00     0.023 A 
HETATM   17  C12 UNL     1      22.262   0.831  53.128  1.00  0.00     0.020 A 
HETATM   18  C13 UNL     1      22.758  -0.327  53.730  1.00  0.00     0.011 A 
HETATM   19 BR2  UNL     1      21.431  -1.476  54.489  1.00  0.00    -0.051 Br
HETATM   20  C14 UNL     1      24.117  -0.567  53.742  1.00  0.00     0.020 A 
HETATM   21  C15 UNL     1      24.974   0.361  53.148  1.00  0.00     0.023 A 
ENDBRANCH  13  15
ENDBRANCH   1  13
TORSDOF 5
ENDMDL
MODEL 5
REMARK VINA RESULT:      -7.3      3.729      6.905
REMARK  5 active torsions:
REMARK  status: ('A' for Active; 'I' for Inactive)
REMARK    1  A    between atoms: C2_2  and  C3_3 
REMARK    2  A    between atoms: C2_2  and  N1_11 
REMARK    3  A    between atoms: C3_3  and  C4_4 
REMARK    4  A    between atoms: N1_11  and  S1_12 
REMARK    5  A    between atoms: S1_12  and  C10_14 
ROOT
HETATM    1  N1  UNL     1      21.002   0.417  52.818  1.00  0.00    -0.234 NA
HETATM    2  H11 UNL     1      21.009  -0.262  52.024  1.00  0.00     0.138 HD
ENDROOT
BRANCH   1   3
HETATM    3  C2  UNL     1      22.102   0.200  53.737  1.00  0.00     0.069 C 
HETATM    4  C1  UNL     1      21.564  -0.506  54.954  1.00  0.00     0.027 C 
BRANCH   3   5
HETATM    5  C3  UNL     1      23.132  -0.643  53.013  1.00  0.00     0.058 C 
BRANCH   5   6
HETATM    6  C4  UNL     1      24.492  -0.126  53.154  1.00  0.00    -0.057 A 
HETATM    7  C5  UNL     1      25.165  -0.481  54.330  1.00  0.00     0.008 A 
HETATM    8  C6  UNL     1      26.448  -0.061  54.581  1.00  0.00     0.019 A 
HETATM    9  C7  UNL     1      27.141   0.735  53.693  1.00  0.00     0.011 A 
HETATM   10 BR1  UNL     1      28.912   1.323  54.033  1.00  0.00    -0.051 Br
HETATM   11  C8  UNL     1      26.482   1.095  52.520  1.00  0.00     0.019 A 
HETATM   12  C9  UNL     1      25.193   0.664  52.279  1.00  0.00     0.008 A 
ENDBRANCH   5   6
ENDBRANCH   3   5
ENDBRANCH   1   3
BRANCH   1  13
HETATM   13  S1  UNL     1      20.772   2.053  52.343  1.00  0.00     0.125 S 
HETATM   14  O1  UNL     1      19.562   2.326  51.506  1.00  0.00    -0.236 OA
BRANCH  13  15
HETATM   15  C10 UNL     1      22.220   2.802  51.676  1.00  0.00     0.047 A 
HETATM   16  C11 UNL     1      23.070   3.712  52.270  1.00  0.00     0.023 A 
HETATM   17  C12 UNL     1      24.164   4.193  51.588  1.00  0.00     0.020 A 
HETATM   18  C13 UNL     1      24.429   3.765  50.286  1.00  0.00     0.011 A 
HETATM   19 BR2  UNL     1      25.988   4.531  49.485  1.00  0.00    -0.051 Br
HETATM   20  C14 UNL     1      23.589   2.854  49.677  1.00  0.00     0.020 A 
HETATM   21  C15 UNL     1      22.484   2.376  50.382  1.00  0.00     0.023 A 
ENDBRANCH  13  15
ENDBRANCH   1  13
TORSDOF 5
ENDMDL
MODEL 6
REMARK VINA RESULT:      -7.2      1.550      2.269
REMARK  5 active torsions:
REMARK  status: ('A' for Active; 'I' for Inactive)
REMARK    1  A    between atoms: C2_2  and  C3_3 
REMARK    2  A    between atoms: C2_2  and  N1_11 
REMARK    3  A    between atoms: C3_3  and  C4_4 
REMARK    4  A    between atoms: N1_11  and  S1_12 
REMARK    5  A    between atoms: S1_12  and  C10_14 
ROOT
HETATM    1  N1  UNL     1      22.859   2.757  51.479  1.00  0.00    -0.234 NA
HETATM    2  H11 UNL     1      23.060   3.621  52.029  1.00  0.00     0.138 HD
ENDROOT
BRANCH   1   3
HETATM    3  C2  UNL     1      23.351   2.844  50.118  1.00  0.00     0.069 C 
HETATM    4  C1  UNL     1      22.402   2.088  49.226  1.00  0.00     0.027 C 
BRANCH   3   5
HETATM    5  C3  UNL     1      23.407   4.314  49.755  1.00  0.00     0.058 C 
BRANCH   5   6
HETATM    6  C4  UNL     1      24.742   4.751  49.350  1.00  0.00    -0.057 A 
HETATM    7  C5  UNL     1      25.772   3.819  49.524  1.00  0.00     0.008 A 
HETATM    8  C6  UNL     1      27.071   4.107  49.182  1.00  0.00     0.019 A 
HETATM    9  C7  UNL     1      27.430   5.328  48.651  1.00  0.00     0.011 A 
HETATM   10 BR1  UNL     1      29.221   5.737  48.177  1.00  0.00    -0.051 Br
HETATM   11  C8  UNL     1      26.414   6.264  48.474  1.00  0.00     0.019 A 
HETATM   12  C9  UNL     1      25.113   5.961  48.821  1.00  0.00     0.008 A 
ENDBRANCH   5   6
ENDBRANCH   3   5
ENDBRANCH   1   3
BRANCH   1  13
HETATM   13  S1  UNL     1      23.251   1.294  52.294  1.00  0.00     0.125 S 
HETATM   14  O1  UNL     1      22.349   0.917  53.427  1.00  0.00    -0.236 OA
BRANCH  13  15
HETATM   15  C10 UNL     1      24.952   1.168  52.732  1.00  0.00     0.047 A 
HETATM   16  C11 UNL     1      25.768   2.125  53.298  1.00  0.00     0.023 A 
HETATM   17  C12 UNL     1      27.087   1.843  53.573  1.00  0.00     0.020 A 
HETATM   18  C13 UNL     1      27.616   0.585  53.284  1.00  0.00     0.011 A 
HETATM   19 BR2  UNL     1      29.462   0.361  53.730  1.00  0.00    -0.051 Br
HETATM   20  C14 UNL     1      26.813  -0.385  52.718  1.00  0.00     0.020 A 
HETATM   21  C15 UNL     1      25.478  -0.084  52.444  1.00  0.00     0.023 A 
ENDBRANCH  13  15
ENDBRANCH   1  13
TORSDOF 5
ENDMDL
MODEL 7
REMARK VINA RESULT:      -7.1      5.198      6.920
REMARK  5 active torsions:
REMARK  status: ('A' for Active; 'I' for Inactive)
REMARK    1  A    between atoms: C2_2  and  C3_3 
REMARK    2  A    between atoms: C2_2  and  N1_11 
REMARK    3  A    between atoms: C3_3  and  C4_4 
REMARK    4  A    between atoms: N1_11  and  S1_12 
REMARK    5  A    between atoms: S1_12  and  C10_14 
ROOT
HETATM    1  N1  UNL     1      24.076  -0.692  53.389  1.00  0.00    -0.234 NA
HETATM    2  H11 UNL     1      24.178  -1.066  52.420  1.00  0.00     0.138 HD
ENDROOT
BRANCH   1   3
HETATM    3  C2  UNL     1      24.921   0.463  53.624  1.00  0.00     0.069 C 
HETATM    4  C1  UNL     1      26.128   0.010  54.402  1.00  0.00     0.027 C 
BRANCH   3   5
HETATM    5  C3  UNL     1      25.307   1.019  52.269  1.00  0.00     0.058 C 
BRANCH   5   6
HETATM    6  C4  UNL     1      24.505   2.177  51.878  1.00  0.00    -0.057 A 
HETATM    7  C5  UNL     1      24.193   3.082  52.900  1.00  0.00     0.008 A 
HETATM    8  C6  UNL     1      23.447   4.209  52.662  1.00  0.00     0.019 A 
HETATM    9  C7  UNL     1      22.962   4.511  51.406  1.00  0.00     0.011 A 
HETATM   10 BR1  UNL     1      21.929   6.065  51.068  1.00  0.00    -0.051 Br
HETATM   11  C8  UNL     1      23.265   3.618  50.381  1.00  0.00     0.019 A 
HETATM   12  C9  UNL     1      24.017   2.489  50.634  1.00  0.00     0.008 A 
ENDBRANCH   5   6
ENDBRANCH   3   5
ENDBRANCH   1   3
BRANCH   1  13
HETATM   13  S1  UNL     1      22.446  -0.508  53.906  1.00  0.00     0.125 S 
HETATM   14  O1  UNL     1      21.735  -1.770  54.283  1.00  0.00    -0.236 OA
BRANCH  13  15
HETATM   15  C10 UNL     1      21.478   0.502  52.836  1.00  0.00     0.047 A 
HETATM   16  C11 UNL     1      20.741   1.626  53.147  1.00  0.00     0.023 A 
HETATM   17  C12 UNL     1      20.041   2.293  52.168  1.00  0.00     0.020 A 
HETATM   18  C13 UNL     1      20.066   1.841  50.848  1.00  0.00     0.011 A 
HETATM   19 BR2  UNL     1      19.039   2.884  49.616  1.00  0.00    -0.051 Br
HETATM   20  C14 UNL     1      20.799   0.718  50.519  1.00  0.00     0.020 A 
HETATM   21  C15 UNL     1      21.504   0.053  51.523  1.00  0.00     0.023 A 
ENDBRANCH  13  15
ENDBRANCH   1  13
TORSDOF 5
ENDMDL
MODEL 8
REMARK VINA RESULT:      -7.1      4.267      5.518
REMARK  5 active torsions:
REMARK  status: ('A' for Active; 'I' for Inactive)
REMARK    1  A    between atoms: C2_2  and  C3_3 
REMARK    2  A    between atoms: C2_2  and  N1_11 
REMARK    3  A    between atoms: C3_3  and  C4_4 
REMARK    4  A    between atoms: N1_11  and  S1_12 
REMARK    5  A    between atoms: S1_12  and  C10_14 
ROOT
HETATM    1  N1  UNL     1      25.788   0.612  52.335  1.00  0.00    -0.234 NA
HETATM    2  H11 UNL     1      25.201   0.415  51.494  1.00  0.00     0.138 HD
ENDROOT
BRANCH   1   3
HETATM    3  C2  UNL     1      26.213   1.997  52.396  1.00  0.00     0.069 C 
HETATM    4  C1  UNL     1      27.314   2.104  53.419  1.00  0.00     0.027 C 
BRANCH   3   5
HETATM    5  C3  UNL     1      26.699   2.377  51.012  1.00  0.00     0.058 C 
BRANCH   5   6
HETATM    6  C4  UNL     1      25.758   3.237  50.295  1.00  0.00    -0.057 A 
HETATM    7  C5  UNL     1      26.305   4.374  49.688  1.00  0.00     0.008 A 
HETATM    8  C6  UNL     1      25.528   5.260  48.984  1.00  0.00     0.019 A 
HETATM    9  C7  UNL     1      24.168   5.080  48.838  1.00  0.00     0.011 A 
HETATM   10 BR1  UNL     1      23.085   6.299  47.870  1.00  0.00    -0.051 Br
HETATM   11  C8  UNL     1      23.612   3.952  49.439  1.00  0.00     0.019 A 
HETATM   12  C9  UNL     1      24.406   3.070  50.142  1.00  0.00     0.008 A 
ENDBRANCH   5   6
ENDBRANCH   3   5
ENDBRANCH   1   3
BRANCH   1  13
HETATM   13  S1  UNL     1      25.145  -0.008  53.804  1.00  0.00     0.125 S 
HETATM   14  O1  UNL     1      25.892  -1.156  54.410  1.00  0.00    -0.236 OA
BRANCH  13  15
HETATM   15  C10 UNL     1      23.411  -0.307  53.743  1.00  0.00     0.047 A 
HETATM   16  C11 UNL     1      22.629  -1.023  54.626  1.00  0.00     0.023 A 
HETATM   17  C12 UNL     1      21.276  -1.151  54.414  1.00  0.00     0.020 A 
HETATM   18  C13 UNL     1      20.675  -0.557  53.303  1.00  0.00     0.011 A 
HETATM   19 BR2  UNL     1      18.788  -0.832  53.160  1.00  0.00    -0.051 Br
HETATM   20  C14 UNL     1      21.442   0.164  52.410  1.00  0.00     0.020 A 
HETATM   21  C15 UNL     1      22.814   0.284  52.639  1.00  0.00     0.023 A 
ENDBRANCH  13  15
ENDBRANCH   1  13
TORSDOF 5
ENDMDL
MODEL 9
REMARK VINA RESULT:      -7.1      2.044      6.660
REMARK  5 active torsions:
REMARK  status: ('A' for Active; 'I' for Inactive)
REMARK    1  A    between atoms: C2_2  and  C3_3 
REMARK    2  A    between atoms: C2_2  and  N1_11 
REMARK    3  A    between atoms: C3_3  and  C4_4 
REMARK    4  A    between atoms: N1_11  and  S1_12 
REMARK    5  A    between atoms: S1_12  and  C10_14 
ROOT
HETATM    1  N1  UNL     1      23.206   3.156  50.869  1.00  0.00    -0.234 NA
HETATM    2  H11 UNL     1      23.333   2.187  50.501  1.00  0.00     0.138 HD
ENDROOT
BRANCH   1   3
HETATM    3  C2  UNL     1      23.973   3.390  52.077  1.00  0.00     0.069 C 
HETATM    4  C1  UNL     1      23.334   4.531  52.825  1.00  0.00     0.027 C 
BRANCH   3   5
HETATM    5  C3  UNL     1      23.940   2.107  52.884  1.00  0.00     0.058 C 
BRANCH   5   6
HETATM    6  C4  UNL     1      25.264   1.514  53.066  1.00  0.00    -0.057 A 
HETATM    7  C5  UNL     1      25.363   0.142  52.808  1.00  0.00     0.008 A 
HETATM    8  C6  UNL     1      26.552  -0.533  52.941  1.00  0.00     0.019 A 
HETATM    9  C7  UNL     1      27.710   0.103  53.337  1.00  0.00     0.011 A 
HETATM   10 BR1  UNL     1      29.356  -0.820  53.526  1.00  0.00    -0.051 Br
HETATM   11  C8  UNL     1      27.623   1.469  53.598  1.00  0.00     0.019 A 
HETATM   12  C9  UNL     1      26.423   2.134  53.458  1.00  0.00     0.008 A 
ENDBRANCH   5   6
ENDBRANCH   3   5
ENDBRANCH   1   3
BRANCH   1  13
HETATM   13  S1  UNL     1      23.349   4.388  49.678  1.00  0.00     0.125 S 
HETATM   14  O1  UNL     1      22.485   4.226  48.466  1.00  0.00    -0.236 OA
BRANCH  13  15
HETATM   15  C10 UNL     1      25.015   4.770  49.256  1.00  0.00     0.047 A 
HETATM   16  C11 UNL     1      26.133   3.967  49.354  1.00  0.00     0.023 A 
HETATM   17  C12 UNL     1      27.367   4.441  48.973  1.00  0.00     0.020 A 
HETATM   18  C13 UNL     1      27.505   5.740  48.481  1.00  0.00     0.011 A 
HETATM   19 BR2  UNL     1      29.287   6.237  47.998  1.00  0.00    -0.051 Br
HETATM   20  C14 UNL     1      26.397   6.556  48.376  1.00  0.00     0.020 A 
HETATM   21  C15 UNL     1      25.152   6.061  48.767  1.00  0.00     0.023 A 
ENDBRANCH  13  15
ENDBRANCH   1  13
TORSDOF 5
ENDMDL
