MODEL 1
REMARK VINA RESULT:      -7.6      0.000      0.000
REMARK  2 active torsions:
REMARK  status: ('A' for Active; 'I' for Inactive)
REMARK       I    between atoms: C2_2  and  N1_4 
REMARK    1  A    between atoms: N1_4  and  C3_5 
REMARK    2  A    between atoms: C8_12  and  N4_13 
ROOT
HETATM    1  C3  UNL     1      25.191  -0.246  54.511  1.00  0.00     0.035 A 
HETATM    2  C4  UNL     1      24.656  -1.236  55.316  1.00  0.00     0.032 A 
HETATM    3  C5  UNL     1      23.312  -1.478  55.317  1.00  0.00     0.035 A 
HETATM    4  C6  UNL     1      22.458  -0.762  54.532  1.00  0.00     0.072 A 
HETATM    5  N2  UNL     1      21.130  -0.962  54.496  1.00  0.00    -0.241 NA
HETATM    6  C7  UNL     1      20.317  -0.234  53.705  1.00  0.00     0.236 A 
HETATM    7  N3  UNL     1      20.846   0.726  52.925  1.00  0.00    -0.224 NA
HETATM    8  C8  UNL     1      22.181   0.982  52.911  1.00  0.00     0.140 A 
HETATM    9  C14 UNL     1      22.978   0.221  53.729  1.00  0.00     0.041 A 
HETATM   10  C15 UNL     1      24.332   0.485  53.711  1.00  0.00     0.047 A 
ENDROOT
BRANCH   8  11
HETATM   11  N4  UNL     1      22.635   2.034  52.035  1.00  0.00    -0.361 N 
HETATM   12  C9  UNL     1      22.974   3.446  52.245  1.00  0.00     0.153 C 
HETATM   13  C10 UNL     1      24.350   3.639  51.654  1.00  0.00     0.007 C 
HETATM   14  C11 UNL     1      24.465   3.173  50.415  1.00  0.00    -0.012 C 
HETATM   15 BR1  UNL     1      26.220   3.416  49.653  1.00  0.00    -0.056 Br
HETATM   16  C12 UNL     1      23.292   2.535  49.747  1.00  0.00     0.066 C 
HETATM   17  C13 UNL     1      22.750   1.488  50.696  1.00  0.00     0.130 C 
ENDBRANCH   8  11
BRANCH   1  18
HETATM   18  N1  UNL     1      26.605   0.040  54.482  1.00  0.00    -0.327 N 
HETATM   19  C2  UNL     1      27.586  -0.723  53.757  1.00  0.00     0.218 C 
HETATM   20  C1  UNL     1      29.001  -0.233  53.876  1.00  0.00     0.117 C 
HETATM   21  O1  UNL     1      27.181  -1.726  53.091  1.00  0.00    -0.274 OA
HETATM   22  H4  UNL     1      26.785   0.889  55.072  1.00  0.00     0.169 HD
ENDBRANCH   1  18
TORSDOF 2
ENDMDL
MODEL 2
REMARK VINA RESULT:      -7.5      2.354      4.900
REMARK  2 active torsions:
REMARK  status: ('A' for Active; 'I' for Inactive)
REMARK       I    between atoms: C2_2  and  N1_4 
REMARK    1  A    between atoms: N1_4  and  C3_5 
REMARK    2  A    between atoms: C8_12  and  N4_13 
ROOT
HETATM    1  C3  UNL     1      22.688   2.590  51.875  1.00  0.00     0.035 A 
HETATM    2  C4  UNL     1      21.320   2.527  52.074  1.00  0.00     0.032 A 
HETATM    3  C5  UNL     1      20.775   1.542  52.846  1.00  0.00     0.035 A 
HETATM    4  C6  UNL     1      21.551   0.593  53.444  1.00  0.00     0.072 A 
HETATM    5  N2  UNL     1      21.065  -0.396  54.212  1.00  0.00    -0.241 NA
HETATM    6  C7  UNL     1      21.864  -1.315  54.787  1.00  0.00     0.236 A 
HETATM    7  N3  UNL     1      23.193  -1.247  54.589  1.00  0.00    -0.224 NA
HETATM    8  C8  UNL     1      23.753  -0.273  53.824  1.00  0.00     0.140 A 
HETATM    9  C14 UNL     1      22.909   0.647  53.254  1.00  0.00     0.041 A 
HETATM   10  C15 UNL     1      23.483   1.631  52.478  1.00  0.00     0.047 A 
ENDROOT
BRANCH   8  11
HETATM   11  N4  UNL     1      25.189  -0.298  53.683  1.00  0.00    -0.361 N 
HETATM   12  C9  UNL     1      26.086  -0.553  52.551  1.00  0.00     0.153 C 
HETATM   13  C10 UNL     1      27.039   0.617  52.501  1.00  0.00     0.007 C 
HETATM   14  C11 UNL     1      27.611   0.885  53.670  1.00  0.00    -0.012 C 
HETATM   15 BR1  UNL     1      28.830   2.378  53.614  1.00  0.00    -0.056 Br
HETATM   16  C12 UNL     1      27.283   0.056  54.867  1.00  0.00     0.066 C 
HETATM   17  C13 UNL     1      25.775  -0.000  54.975  1.00  0.00     0.130 C 
ENDBRANCH   8  11
BRANCH   1  18
HETATM   18  N1  UNL     1      23.302   3.615  51.067  1.00  0.00    -0.327 N 
HETATM   19  C2  UNL     1      23.476   3.547  49.641  1.00  0.00     0.218 C 
HETATM   20  C1  UNL     1      24.143   4.738  49.013  1.00  0.00     0.117 C 
HETATM   21  O1  UNL     1      23.059   2.505  49.044  1.00  0.00    -0.274 OA
HETATM   22  H4  UNL     1      23.592   4.405  51.694  1.00  0.00     0.169 HD
ENDBRANCH   1  18
TORSDOF 2
ENDMDL
MODEL 3
REMARK VINA RESULT:      -7.3      1.832      2.391
REMARK  2 active torsions:
REMARK  status: ('A' for Active; 'I' for Inactive)
REMARK       I    between atoms: C2_2  and  N1_4 
REMARK    1  A    between atoms: N1_4  and  C3_5 
REMARK    2  A    between atoms: C8_12  and  N4_13 
ROOT
HETATM    1  C3  UNL     1      24.851   0.029  53.329  1.00  0.00     0.035 A 
HETATM    2  C4  UNL     1      23.957  -0.727  54.066  1.00  0.00     0.032 A 
HETATM    3  C5  UNL     1      22.630  -0.405  54.091  1.00  0.00     0.035 A 
HETATM    4  C6  UNL     1      22.143   0.662  53.395  1.00  0.00     0.072 A 
HETATM    5  N2  UNL     1      20.848   1.020  53.386  1.00  0.00    -0.241 NA
HETATM    6  C7  UNL     1      20.403   2.081  52.685  1.00  0.00     0.236 A 
HETATM    7  N3  UNL     1      21.279   2.811  51.970  1.00  0.00    -0.224 NA
HETATM    8  C8  UNL     1      22.603   2.505  51.934  1.00  0.00     0.140 A 
HETATM    9  C14 UNL     1      23.021   1.417  52.660  1.00  0.00     0.041 A 
HETATM   10  C15 UNL     1      24.365   1.113  52.620  1.00  0.00     0.047 A 
ENDROOT
BRANCH   8  11
HETATM   11  N4  UNL     1      23.449   3.357  51.133  1.00  0.00    -0.361 N 
HETATM   12  C9  UNL     1      24.235   3.137  49.914  1.00  0.00     0.153 C 
HETATM   13  C10 UNL     1      23.821   4.220  48.948  1.00  0.00     0.007 C 
HETATM   14  C11 UNL     1      23.857   5.440  49.472  1.00  0.00    -0.012 C 
HETATM   15 BR1  UNL     1      23.329   6.830  48.243  1.00  0.00    -0.056 Br
HETATM   16  C12 UNL     1      24.280   5.629  50.891  1.00  0.00     0.066 C 
HETATM   17  C13 UNL     1      23.461   4.676  51.734  1.00  0.00     0.130 C 
ENDBRANCH   8  11
BRANCH   1  18
HETATM   18  N1  UNL     1      26.260  -0.279  53.278  1.00  0.00    -0.327 N 
HETATM   19  C2  UNL     1      27.245   0.210  54.206  1.00  0.00     0.218 C 
HETATM   20  C1  UNL     1      28.653  -0.246  53.952  1.00  0.00     0.117 C 
HETATM   21  O1  UNL     1      26.847   0.971  55.143  1.00  0.00    -0.274 OA
HETATM   22  H4  UNL     1      26.434  -0.911  52.459  1.00  0.00     0.169 HD
ENDBRANCH   1  18
TORSDOF 2
ENDMDL
MODEL 4
REMARK VINA RESULT:      -7.1      2.943      5.097
REMARK  2 active torsions:
REMARK  status: ('A' for Active; 'I' for Inactive)
REMARK       I    between atoms: C2_2  and  N1_4 
REMARK    1  A    between atoms: N1_4  and  C3_5 
REMARK    2  A    between atoms: C8_12  and  N4_13 
ROOT
HETATM    1  C3  UNL     1      25.992   1.965  51.463  1.00  0.00     0.035 A 
HETATM    2  C4  UNL     1      26.782   2.869  50.776  1.00  0.00     0.032 A 
HETATM    3  C5  UNL     1      26.219   3.786  49.935  1.00  0.00     0.035 A 
HETATM    4  C6  UNL     1      24.870   3.844  49.745  1.00  0.00     0.072 A 
HETATM    5  N2  UNL     1      24.267   4.726  48.931  1.00  0.00    -0.241 NA
HETATM    6  C7  UNL     1      22.929   4.754  48.770  1.00  0.00     0.236 A 
HETATM    7  N3  UNL     1      22.168   3.872  49.441  1.00  0.00    -0.224 NA
HETATM    8  C8  UNL     1      22.711   2.952  50.282  1.00  0.00     0.140 A 
HETATM    9  C14 UNL     1      24.077   2.953  50.423  1.00  0.00     0.041 A 
HETATM   10  C15 UNL     1      24.622   2.017  51.276  1.00  0.00     0.047 A 
ENDROOT
BRANCH   8  11
HETATM   11  N4  UNL     1      21.798   2.058  50.951  1.00  0.00    -0.361 N 
HETATM   12  C9  UNL     1      21.358   0.683  50.687  1.00  0.00     0.153 C 
HETATM   13  C10 UNL     1      21.571  -0.079  51.973  1.00  0.00     0.007 C 
HETATM   14  C11 UNL     1      21.051   0.523  53.037  1.00  0.00    -0.012 C 
HETATM   15 BR1  UNL     1      21.319  -0.445  54.684  1.00  0.00    -0.056 Br
HETATM   16  C12 UNL     1      20.340   1.826  52.883  1.00  0.00     0.066 C 
HETATM   17  C13 UNL     1      21.253   2.747  52.104  1.00  0.00     0.130 C 
ENDBRANCH   8  11
BRANCH   1  18
HETATM   18  N1  UNL     1      26.549   0.982  52.359  1.00  0.00    -0.327 N 
HETATM   19  C2  UNL     1      26.927   1.230  53.724  1.00  0.00     0.218 C 
HETATM   20  C1  UNL     1      27.487   0.050  54.465  1.00  0.00     0.117 C 
HETATM   21  O1  UNL     1      26.759   2.405  54.179  1.00  0.00    -0.274 OA
HETATM   22  H4  UNL     1      26.627   0.069  51.846  1.00  0.00     0.169 HD
ENDBRANCH   1  18
TORSDOF 2
ENDMDL
MODEL 5
REMARK VINA RESULT:      -7.1      2.249      4.620
REMARK  2 active torsions:
REMARK  status: ('A' for Active; 'I' for Inactive)
REMARK       I    between atoms: C2_2  and  N1_4 
REMARK    1  A    between atoms: N1_4  and  C3_5 
REMARK    2  A    between atoms: C8_12  and  N4_13 
ROOT
HETATM    1  C3  UNL     1      23.333  -0.377  53.629  1.00  0.00     0.035 A 
HETATM    2  C4  UNL     1      23.930  -1.057  54.675  1.00  0.00     0.032 A 
HETATM    3  C5  UNL     1      25.214  -0.773  55.046  1.00  0.00     0.035 A 
HETATM    4  C6  UNL     1      25.945   0.183  54.404  1.00  0.00     0.072 A 
HETATM    5  N2  UNL     1      27.209   0.501  54.729  1.00  0.00    -0.241 NA
HETATM    6  C7  UNL     1      27.900   1.453  54.073  1.00  0.00     0.236 A 
HETATM    7  N3  UNL     1      27.312   2.109  53.056  1.00  0.00    -0.224 NA
HETATM    8  C8  UNL     1      26.035   1.839  52.674  1.00  0.00     0.140 A 
HETATM    9  C14 UNL     1      25.361   0.864  53.366  1.00  0.00     0.041 A 
HETATM   10  C15 UNL     1      24.068   0.594  52.973  1.00  0.00     0.047 A 
ENDROOT
BRANCH   8  11
HETATM   11  N4  UNL     1      25.507   2.607  51.573  1.00  0.00    -0.361 N 
HETATM   12  C9  UNL     1      24.201   3.219  51.306  1.00  0.00     0.153 C 
HETATM   13  C10 UNL     1      24.478   4.661  50.955  1.00  0.00     0.007 C 
HETATM   14  C11 UNL     1      25.412   4.809  50.021  1.00  0.00    -0.012 C 
HETATM   15 BR1  UNL     1      25.772   6.649  49.567  1.00  0.00    -0.056 Br
HETATM   16  C12 UNL     1      26.070   3.608  49.429  1.00  0.00     0.066 C 
HETATM   17  C13 UNL     1      26.552   2.748  50.578  1.00  0.00     0.130 C 
ENDBRANCH   8  11
BRANCH   1  18
HETATM   18  N1  UNL     1      21.980  -0.649  53.208  1.00  0.00    -0.327 N 
HETATM   19  C2  UNL     1      20.798  -0.249  53.923  1.00  0.00     0.218 C 
HETATM   20  C1  UNL     1      19.494  -0.644  53.290  1.00  0.00     0.117 C 
HETATM   21  O1  UNL     1      20.953   0.394  55.009  1.00  0.00    -0.274 OA
HETATM   22  H4  UNL     1      22.012  -1.181  52.304  1.00  0.00     0.169 HD
ENDBRANCH   1  18
TORSDOF 2
ENDMDL
MODEL 6
REMARK VINA RESULT:      -6.9      3.091      5.307
REMARK  2 active torsions:
REMARK  status: ('A' for Active; 'I' for Inactive)
REMARK       I    between atoms: C2_2  and  N1_4 
REMARK    1  A    between atoms: N1_4  and  C3_5 
REMARK    2  A    between atoms: C8_12  and  N4_13 
ROOT
HETATM    1  C3  UNL     1      23.420   4.548  51.946  1.00  0.00     0.035 A 
HETATM    2  C4  UNL     1      22.055   4.713  52.099  1.00  0.00     0.032 A 
HETATM    3  C5  UNL     1      21.249   3.640  52.350  1.00  0.00     0.035 A 
HETATM    4  C6  UNL     1      21.756   2.379  52.459  1.00  0.00     0.072 A 
HETATM    5  N2  UNL     1      21.007   1.291  52.706  1.00  0.00    -0.241 NA
HETATM    6  C7  UNL     1      21.543   0.060  52.808  1.00  0.00     0.236 A 
HETATM    7  N3  UNL     1      22.871  -0.093  52.659  1.00  0.00    -0.224 NA
HETATM    8  C8  UNL     1      23.689   0.964  52.408  1.00  0.00     0.140 A 
HETATM    9  C14 UNL     1      23.108   2.204  52.311  1.00  0.00     0.041 A 
HETATM   10  C15 UNL     1      23.943   3.271  52.056  1.00  0.00     0.047 A 
ENDROOT
BRANCH   8  11
HETATM   11  N4  UNL     1      25.097   0.682  52.268  1.00  0.00    -0.361 N 
HETATM   12  C9  UNL     1      26.183   1.319  51.516  1.00  0.00     0.153 C 
HETATM   13  C10 UNL     1      27.289   1.574  52.512  1.00  0.00     0.007 C 
HETATM   14  C11 UNL     1      27.608   0.505  53.234  1.00  0.00    -0.012 C 
HETATM   15 BR1  UNL     1      29.020   0.821  54.508  1.00  0.00    -0.056 Br
HETATM   16  C12 UNL     1      26.889  -0.784  53.014  1.00  0.00     0.066 C 
HETATM   17  C13 UNL     1      25.406  -0.486  53.070  1.00  0.00     0.130 C 
ENDBRANCH   8  11
BRANCH   1  18
HETATM   18  N1  UNL     1      24.305   5.656  51.680  1.00  0.00    -0.327 N 
HETATM   19  C2  UNL     1      24.688   6.108  50.370  1.00  0.00     0.218 C 
HETATM   20  C1  UNL     1      25.622   7.285  50.340  1.00  0.00     0.117 C 
HETATM   21  O1  UNL     1      24.214   5.487  49.367  1.00  0.00    -0.274 OA
HETATM   22  H4  UNL     1      24.612   6.065  52.596  1.00  0.00     0.169 HD
ENDBRANCH   1  18
TORSDOF 2
ENDMDL
MODEL 7
REMARK VINA RESULT:      -6.9      2.515      3.810
REMARK  2 active torsions:
REMARK  status: ('A' for Active; 'I' for Inactive)
REMARK       I    between atoms: C2_2  and  N1_4 
REMARK    1  A    between atoms: N1_4  and  C3_5 
REMARK    2  A    between atoms: C8_12  and  N4_13 
ROOT
HETATM    1  C3  UNL     1      26.388   1.142  51.974  1.00  0.00     0.035 A 
HETATM    2  C4  UNL     1      27.303   0.465  52.760  1.00  0.00     0.032 A 
HETATM    3  C5  UNL     1      26.883  -0.319  53.795  1.00  0.00     0.035 A 
HETATM    4  C6  UNL     1      25.559  -0.464  54.088  1.00  0.00     0.072 A 
HETATM    5  N2  UNL     1      25.094  -1.223  55.094  1.00  0.00    -0.241 NA
HETATM    6  C7  UNL     1      23.778  -1.342  55.353  1.00  0.00     0.236 A 
HETATM    7  N3  UNL     1      22.894  -0.681  54.584  1.00  0.00    -0.224 NA
HETATM    8  C8  UNL     1      23.294   0.105  53.549  1.00  0.00     0.140 A 
HETATM    9  C14 UNL     1      24.643   0.202  53.314  1.00  0.00     0.041 A 
HETATM   10  C15 UNL     1      25.043   1.002  52.264  1.00  0.00     0.047 A 
ENDROOT
BRANCH   8  11
HETATM   11  N4  UNL     1      22.259   0.765  52.792  1.00  0.00    -0.361 N 
HETATM   12  C9  UNL     1      21.863   2.170  52.637  1.00  0.00     0.153 C 
HETATM   13  C10 UNL     1      21.816   2.430  51.150  1.00  0.00     0.007 C 
HETATM   14  C11 UNL     1      21.108   1.529  50.477  1.00  0.00    -0.012 C 
HETATM   15 BR1  UNL     1      21.042   1.855  48.577  1.00  0.00    -0.056 Br
HETATM   16  C12 UNL     1      20.454   0.401  51.203  1.00  0.00     0.066 C 
HETATM   17  C13 UNL     1      21.511  -0.246  52.071  1.00  0.00     0.130 C 
ENDBRANCH   8  11
BRANCH   1  18
HETATM   18  N1  UNL     1      26.793   1.981  50.872  1.00  0.00    -0.327 N 
HETATM   19  C2  UNL     1      26.182   3.236  50.523  1.00  0.00     0.218 C 
HETATM   20  C1  UNL     1      26.775   3.934  49.333  1.00  0.00     0.117 C 
HETATM   21  O1  UNL     1      25.213   3.641  51.239  1.00  0.00    -0.274 OA
HETATM   22  H4  UNL     1      27.596   1.520  50.379  1.00  0.00     0.169 HD
ENDBRANCH   1  18
TORSDOF 2
ENDMDL
MODEL 8
REMARK VINA RESULT:      -6.7      2.757      4.125
REMARK  2 active torsions:
REMARK  status: ('A' for Active; 'I' for Inactive)
REMARK       I    between atoms: C2_2  and  N1_4 
REMARK    1  A    between atoms: N1_4  and  C3_5 
REMARK    2  A    between atoms: C8_12  and  N4_13 
ROOT
HETATM    1  C3  UNL     1      25.308   2.781  51.750  1.00  0.00     0.035 A 
HETATM    2  C4  UNL     1      26.308   2.146  52.464  1.00  0.00     0.032 A 
HETATM    3  C5  UNL     1      26.023   1.062  53.245  1.00  0.00     0.035 A 
HETATM    4  C6  UNL     1      24.754   0.572  53.346  1.00  0.00     0.072 A 
HETATM    5  N2  UNL     1      24.421  -0.490  54.099  1.00  0.00    -0.241 NA
HETATM    6  C7  UNL     1      23.156  -0.947  54.174  1.00  0.00     0.236 A 
HETATM    7  N3  UNL     1      22.190  -0.323  53.476  1.00  0.00    -0.224 NA
HETATM    8  C8  UNL     1      22.455   0.757  52.694  1.00  0.00     0.140 A 
HETATM    9  C14 UNL     1      23.755   1.194  52.641  1.00  0.00     0.041 A 
HETATM   10  C15 UNL     1      24.018   2.290  51.847  1.00  0.00     0.047 A 
ENDROOT
BRANCH   8  11
HETATM   11  N4  UNL     1      21.341   1.344  51.991  1.00  0.00    -0.361 N 
HETATM   12  C9  UNL     1      20.479   2.501  52.255  1.00  0.00     0.153 C 
HETATM   13  C10 UNL     1      20.505   3.338  50.998  1.00  0.00     0.007 C 
HETATM   14  C11 UNL     1      20.254   2.643  49.893  1.00  0.00    -0.012 C 
HETATM   15 BR1  UNL     1      20.285   3.705  48.284  1.00  0.00    -0.056 Br
HETATM   16  C12 UNL     1      19.982   1.178  49.981  1.00  0.00     0.066 C 
HETATM   17  C13 UNL     1      21.099   0.562  50.794  1.00  0.00     0.130 C 
ENDBRANCH   8  11
BRANCH   1  18
HETATM   18  N1  UNL     1      25.570   3.928  50.915  1.00  0.00    -0.327 N 
HETATM   19  C2  UNL     1      26.376   3.915  49.724  1.00  0.00     0.218 C 
HETATM   20  C1  UNL     1      26.506   5.234  49.016  1.00  0.00     0.117 C 
HETATM   21  O1  UNL     1      26.900   2.810  49.377  1.00  0.00    -0.274 OA
HETATM   22  H4  UNL     1      25.075   4.759  51.324  1.00  0.00     0.169 HD
ENDBRANCH   1  18
TORSDOF 2
ENDMDL
MODEL 9
REMARK VINA RESULT:      -6.5      2.884      5.158
REMARK  2 active torsions:
REMARK  status: ('A' for Active; 'I' for Inactive)
REMARK       I    between atoms: C2_2  and  N1_4 
REMARK    1  A    between atoms: N1_4  and  C3_5 
REMARK    2  A    between atoms: C8_12  and  N4_13 
ROOT
HETATM    1  C3  UNL     1      21.552   0.777  51.943  1.00  0.00     0.035 A 
HETATM    2  C4  UNL     1      21.577  -0.101  53.011  1.00  0.00     0.032 A 
HETATM    3  C5  UNL     1      22.752  -0.389  53.647  1.00  0.00     0.035 A 
HETATM    4  C6  UNL     1      23.930   0.176  53.256  1.00  0.00     0.072 A 
HETATM    5  N2  UNL     1      25.110  -0.072  53.847  1.00  0.00    -0.241 NA
HETATM    6  C7  UNL     1      26.255   0.505  53.434  1.00  0.00     0.236 A 
HETATM    7  N3  UNL     1      26.222   1.358  52.394  1.00  0.00    -0.224 NA
HETATM    8  C8  UNL     1      25.062   1.656  51.749  1.00  0.00     0.140 A 
HETATM    9  C14 UNL     1      23.916   1.049  52.198  1.00  0.00     0.041 A 
HETATM   10  C15 UNL     1      22.743   1.354  51.540  1.00  0.00     0.047 A 
ENDROOT
BRANCH   8  11
HETATM   11  N4  UNL     1      25.146   2.585  50.649  1.00  0.00    -0.361 N 
HETATM   12  C9  UNL     1      24.154   3.146  49.725  1.00  0.00     0.153 C 
HETATM   13  C10 UNL     1      24.331   4.644  49.780  1.00  0.00     0.007 C 
HETATM   14  C11 UNL     1      25.590   5.036  49.618  1.00  0.00    -0.012 C 
HETATM   15 BR1  UNL     1      25.823   6.949  49.687  1.00  0.00    -0.056 Br
HETATM   16  C12 UNL     1      26.664   4.022  49.405  1.00  0.00     0.066 C 
HETATM   17  C13 UNL     1      26.531   2.990  50.504  1.00  0.00     0.130 C 
ENDBRANCH   8  11
BRANCH   1  18
HETATM   18  N1  UNL     1      20.333   1.105  51.246  1.00  0.00    -0.327 N 
HETATM   19  C2  UNL     1      19.478   2.220  51.559  1.00  0.00     0.218 C 
HETATM   20  C1  UNL     1      18.259   2.362  50.693  1.00  0.00     0.117 C 
HETATM   21  O1  UNL     1      19.821   2.975  52.522  1.00  0.00    -0.274 OA
HETATM   22  H4  UNL     1      20.184   0.400  50.484  1.00  0.00     0.169 HD
ENDBRANCH   1  18
TORSDOF 2
ENDMDL
