MODEL 1
REMARK VINA RESULT:      -7.0      0.000      0.000
REMARK  8 active torsions:
REMARK  status: ('A' for Active; 'I' for Inactive)
REMARK    1  A    between atoms: C3_3  and  C4_4 
REMARK    2  A    between atoms: C4_4  and  N1_7 
REMARK       I    between atoms: N1_7  and  C7_8 
REMARK       I    between atoms: C7_8  and  N2_10 
REMARK    3  A    between atoms: N2_10  and  C8_11 
REMARK    4  A    between atoms: N2_10  and  C12_15 
REMARK    5  A    between atoms: C8_11  and  C9_12 
REMARK    6  A    between atoms: C9_12  and  C10_13 
REMARK    7  A    between atoms: C12_15  and  C13_16 
REMARK    8  A    between atoms: C18_22  and  O2_23 
ROOT
HETATM    1  N1  UNL     1      25.290  -0.642  52.918  1.00  0.00    -0.312 N 
HETATM    2  C7  UNL     1      24.763   0.662  52.780  1.00  0.00     0.322 C 
HETATM    3  O1  UNL     1      25.631   1.569  52.778  1.00  0.00    -0.247 OA
HETATM    4  N2  UNL     1      23.352   0.877  52.654  1.00  0.00    -0.330 N 
HETATM    5  H10 UNL     1      24.691  -1.495  52.933  1.00  0.00     0.170 HD
ENDROOT
BRANCH   4   6
HETATM    6  C8  UNL     1      22.328  -0.174  52.653  1.00  0.00     0.128 C 
BRANCH   6   7
HETATM    7  C9  UNL     1      21.536  -0.184  53.917  1.00  0.00     0.020 C 
BRANCH   7   8
HETATM    8  C10 UNL     1      21.593  -1.487  54.676  1.00  0.00    -0.003 C 
HETATM    9  C11 UNL     1      22.919  -1.440  55.444  1.00  0.00     0.005 C 
ENDBRANCH   7   8
ENDBRANCH   6   7
ENDBRANCH   4   6
BRANCH   4  10
HETATM   10  C12 UNL     1      22.926   2.254  52.517  1.00  0.00     0.169 C 
BRANCH  10  11
HETATM   11  C13 UNL     1      23.099   2.751  51.129  1.00  0.00    -0.006 A 
HETATM   12  C14 UNL     1      22.340   2.156  50.121  1.00  0.00     0.012 A 
HETATM   13  C15 UNL     1      22.442   2.563  48.790  1.00  0.00     0.002 A 
HETATM   14  C16 UNL     1      23.334   3.581  48.544  1.00  0.00     0.022 A 
HETATM   15  C17 UNL     1      24.097   4.186  49.520  1.00  0.00     0.044 A 
HETATM   16 BR1  UNL     1      25.289   5.586  49.008  1.00  0.00    -0.048 Br
HETATM   17  C18 UNL     1      23.980   3.769  50.824  1.00  0.00     0.090 A 
BRANCH  17  18
HETATM   18  O2  UNL     1      24.742   4.370  51.816  1.00  0.00    -0.359 OA
HETATM   19  H25 UNL     1      24.439   5.324  52.071  1.00  0.00     0.217 HD
ENDBRANCH  17  18
ENDBRANCH  10  11
ENDBRANCH   4  10
BRANCH   1  20
HETATM   20  C4  UNL     1      26.714  -0.904  53.048  1.00  0.00     0.015 C 
HETATM   21  C5  UNL     1      26.957  -2.187  52.726  1.00  0.00    -0.006 C 
HETATM   22  C6  UNL     1      28.328  -2.737  52.768  1.00  0.00     0.038 C 
BRANCH  20  23
HETATM   23  C3  UNL     1      28.061  -0.448  53.365  1.00  0.00     0.049 C 
HETATM   24  C2  UNL     1      28.836   0.506  53.904  1.00  0.00    -0.004 C 
HETATM   25  C1  UNL     1      30.203  -0.078  53.685  1.00  0.00     0.011 C 
ENDBRANCH  20  23
ENDBRANCH   1  20
TORSDOF 8
ENDMDL
MODEL 2
REMARK VINA RESULT:      -7.0      2.590      4.002
REMARK  8 active torsions:
REMARK  status: ('A' for Active; 'I' for Inactive)
REMARK    1  A    between atoms: C3_3  and  C4_4 
REMARK    2  A    between atoms: C4_4  and  N1_7 
REMARK       I    between atoms: N1_7  and  C7_8 
REMARK       I    between atoms: C7_8  and  N2_10 
REMARK    3  A    between atoms: N2_10  and  C8_11 
REMARK    4  A    between atoms: N2_10  and  C12_15 
REMARK    5  A    between atoms: C8_11  and  C9_12 
REMARK    6  A    between atoms: C9_12  and  C10_13 
REMARK    7  A    between atoms: C12_15  and  C13_16 
REMARK    8  A    between atoms: C18_22  and  O2_23 
ROOT
HETATM    1  N1  UNL     1      26.301   2.490  52.640  1.00  0.00    -0.312 N 
HETATM    2  C7  UNL     1      26.088   2.781  51.274  1.00  0.00     0.322 C 
HETATM    3  O1  UNL     1      26.932   2.265  50.501  1.00  0.00    -0.247 OA
HETATM    4  N2  UNL     1      24.988   3.599  50.857  1.00  0.00    -0.330 N 
HETATM    5  H10 UNL     1      25.680   2.846  53.398  1.00  0.00     0.170 HD
ENDROOT
BRANCH   4   6
HETATM    6  C8  UNL     1      23.994   4.207  51.750  1.00  0.00     0.128 C 
BRANCH   6   7
HETATM    7  C9  UNL     1      22.669   3.530  51.657  1.00  0.00     0.020 C 
BRANCH   7   8
HETATM    8  C10 UNL     1      22.638   2.142  52.249  1.00  0.00    -0.003 C 
HETATM    9  C11 UNL     1      22.295   1.218  51.075  1.00  0.00     0.005 C 
ENDBRANCH   7   8
ENDBRANCH   6   7
ENDBRANCH   4   6
BRANCH   4  10
HETATM   10  C12 UNL     1      24.868   3.830  49.433  1.00  0.00     0.169 C 
BRANCH  10  11
HETATM   11  C13 UNL     1      25.408   5.157  49.041  1.00  0.00    -0.006 A 
HETATM   12  C14 UNL     1      24.524   6.234  48.985  1.00  0.00     0.012 A 
HETATM   13  C15 UNL     1      24.950   7.513  48.627  1.00  0.00     0.002 A 
HETATM   14  C16 UNL     1      26.289   7.637  48.335  1.00  0.00     0.022 A 
HETATM   15  C17 UNL     1      27.184   6.590  48.381  1.00  0.00     0.044 A 
HETATM   16 BR1  UNL     1      29.011   6.932  47.945  1.00  0.00    -0.048 Br
HETATM   17  C18 UNL     1      26.742   5.339  48.737  1.00  0.00     0.090 A 
BRANCH  17  18
HETATM   18  O2  UNL     1      27.634   4.276  48.788  1.00  0.00    -0.359 OA
HETATM   19  H25 UNL     1      27.457   3.533  48.094  1.00  0.00     0.217 HD
ENDBRANCH  17  18
ENDBRANCH  10  11
ENDBRANCH   4  10
BRANCH   1  20
HETATM   20  C4  UNL     1      27.404   1.665  53.104  1.00  0.00     0.015 C 
HETATM   21  C5  UNL     1      28.282   2.437  53.769  1.00  0.00    -0.006 C 
HETATM   22  C6  UNL     1      29.510   1.862  54.357  1.00  0.00     0.038 C 
BRANCH  20  23
HETATM   23  C3  UNL     1      28.055   0.366  53.213  1.00  0.00     0.049 C 
HETATM   24  C2  UNL     1      27.941  -0.968  53.125  1.00  0.00    -0.004 C 
HETATM   25  C1  UNL     1      29.341  -1.399  53.461  1.00  0.00     0.011 C 
ENDBRANCH  20  23
ENDBRANCH   1  20
TORSDOF 8
ENDMDL
MODEL 3
REMARK VINA RESULT:      -6.9      2.525      5.846
REMARK  8 active torsions:
REMARK  status: ('A' for Active; 'I' for Inactive)
REMARK    1  A    between atoms: C3_3  and  C4_4 
REMARK    2  A    between atoms: C4_4  and  N1_7 
REMARK       I    between atoms: N1_7  and  C7_8 
REMARK       I    between atoms: C7_8  and  N2_10 
REMARK    3  A    between atoms: N2_10  and  C8_11 
REMARK    4  A    between atoms: N2_10  and  C12_15 
REMARK    5  A    between atoms: C8_11  and  C9_12 
REMARK    6  A    between atoms: C9_12  and  C10_13 
REMARK    7  A    between atoms: C12_15  and  C13_16 
REMARK    8  A    between atoms: C18_22  and  O2_23 
ROOT
HETATM    1  N1  UNL     1      24.009   3.413  50.049  1.00  0.00    -0.312 N 
HETATM    2  C7  UNL     1      24.387   2.991  51.343  1.00  0.00     0.322 C 
HETATM    3  O1  UNL     1      25.352   3.630  51.830  1.00  0.00    -0.247 OA
HETATM    4  N2  UNL     1      23.698   1.921  52.001  1.00  0.00    -0.330 N 
HETATM    5  H10 UNL     1      23.223   2.978  49.520  1.00  0.00     0.170 HD
ENDROOT
BRANCH   4   6
HETATM    6  C8  UNL     1      22.569   1.166  51.443  1.00  0.00     0.128 C 
BRANCH   6   7
HETATM    7  C9  UNL     1      21.415   1.106  52.386  1.00  0.00     0.020 C 
BRANCH   7   8
HETATM    8  C10 UNL     1      21.072  -0.285  52.860  1.00  0.00    -0.003 C 
HETATM    9  C11 UNL     1      21.246  -0.239  54.382  1.00  0.00     0.005 C 
ENDBRANCH   7   8
ENDBRANCH   6   7
ENDBRANCH   4   6
BRANCH   4  10
HETATM   10  C12 UNL     1      24.172   1.574  53.325  1.00  0.00     0.169 C 
BRANCH  10  11
HETATM   11  C13 UNL     1      25.395   0.734  53.270  1.00  0.00    -0.006 A 
HETATM   12  C14 UNL     1      25.265  -0.585  52.837  1.00  0.00     0.012 A 
HETATM   13  C15 UNL     1      26.364  -1.441  52.756  1.00  0.00     0.002 A 
HETATM   14  C16 UNL     1      27.572  -0.899  53.131  1.00  0.00     0.022 A 
HETATM   15  C17 UNL     1      27.729   0.400  53.564  1.00  0.00     0.044 A 
HETATM   16 BR1  UNL     1      29.477   0.996  54.048  1.00  0.00    -0.048 Br
HETATM   17  C18 UNL     1      26.633   1.225  53.635  1.00  0.00     0.090 A 
BRANCH  17  18
HETATM   18  O2  UNL     1      26.777   2.536  54.069  1.00  0.00    -0.359 OA
HETATM   19  H25 UNL     1      26.485   3.250  53.383  1.00  0.00     0.217 HD
ENDBRANCH  17  18
ENDBRANCH  10  11
ENDBRANCH   4  10
BRANCH   1  20
HETATM   20  C4  UNL     1      24.681   4.494  49.347  1.00  0.00     0.015 C 
HETATM   21  C5  UNL     1      23.759   5.294  48.784  1.00  0.00    -0.006 C 
HETATM   22  C6  UNL     1      24.157   6.483  48.001  1.00  0.00     0.038 C 
BRANCH  20  23
HETATM   23  C3  UNL     1      25.907   5.167  48.938  1.00  0.00     0.049 C 
HETATM   24  C2  UNL     1      27.227   5.079  48.714  1.00  0.00    -0.004 C 
HETATM   25  C1  UNL     1      27.539   6.483  48.278  1.00  0.00     0.011 C 
ENDBRANCH  20  23
ENDBRANCH   1  20
TORSDOF 8
ENDMDL
MODEL 4
REMARK VINA RESULT:      -6.8      2.851      6.978
REMARK  8 active torsions:
REMARK  status: ('A' for Active; 'I' for Inactive)
REMARK    1  A    between atoms: C3_3  and  C4_4 
REMARK    2  A    between atoms: C4_4  and  N1_7 
REMARK       I    between atoms: N1_7  and  C7_8 
REMARK       I    between atoms: C7_8  and  N2_10 
REMARK    3  A    between atoms: N2_10  and  C8_11 
REMARK    4  A    between atoms: N2_10  and  C12_15 
REMARK    5  A    between atoms: C8_11  and  C9_12 
REMARK    6  A    between atoms: C9_12  and  C10_13 
REMARK    7  A    between atoms: C12_15  and  C13_16 
REMARK    8  A    between atoms: C18_22  and  O2_23 
ROOT
HETATM    1  N1  UNL     1      24.925   4.000  51.810  1.00  0.00    -0.312 N 
HETATM    2  C7  UNL     1      24.853   2.591  51.728  1.00  0.00     0.322 C 
HETATM    3  O1  UNL     1      24.017   2.168  50.892  1.00  0.00    -0.247 OA
HETATM    4  N2  UNL     1      25.684   1.760  52.549  1.00  0.00    -0.330 N 
HETATM    5  H10 UNL     1      25.575   4.495  52.457  1.00  0.00     0.170 HD
ENDROOT
BRANCH   4   6
HETATM    6  C8  UNL     1      26.665   2.243  53.528  1.00  0.00     0.128 C 
BRANCH   6   7
HETATM    7  C9  UNL     1      28.045   1.769  53.219  1.00  0.00     0.020 C 
BRANCH   7   8
HETATM    8  C10 UNL     1      28.688   0.966  54.323  1.00  0.00    -0.003 C 
HETATM    9  C11 UNL     1      29.058  -0.372  53.675  1.00  0.00     0.005 C 
ENDBRANCH   7   8
ENDBRANCH   6   7
ENDBRANCH   4   6
BRANCH   4  10
HETATM   10  C12 UNL     1      25.525   0.331  52.379  1.00  0.00     0.169 C 
BRANCH  10  11
HETATM   11  C13 UNL     1      24.678  -0.261  53.445  1.00  0.00    -0.006 A 
HETATM   12  C14 UNL     1      25.300  -0.681  54.619  1.00  0.00     0.012 A 
HETATM   13  C15 UNL     1      24.577  -1.248  55.669  1.00  0.00     0.002 A 
HETATM   14  C16 UNL     1      23.221  -1.361  55.468  1.00  0.00     0.022 A 
HETATM   15  C17 UNL     1      22.579  -0.955  54.317  1.00  0.00     0.044 A 
HETATM   16 BR1  UNL     1      20.688  -1.185  54.198  1.00  0.00    -0.048 Br
HETATM   17  C18 UNL     1      23.312  -0.400  53.296  1.00  0.00     0.090 A 
BRANCH  17  18
HETATM   18  O2  UNL     1      22.678   0.014  52.133  1.00  0.00    -0.359 OA
HETATM   19  H25 UNL     1      22.674   1.036  51.986  1.00  0.00     0.217 HD
ENDBRANCH  17  18
ENDBRANCH  10  11
ENDBRANCH   4  10
BRANCH   1  20
HETATM   20  C4  UNL     1      24.100   4.877  50.996  1.00  0.00     0.015 C 
HETATM   21  C5  UNL     1      23.045   5.287  51.722  1.00  0.00    -0.006 C 
HETATM   22  C6  UNL     1      22.030   6.195  51.146  1.00  0.00     0.038 C 
BRANCH  20  23
HETATM   23  C3  UNL     1      23.841   5.560  49.736  1.00  0.00     0.049 C 
HETATM   24  C2  UNL     1      24.100   5.651  48.423  1.00  0.00    -0.004 C 
HETATM   25  C1  UNL     1      23.216   6.803  48.034  1.00  0.00     0.011 C 
ENDBRANCH  20  23
ENDBRANCH   1  20
TORSDOF 8
ENDMDL
MODEL 5
REMARK VINA RESULT:      -6.8      3.202      6.977
REMARK  8 active torsions:
REMARK  status: ('A' for Active; 'I' for Inactive)
REMARK    1  A    between atoms: C3_3  and  C4_4 
REMARK    2  A    between atoms: C4_4  and  N1_7 
REMARK       I    between atoms: N1_7  and  C7_8 
REMARK       I    between atoms: C7_8  and  N2_10 
REMARK    3  A    between atoms: N2_10  and  C8_11 
REMARK    4  A    between atoms: N2_10  and  C12_15 
REMARK    5  A    between atoms: C8_11  and  C9_12 
REMARK    6  A    between atoms: C9_12  and  C10_13 
REMARK    7  A    between atoms: C12_15  and  C13_16 
REMARK    8  A    between atoms: C18_22  and  O2_23 
ROOT
HETATM    1  N1  UNL     1      24.098   4.784  52.141  1.00  0.00    -0.312 N 
HETATM    2  C7  UNL     1      23.892   3.449  51.726  1.00  0.00     0.322 C 
HETATM    3  O1  UNL     1      23.170   3.335  50.705  1.00  0.00    -0.247 OA
HETATM    4  N2  UNL     1      24.478   2.355  52.442  1.00  0.00    -0.330 N 
HETATM    5  H10 UNL     1      24.678   5.035  52.970  1.00  0.00     0.170 HD
ENDROOT
BRANCH   4   6
HETATM    6  C8  UNL     1      25.324   2.475  53.635  1.00  0.00     0.128 C 
BRANCH   6   7
HETATM    7  C9  UNL     1      26.682   1.898  53.419  1.00  0.00     0.020 C 
BRANCH   7   8
HETATM    8  C10 UNL     1      26.999   0.711  54.295  1.00  0.00    -0.003 C 
HETATM    9  C11 UNL     1      27.321  -0.427  53.320  1.00  0.00     0.005 C 
ENDBRANCH   7   8
ENDBRANCH   6   7
ENDBRANCH   4   6
BRANCH   4  10
HETATM   10  C12 UNL     1      24.199   1.031  51.925  1.00  0.00     0.169 C 
BRANCH  10  11
HETATM   11  C13 UNL     1      23.121   0.356  52.691  1.00  0.00    -0.006 A 
HETATM   12  C14 UNL     1      23.475  -0.337  53.848  1.00  0.00     0.012 A 
HETATM   13  C15 UNL     1      22.523  -0.999  54.625  1.00  0.00     0.002 A 
HETATM   14  C16 UNL     1      21.225  -0.921  54.176  1.00  0.00     0.022 A 
HETATM   15  C17 UNL     1      20.848  -0.243  53.035  1.00  0.00     0.044 A 
HETATM   16 BR1  UNL     1      19.002  -0.233  52.550  1.00  0.00    -0.048 Br
HETATM   17  C18 UNL     1      21.802   0.401  52.286  1.00  0.00     0.090 A 
BRANCH  17  18
HETATM   18  O2  UNL     1      21.435   1.087  51.136  1.00  0.00    -0.359 OA
HETATM   19  H25 UNL     1      20.426   1.294  51.063  1.00  0.00     0.217 HD
ENDBRANCH  17  18
ENDBRANCH  10  11
ENDBRANCH   4  10
BRANCH   1  20
HETATM   20  C4  UNL     1      23.522   5.921  51.443  1.00  0.00     0.015 C 
HETATM   21  C5  UNL     1      24.501   6.789  51.131  1.00  0.00    -0.006 C 
HETATM   22  C6  UNL     1      24.206   8.046  50.413  1.00  0.00     0.038 C 
BRANCH  20  23
HETATM   23  C3  UNL     1      22.365   6.614  50.891  1.00  0.00     0.049 C 
HETATM   24  C2  UNL     1      21.112   6.527  50.419  1.00  0.00    -0.004 C 
HETATM   25  C1  UNL     1      20.827   7.966  50.094  1.00  0.00     0.011 C 
ENDBRANCH  20  23
ENDBRANCH   1  20
TORSDOF 8
ENDMDL
MODEL 6
REMARK VINA RESULT:      -6.7      2.831      4.522
REMARK  8 active torsions:
REMARK  status: ('A' for Active; 'I' for Inactive)
REMARK    1  A    between atoms: C3_3  and  C4_4 
REMARK    2  A    between atoms: C4_4  and  N1_7 
REMARK       I    between atoms: N1_7  and  C7_8 
REMARK       I    between atoms: C7_8  and  N2_10 
REMARK    3  A    between atoms: N2_10  and  C8_11 
REMARK    4  A    between atoms: N2_10  and  C12_15 
REMARK    5  A    between atoms: C8_11  and  C9_12 
REMARK    6  A    between atoms: C9_12  and  C10_13 
REMARK    7  A    between atoms: C12_15  and  C13_16 
REMARK    8  A    between atoms: C18_22  and  O2_23 
ROOT
HETATM    1  N1  UNL     1      26.254   1.217  51.632  1.00  0.00    -0.312 N 
HETATM    2  C7  UNL     1      25.313   1.983  52.356  1.00  0.00     0.322 C 
HETATM    3  O1  UNL     1      25.271   1.720  53.583  1.00  0.00    -0.247 OA
HETATM    4  N2  UNL     1      24.499   2.964  51.701  1.00  0.00    -0.330 N 
HETATM    5  H10 UNL     1      26.403   1.328  50.607  1.00  0.00     0.170 HD
ENDROOT
BRANCH   4   6
HETATM    6  C8  UNL     1      24.537   3.281  50.268  1.00  0.00     0.128 C 
BRANCH   6   7
HETATM    7  C9  UNL     1      25.508   4.372  49.963  1.00  0.00     0.020 C 
BRANCH   7   8
HETATM    8  C10 UNL     1      26.800   3.899  49.345  1.00  0.00    -0.003 C 
HETATM    9  C11 UNL     1      27.395   5.140  48.671  1.00  0.00     0.005 C 
ENDBRANCH   7   8
ENDBRANCH   6   7
ENDBRANCH   4   6
BRANCH   4  10
HETATM   10  C12 UNL     1      23.569   3.688  52.542  1.00  0.00     0.169 C 
BRANCH  10  11
HETATM   11  C13 UNL     1      22.158   3.398  52.184  1.00  0.00    -0.006 A 
HETATM   12  C14 UNL     1      21.408   4.415  51.595  1.00  0.00     0.012 A 
HETATM   13  C15 UNL     1      20.076   4.225  51.228  1.00  0.00     0.002 A 
HETATM   14  C16 UNL     1      19.558   2.977  51.484  1.00  0.00     0.022 A 
HETATM   15  C17 UNL     1      20.275   1.953  52.066  1.00  0.00     0.044 A 
HETATM   16 BR1  UNL     1      19.404   0.279  52.354  1.00  0.00    -0.048 Br
HETATM   17  C18 UNL     1      21.586   2.163  52.420  1.00  0.00     0.090 A 
BRANCH  17  18
HETATM   18  O2  UNL     1      22.319   1.140  53.005  1.00  0.00    -0.359 OA
HETATM   19  H25 UNL     1      21.912   0.199  52.889  1.00  0.00     0.217 HD
ENDBRANCH  17  18
ENDBRANCH  10  11
ENDBRANCH   4  10
BRANCH   1  20
HETATM   20  C4  UNL     1      27.098   0.214  52.259  1.00  0.00     0.015 C 
HETATM   21  C5  UNL     1      26.530  -0.996  52.107  1.00  0.00    -0.006 C 
HETATM   22  C6  UNL     1      27.172  -2.212  52.648  1.00  0.00     0.038 C 
BRANCH  20  23
HETATM   23  C3  UNL     1      28.302  -0.146  52.996  1.00  0.00     0.049 C 
HETATM   24  C2  UNL     1      29.200   0.194  53.933  1.00  0.00    -0.004 C 
HETATM   25  C1  UNL     1      30.110  -1.002  53.907  1.00  0.00     0.011 C 
ENDBRANCH  20  23
ENDBRANCH   1  20
TORSDOF 8
ENDMDL
MODEL 7
REMARK VINA RESULT:      -6.6      3.387      6.507
REMARK  8 active torsions:
REMARK  status: ('A' for Active; 'I' for Inactive)
REMARK    1  A    between atoms: C3_3  and  C4_4 
REMARK    2  A    between atoms: C4_4  and  N1_7 
REMARK       I    between atoms: N1_7  and  C7_8 
REMARK       I    between atoms: C7_8  and  N2_10 
REMARK    3  A    between atoms: N2_10  and  C8_11 
REMARK    4  A    between atoms: N2_10  and  C12_15 
REMARK    5  A    between atoms: C8_11  and  C9_12 
REMARK    6  A    between atoms: C9_12  and  C10_13 
REMARK    7  A    between atoms: C12_15  and  C13_16 
REMARK    8  A    between atoms: C18_22  and  O2_23 
ROOT
HETATM    1  N1  UNL     1      25.536   5.159  50.265  1.00  0.00    -0.312 N 
HETATM    2  C7  UNL     1      25.498   3.747  50.329  1.00  0.00     0.322 C 
HETATM    3  O1  UNL     1      26.176   3.174  49.442  1.00  0.00    -0.247 OA
HETATM    4  N2  UNL     1      24.736   3.076  51.341  1.00  0.00    -0.330 N 
HETATM    5  H10 UNL     1      25.025   5.769  50.937  1.00  0.00     0.170 HD
ENDROOT
BRANCH   4   6
HETATM    6  C8  UNL     1      23.940   3.734  52.383  1.00  0.00     0.128 C 
BRANCH   6   7
HETATM    7  C9  UNL     1      22.526   3.945  51.958  1.00  0.00     0.020 C 
BRANCH   7   8
HETATM    8  C10 UNL     1      21.576   2.861  52.401  1.00  0.00    -0.003 C 
HETATM    9  C11 UNL     1      21.117   2.182  51.106  1.00  0.00     0.005 C 
ENDBRANCH   7   8
ENDBRANCH   6   7
ENDBRANCH   4   6
BRANCH   4  10
HETATM   10  C12 UNL     1      24.770   1.628  51.310  1.00  0.00     0.169 C 
BRANCH  10  11
HETATM   11  C13 UNL     1      25.428   1.066  52.517  1.00  0.00    -0.006 A 
HETATM   12  C14 UNL     1      24.658   0.287  53.380  1.00  0.00     0.012 A 
HETATM   13  C15 UNL     1      25.199  -0.279  54.535  1.00  0.00     0.002 A 
HETATM   14  C16 UNL     1      26.530  -0.017  54.762  1.00  0.00     0.022 A 
HETATM   15  C17 UNL     1      27.314   0.751  53.926  1.00  0.00     0.044 A 
HETATM   16 BR1  UNL     1      29.147   1.018  54.388  1.00  0.00    -0.048 Br
HETATM   17  C18 UNL     1      26.761   1.298  52.794  1.00  0.00     0.090 A 
BRANCH  17  18
HETATM   18  O2  UNL     1      27.539   2.071  51.945  1.00  0.00    -0.359 OA
HETATM   19  H25 UNL     1      27.146   3.001  51.730  1.00  0.00     0.217 HD
ENDBRANCH  17  18
ENDBRANCH  10  11
ENDBRANCH   4  10
BRANCH   1  20
HETATM   20  C4  UNL     1      26.296   5.878  49.256  1.00  0.00     0.015 C 
HETATM   21  C5  UNL     1      25.477   6.726  48.610  1.00  0.00    -0.006 C 
HETATM   22  C6  UNL     1      25.980   7.594  47.524  1.00  0.00     0.038 C 
BRANCH  20  23
HETATM   23  C3  UNL     1      27.554   6.148  48.573  1.00  0.00     0.049 C 
HETATM   24  C2  UNL     1      28.778   5.710  48.239  1.00  0.00    -0.004 C 
HETATM   25  C1  UNL     1      29.297   6.881  47.453  1.00  0.00     0.011 C 
ENDBRANCH  20  23
ENDBRANCH   1  20
TORSDOF 8
ENDMDL
MODEL 8
REMARK VINA RESULT:      -6.6      2.773      4.305
REMARK  8 active torsions:
REMARK  status: ('A' for Active; 'I' for Inactive)
REMARK    1  A    between atoms: C3_3  and  C4_4 
REMARK    2  A    between atoms: C4_4  and  N1_7 
REMARK       I    between atoms: N1_7  and  C7_8 
REMARK       I    between atoms: C7_8  and  N2_10 
REMARK    3  A    between atoms: N2_10  and  C8_11 
REMARK    4  A    between atoms: N2_10  and  C12_15 
REMARK    5  A    between atoms: C8_11  and  C9_12 
REMARK    6  A    between atoms: C9_12  and  C10_13 
REMARK    7  A    between atoms: C12_15  and  C13_16 
REMARK    8  A    between atoms: C18_22  and  O2_23 
ROOT
HETATM    1  N1  UNL     1      26.269   1.543  51.564  1.00  0.00    -0.312 N 
HETATM    2  C7  UNL     1      25.398   2.397  52.276  1.00  0.00     0.322 C 
HETATM    3  O1  UNL     1      25.333   2.156  53.506  1.00  0.00    -0.247 OA
HETATM    4  N2  UNL     1      24.672   3.436  51.606  1.00  0.00    -0.330 N 
HETATM    5  H10 UNL     1      26.427   1.625  50.537  1.00  0.00     0.170 HD
ENDROOT
BRANCH   4   6
HETATM    6  C8  UNL     1      24.739   3.729  50.169  1.00  0.00     0.128 C 
BRANCH   6   7
HETATM    7  C9  UNL     1      25.787   4.741  49.852  1.00  0.00     0.020 C 
BRANCH   7   8
HETATM    8  C10 UNL     1      26.988   4.186  49.128  1.00  0.00    -0.003 C 
HETATM    9  C11 UNL     1      27.699   5.411  48.542  1.00  0.00     0.005 C 
ENDBRANCH   7   8
ENDBRANCH   6   7
ENDBRANCH   4   6
BRANCH   4  10
HETATM   10  C12 UNL     1      23.809   4.250  52.436  1.00  0.00     0.169 C 
BRANCH  10  11
HETATM   11  C13 UNL     1      22.510   4.530  51.774  1.00  0.00    -0.006 A 
HETATM   12  C14 UNL     1      21.571   3.501  51.712  1.00  0.00     0.012 A 
HETATM   13  C15 UNL     1      20.326   3.680  51.108  1.00  0.00     0.002 A 
HETATM   14  C16 UNL     1      20.092   4.930  50.583  1.00  0.00     0.022 A 
HETATM   15  C17 UNL     1      21.002   5.965  50.629  1.00  0.00     0.044 A 
HETATM   16 BR1  UNL     1      20.518   7.640  49.851  1.00  0.00    -0.048 Br
HETATM   17  C18 UNL     1      22.221   5.766  51.229  1.00  0.00     0.090 A 
BRANCH  17  18
HETATM   18  O2  UNL     1      23.146   6.799  51.283  1.00  0.00    -0.359 OA
HETATM   19  H25 UNL     1      23.133   7.342  52.162  1.00  0.00     0.217 HD
ENDBRANCH  17  18
ENDBRANCH  10  11
ENDBRANCH   4  10
BRANCH   1  20
HETATM   20  C4  UNL     1      27.023   0.479  52.205  1.00  0.00     0.015 C 
HETATM   21  C5  UNL     1      26.332  -0.671  52.105  1.00  0.00    -0.006 C 
HETATM   22  C6  UNL     1      26.861  -1.930  52.672  1.00  0.00     0.038 C 
BRANCH  20  23
HETATM   23  C3  UNL     1      28.201   0.021  52.930  1.00  0.00     0.049 C 
HETATM   24  C2  UNL     1      29.184   0.315  53.795  1.00  0.00    -0.004 C 
HETATM   25  C1  UNL     1      29.918  -0.994  53.852  1.00  0.00     0.011 C 
ENDBRANCH  20  23
ENDBRANCH   1  20
TORSDOF 8
ENDMDL
MODEL 9
REMARK VINA RESULT:      -6.5      2.769      4.412
REMARK  8 active torsions:
REMARK  status: ('A' for Active; 'I' for Inactive)
REMARK    1  A    between atoms: C3_3  and  C4_4 
REMARK    2  A    between atoms: C4_4  and  N1_7 
REMARK       I    between atoms: N1_7  and  C7_8 
REMARK       I    between atoms: C7_8  and  N2_10 
REMARK    3  A    between atoms: N2_10  and  C8_11 
REMARK    4  A    between atoms: N2_10  and  C12_15 
REMARK    5  A    between atoms: C8_11  and  C9_12 
REMARK    6  A    between atoms: C9_12  and  C10_13 
REMARK    7  A    between atoms: C12_15  and  C13_16 
REMARK    8  A    between atoms: C18_22  and  O2_23 
ROOT
HETATM    1  N1  UNL     1      26.390   2.662  52.256  1.00  0.00    -0.312 N 
HETATM    2  C7  UNL     1      25.000   2.479  52.430  1.00  0.00     0.322 C 
HETATM    3  O1  UNL     1      24.696   1.472  53.115  1.00  0.00    -0.247 OA
HETATM    4  N2  UNL     1      24.057   3.392  51.853  1.00  0.00    -0.330 N 
HETATM    5  H10 UNL     1      26.792   3.456  51.713  1.00  0.00     0.170 HD
ENDROOT
BRANCH   4   6
HETATM    6  C8  UNL     1      24.399   4.572  51.050  1.00  0.00     0.128 C 
BRANCH   6   7
HETATM    7  C9  UNL     1      24.847   4.204  49.676  1.00  0.00     0.020 C 
BRANCH   7   8
HETATM    8  C10 UNL     1      25.855   5.152  49.076  1.00  0.00    -0.003 C 
HETATM    9  C11 UNL     1      27.170   4.365  49.044  1.00  0.00     0.005 C 
ENDBRANCH   7   8
ENDBRANCH   6   7
ENDBRANCH   4   6
BRANCH   4  10
HETATM   10  C12 UNL     1      22.659   3.105  52.096  1.00  0.00     0.169 C 
BRANCH  10  11
HETATM   11  C13 UNL     1      21.952   2.710  50.852  1.00  0.00    -0.006 A 
HETATM   12  C14 UNL     1      22.186   1.434  50.341  1.00  0.00     0.012 A 
HETATM   13  C15 UNL     1      21.562   0.984  49.177  1.00  0.00     0.002 A 
HETATM   14  C16 UNL     1      20.708   1.879  48.574  1.00  0.00     0.022 A 
HETATM   15  C17 UNL     1      20.459   3.147  49.055  1.00  0.00     0.044 A 
HETATM   16 BR1  UNL     1      19.246   4.265  48.095  1.00  0.00    -0.048 Br
HETATM   17  C18 UNL     1      21.085   3.568  50.203  1.00  0.00     0.090 A 
BRANCH  17  18
HETATM   18  O2  UNL     1      20.842   4.841  50.699  1.00  0.00    -0.359 OA
HETATM   19  H25 UNL     1      20.851   4.910  51.729  1.00  0.00     0.217 HD
ENDBRANCH  17  18
ENDBRANCH  10  11
ENDBRANCH   4  10
BRANCH   1  20
HETATM   20  C4  UNL     1      27.378   1.760  52.824  1.00  0.00     0.015 C 
HETATM   21  C5  UNL     1      28.243   2.469  53.571  1.00  0.00    -0.006 C 
HETATM   22  C6  UNL     1      29.362   1.808  54.275  1.00  0.00     0.038 C 
BRANCH  20  23
HETATM   23  C3  UNL     1      27.915   0.417  52.995  1.00  0.00     0.049 C 
HETATM   24  C2  UNL     1      27.687  -0.905  52.973  1.00  0.00    -0.004 C 
HETATM   25  C1  UNL     1      29.048  -1.437  53.326  1.00  0.00     0.011 C 
ENDBRANCH  20  23
ENDBRANCH   1  20
TORSDOF 8
ENDMDL
