MODEL 1
REMARK VINA RESULT:      -9.2      0.000      0.000
REMARK  2 active torsions:
REMARK  status: ('A' for Active; 'I' for Inactive)
REMARK    1  A    between atoms: O1_2  and  C2_3 
REMARK    2  A    between atoms: C9_12  and  O2_13 
ROOT
HETATM    1  C2  UNL     1      26.846   0.232  53.347  1.00  0.00     0.104 A 
HETATM    2  C3  UNL     1      27.227   1.170  52.436  1.00  0.00     0.072 A 
HETATM    3  C4  UNL     1      26.280   1.834  51.686  1.00  0.00     0.075 A 
HETATM    4  N1  UNL     1      26.849   2.693  50.830  1.00  0.00    -0.241 NA
HETATM    5  C5  UNL     1      26.118   3.426  49.979  1.00  0.00     0.236 A 
HETATM    6  N2  UNL     1      24.791   3.231  50.055  1.00  0.00    -0.224 NA
HETATM    7  C6  UNL     1      24.197   2.376  50.903  1.00  0.00     0.138 A 
HETATM    8  C7  UNL     1      24.944   1.632  51.775  1.00  0.00     0.051 A 
HETATM    9  C8  UNL     1      24.578   0.680  52.710  1.00  0.00     0.016 A 
HETATM   10  C9  UNL     1      25.492  -0.000  53.467  1.00  0.00     0.112 A 
HETATM   11  C11 UNL     1      23.215   0.384  53.123  1.00  0.00     0.015 C 
HETATM   12  C12 UNL     1      22.142   0.090  53.758  1.00  0.00     0.001 C 
HETATM   13  C13 UNL     1      20.734  -0.143  53.869  1.00  0.00    -0.004 C 
HETATM   14  C14 UNL     1      19.934   0.009  52.773  1.00  0.00    -0.021 C 
HETATM   15  C15 UNL     1      19.816   0.346  51.342  1.00  0.00     0.021 C 
HETATM   16  C16 UNL     1      20.687   0.718  50.371  1.00  0.00     0.005 C 
HETATM   17  C17 UNL     1      21.315   1.128  49.120  1.00  0.00     0.015 A 
HETATM   18  C18 UNL     1      20.983   2.597  48.770  1.00  0.00     0.032 A 
HETATM   19  C19 UNL     1      22.358   2.186  49.190  1.00  0.00     0.088 A 
HETATM   20  N3  UNL     1      22.810   2.458  50.575  1.00  0.00    -0.369 N 
HETATM   21  H19 UNL     1      22.563   2.716  51.540  1.00  0.00     0.161 HD
ENDROOT
BRANCH   1  22
HETATM   22  O1  UNL     1      27.638  -0.535  54.186  1.00  0.00    -0.353 OA
HETATM   23  C1  UNL     1      28.674   0.062  54.936  1.00  0.00     0.210 C 
ENDBRANCH   1  22
BRANCH  10  24
HETATM   24  O2  UNL     1      24.828  -0.890  54.292  1.00  0.00    -0.352 OA
HETATM   25  C10 UNL     1      25.051  -0.928  55.696  1.00  0.00     0.210 C 
ENDBRANCH  10  24
TORSDOF 2
ENDMDL
MODEL 2
REMARK VINA RESULT:      -9.0      2.004      4.451
REMARK  2 active torsions:
REMARK  status: ('A' for Active; 'I' for Inactive)
REMARK    1  A    between atoms: O1_2  and  C2_3 
REMARK    2  A    between atoms: C9_12  and  O2_13 
ROOT
HETATM    1  C2  UNL     1      26.802  -0.115  53.763  1.00  0.00     0.104 A 
HETATM    2  C3  UNL     1      25.580  -0.684  53.955  1.00  0.00     0.072 A 
HETATM    3  C4  UNL     1      24.479  -0.207  53.277  1.00  0.00     0.075 A 
HETATM    4  N1  UNL     1      23.368  -0.874  53.620  1.00  0.00    -0.241 NA
HETATM    5  C5  UNL     1      22.171  -0.558  53.105  1.00  0.00     0.236 A 
HETATM    6  N2  UNL     1      22.179   0.464  52.233  1.00  0.00    -0.224 NA
HETATM    7  C6  UNL     1      23.277   1.147  51.875  1.00  0.00     0.138 A 
HETATM    8  C7  UNL     1      24.499   0.821  52.397  1.00  0.00     0.051 A 
HETATM    9  C8  UNL     1      25.750   1.381  52.212  1.00  0.00     0.016 A 
HETATM   10  C9  UNL     1      26.863   0.935  52.872  1.00  0.00     0.112 A 
HETATM   11  C11 UNL     1      26.086   2.382  51.212  1.00  0.00     0.015 C 
HETATM   12  C12 UNL     1      26.641   3.109  50.314  1.00  0.00     0.001 C 
HETATM   13  C13 UNL     1      26.687   4.200  49.389  1.00  0.00    -0.004 C 
HETATM   14  C14 UNL     1      25.602   5.016  49.248  1.00  0.00    -0.021 C 
HETATM   15  C15 UNL     1      24.221   5.349  49.647  1.00  0.00     0.021 C 
HETATM   16  C16 UNL     1      23.323   4.822  50.515  1.00  0.00     0.005 C 
HETATM   17  C17 UNL     1      22.142   4.532  51.321  1.00  0.00     0.015 A 
HETATM   18  C18 UNL     1      21.001   3.934  50.467  1.00  0.00     0.032 A 
HETATM   19  C19 UNL     1      21.744   3.106  51.465  1.00  0.00     0.088 A 
HETATM   20  N3  UNL     1      22.790   2.165  51.001  1.00  0.00    -0.369 N 
HETATM   21  H19 UNL     1      23.413   1.856  50.241  1.00  0.00     0.161 HD
ENDROOT
BRANCH   1  22
HETATM   22  O1  UNL     1      28.015  -0.447  54.344  1.00  0.00    -0.353 OA
HETATM   23  C1  UNL     1      28.965  -1.210  53.632  1.00  0.00     0.210 C 
ENDBRANCH   1  22
BRANCH  10  24
HETATM   24  O2  UNL     1      27.953   1.698  52.492  1.00  0.00    -0.352 OA
HETATM   25  C10 UNL     1      28.664   2.511  53.418  1.00  0.00     0.210 C 
ENDBRANCH  10  24
TORSDOF 2
ENDMDL
MODEL 3
REMARK VINA RESULT:      -8.8      2.582      4.683
REMARK  2 active torsions:
REMARK  status: ('A' for Active; 'I' for Inactive)
REMARK    1  A    between atoms: O1_2  and  C2_3 
REMARK    2  A    between atoms: C9_12  and  O2_13 
ROOT
HETATM    1  C2  UNL     1      25.838   3.295  50.681  1.00  0.00     0.104 A 
HETATM    2  C3  UNL     1      26.648   2.526  51.459  1.00  0.00     0.072 A 
HETATM    3  C4  UNL     1      26.138   1.431  52.124  1.00  0.00     0.075 A 
HETATM    4  N1  UNL     1      27.080   0.822  52.857  1.00  0.00    -0.241 NA
HETATM    5  C5  UNL     1      26.799  -0.250  53.611  1.00  0.00     0.236 A 
HETATM    6  N2  UNL     1      25.519  -0.655  53.571  1.00  0.00    -0.224 NA
HETATM    7  C6  UNL     1      24.558  -0.062  52.846  1.00  0.00     0.138 A 
HETATM    8  C7  UNL     1      24.846   1.030  52.072  1.00  0.00     0.051 A 
HETATM    9  C8  UNL     1      24.041   1.821  51.272  1.00  0.00     0.016 A 
HETATM   10  C9  UNL     1      24.514   2.916  50.603  1.00  0.00     0.112 A 
HETATM   11  C11 UNL     1      22.663   1.527  50.912  1.00  0.00     0.015 C 
HETATM   12  C12 UNL     1      21.531   1.386  50.328  1.00  0.00     0.001 C 
HETATM   13  C13 UNL     1      20.159   0.983  50.260  1.00  0.00    -0.004 C 
HETATM   14  C14 UNL     1      19.578   0.370  51.332  1.00  0.00    -0.021 C 
HETATM   15  C15 UNL     1      19.712  -0.144  52.709  1.00  0.00     0.021 C 
HETATM   16  C16 UNL     1      20.718  -0.200  53.616  1.00  0.00     0.005 C 
HETATM   17  C17 UNL     1      21.541  -0.428  54.799  1.00  0.00     0.015 A 
HETATM   18  C18 UNL     1      21.910  -1.921  54.957  1.00  0.00     0.032 A 
HETATM   19  C19 UNL     1      22.935  -0.900  54.583  1.00  0.00     0.088 A 
HETATM   20  N3  UNL     1      23.372  -0.785  53.172  1.00  0.00    -0.369 N 
HETATM   21  H19 UNL     1      23.201  -1.015  52.183  1.00  0.00     0.161 HD
ENDROOT
BRANCH   1  22
HETATM   22  O1  UNL     1      26.158   4.422  49.943  1.00  0.00    -0.353 OA
HETATM   23  C1  UNL     1      27.168   4.369  48.957  1.00  0.00     0.210 C 
ENDBRANCH   1  22
BRANCH  10  24
HETATM   24  O2  UNL     1      23.475   3.507  49.905  1.00  0.00    -0.352 OA
HETATM   25  C10 UNL     1      23.030   4.827  50.191  1.00  0.00     0.210 C 
ENDBRANCH  10  24
TORSDOF 2
ENDMDL
MODEL 4
REMARK VINA RESULT:      -8.7      2.904      6.669
REMARK  2 active torsions:
REMARK  status: ('A' for Active; 'I' for Inactive)
REMARK    1  A    between atoms: O1_2  and  C2_3 
REMARK    2  A    between atoms: C9_12  and  O2_13 
ROOT
HETATM    1  C2  UNL     1      19.769   0.078  52.404  1.00  0.00     0.104 A 
HETATM    2  C3  UNL     1      20.126  -0.724  53.445  1.00  0.00     0.072 A 
HETATM    3  C4  UNL     1      21.427  -0.732  53.901  1.00  0.00     0.075 A 
HETATM    4  N1  UNL     1      21.587  -1.603  54.907  1.00  0.00    -0.241 NA
HETATM    5  C5  UNL     1      22.780  -1.798  55.485  1.00  0.00     0.236 A 
HETATM    6  N2  UNL     1      23.784  -1.062  54.980  1.00  0.00    -0.224 NA
HETATM    7  C6  UNL     1      23.650  -0.185  53.973  1.00  0.00     0.138 A 
HETATM    8  C7  UNL     1      22.430   0.019  53.387  1.00  0.00     0.051 A 
HETATM    9  C8  UNL     1      22.045   0.830  52.335  1.00  0.00     0.016 A 
HETATM   10  C9  UNL     1      20.765   0.859  51.856  1.00  0.00     0.112 A 
HETATM   11  C11 UNL     1      22.874   1.848  51.710  1.00  0.00     0.015 C 
HETATM   12  C12 UNL     1      23.344   2.897  51.143  1.00  0.00     0.001 C 
HETATM   13  C13 UNL     1      24.389   3.699  50.582  1.00  0.00    -0.004 C 
HETATM   14  C14 UNL     1      25.674   3.241  50.590  1.00  0.00    -0.021 C 
HETATM   15  C15 UNL     1      26.623   2.171  50.953  1.00  0.00     0.021 C 
HETATM   16  C16 UNL     1      26.518   0.964  51.562  1.00  0.00     0.005 C 
HETATM   17  C17 UNL     1      26.772  -0.341  52.164  1.00  0.00     0.015 A 
HETATM   18  C18 UNL     1      27.488  -0.210  53.527  1.00  0.00     0.032 A 
HETATM   19  C19 UNL     1      26.065  -0.660  53.433  1.00  0.00     0.088 A 
HETATM   20  N3  UNL     1      24.975   0.294  53.742  1.00  0.00    -0.369 N 
HETATM   21  H19 UNL     1      24.683   1.270  53.891  1.00  0.00     0.161 HD
ENDROOT
BRANCH   1  22
HETATM   22  O1  UNL     1      18.528   0.226  51.808  1.00  0.00    -0.353 OA
HETATM   23  C1  UNL     1      17.449  -0.602  52.187  1.00  0.00     0.210 C 
ENDBRANCH   1  22
BRANCH  10  24
HETATM   24  O2  UNL     1      20.695   1.749  50.798  1.00  0.00    -0.352 OA
HETATM   25  C10 UNL     1      20.383   1.327  49.476  1.00  0.00     0.210 C 
ENDBRANCH  10  24
TORSDOF 2
ENDMDL
MODEL 5
REMARK VINA RESULT:      -8.4      2.673      5.485
REMARK  2 active torsions:
REMARK  status: ('A' for Active; 'I' for Inactive)
REMARK    1  A    between atoms: O1_2  and  C2_3 
REMARK    2  A    between atoms: C9_12  and  O2_13 
ROOT
HETATM    1  C2  UNL     1      24.411   0.720  52.714  1.00  0.00     0.104 A 
HETATM    2  C3  UNL     1      23.103   1.059  52.875  1.00  0.00     0.072 A 
HETATM    3  C4  UNL     1      22.603   2.200  52.283  1.00  0.00     0.075 A 
HETATM    4  N1  UNL     1      21.309   2.378  52.579  1.00  0.00    -0.241 NA
HETATM    5  C5  UNL     1      20.625   3.441  52.134  1.00  0.00     0.236 A 
HETATM    6  N2  UNL     1      21.333   4.297  51.379  1.00  0.00    -0.224 NA
HETATM    7  C6  UNL     1      22.629   4.142  51.069  1.00  0.00     0.138 A 
HETATM    8  C7  UNL     1      23.326   3.053  51.519  1.00  0.00     0.051 A 
HETATM    9  C8  UNL     1      24.651   2.687  51.364  1.00  0.00     0.016 A 
HETATM   10  C9  UNL     1      25.179   1.565  51.942  1.00  0.00     0.112 A 
HETATM   11  C11 UNL     1      25.603   3.328  50.471  1.00  0.00     0.015 C 
HETATM   12  C12 UNL     1      26.540   3.610  49.643  1.00  0.00     0.001 C 
HETATM   13  C13 UNL     1      27.325   4.499  48.841  1.00  0.00    -0.004 C 
HETATM   14  C14 UNL     1      27.030   5.831  48.819  1.00  0.00    -0.021 C 
HETATM   15  C15 UNL     1      26.170   6.935  49.288  1.00  0.00     0.021 C 
HETATM   16  C16 UNL     1      25.101   7.029  50.117  1.00  0.00     0.005 C 
HETATM   17  C17 UNL     1      23.972   7.491  50.918  1.00  0.00     0.015 A 
HETATM   18  C18 UNL     1      22.760   7.862  50.033  1.00  0.00     0.032 A 
HETATM   19  C19 UNL     1      22.742   6.655  50.915  1.00  0.00     0.088 A 
HETATM   20  N3  UNL     1      22.958   5.314  50.323  1.00  0.00    -0.369 N 
HETATM   21  H19 UNL     1      23.273   4.754  49.519  1.00  0.00     0.161 HD
ENDROOT
BRANCH   1  22
HETATM   22  O1  UNL     1      25.094  -0.373  53.224  1.00  0.00    -0.353 OA
HETATM   23  C1  UNL     1      25.227  -0.545  54.619  1.00  0.00     0.210 C 
ENDBRANCH   1  22
BRANCH  10  24
HETATM   24  O2  UNL     1      26.522   1.477  51.619  1.00  0.00    -0.352 OA
HETATM   25  C10 UNL     1      27.543   1.608  52.600  1.00  0.00     0.210 C 
ENDBRANCH  10  24
TORSDOF 2
ENDMDL
MODEL 6
REMARK VINA RESULT:      -7.9      1.991      2.627
REMARK  2 active torsions:
REMARK  status: ('A' for Active; 'I' for Inactive)
REMARK    1  A    between atoms: O1_2  and  C2_3 
REMARK    2  A    between atoms: C9_12  and  O2_13 
ROOT
HETATM    1  C2  UNL     1      25.900   1.971  52.237  1.00  0.00     0.104 A 
HETATM    2  C3  UNL     1      25.433   3.145  51.728  1.00  0.00     0.072 A 
HETATM    3  C4  UNL     1      24.079   3.403  51.709  1.00  0.00     0.075 A 
HETATM    4  N1  UNL     1      23.817   4.591  51.147  1.00  0.00    -0.241 NA
HETATM    5  C5  UNL     1      22.561   5.035  50.995  1.00  0.00     0.236 A 
HETATM    6  N2  UNL     1      21.606   4.205  51.445  1.00  0.00    -0.224 NA
HETATM    7  C6  UNL     1      21.843   3.011  52.011  1.00  0.00     0.138 A 
HETATM    8  C7  UNL     1      23.125   2.560  52.170  1.00  0.00     0.051 A 
HETATM    9  C8  UNL     1      23.621   1.377  52.687  1.00  0.00     0.016 A 
HETATM   10  C9  UNL     1      24.957   1.087  52.718  1.00  0.00     0.112 A 
HETATM   11  C11 UNL     1      22.839   0.373  53.391  1.00  0.00     0.015 C 
HETATM   12  C12 UNL     1      22.399  -0.537  54.180  1.00  0.00     0.001 C 
HETATM   13  C13 UNL     1      21.409  -1.445  54.672  1.00  0.00    -0.004 C 
HETATM   14  C14 UNL     1      20.171  -1.475  54.099  1.00  0.00    -0.021 C 
HETATM   15  C15 UNL     1      19.246  -0.942  53.080  1.00  0.00     0.021 C 
HETATM   16  C16 UNL     1      19.331   0.006  52.114  1.00  0.00     0.005 C 
HETATM   17  C17 UNL     1      19.067   0.927  51.013  1.00  0.00     0.015 A 
HETATM   18  C18 UNL     1      18.136   2.081  51.446  1.00  0.00     0.032 A 
HETATM   19  C19 UNL     1      19.581   2.316  51.144  1.00  0.00     0.088 A 
HETATM   20  N3  UNL     1      20.545   2.472  52.258  1.00  0.00    -0.369 N 
HETATM   21  H19 UNL     1      20.745   2.364  53.262  1.00  0.00     0.161 HD
ENDROOT
BRANCH   1  22
HETATM   22  O1  UNL     1      27.209   1.530  52.343  1.00  0.00    -0.353 OA
HETATM   23  C1  UNL     1      28.104   2.155  53.238  1.00  0.00     0.210 C 
ENDBRANCH   1  22
BRANCH  10  24
HETATM   24  O2  UNL     1      25.138  -0.167  53.275  1.00  0.00    -0.352 OA
HETATM   25  C10 UNL     1      26.140  -1.062  52.807  1.00  0.00     0.210 C 
ENDBRANCH  10  24
TORSDOF 2
ENDMDL
MODEL 7
REMARK VINA RESULT:      -7.7      2.861      5.117
REMARK  2 active torsions:
REMARK  status: ('A' for Active; 'I' for Inactive)
REMARK    1  A    between atoms: O1_2  and  C2_3 
REMARK    2  A    between atoms: C9_12  and  O2_13 
ROOT
HETATM    1  C2  UNL     1      23.895   4.170  50.016  1.00  0.00     0.104 A 
HETATM    2  C3  UNL     1      24.971   3.615  50.640  1.00  0.00     0.072 A 
HETATM    3  C4  UNL     1      24.830   2.445  51.355  1.00  0.00     0.075 A 
HETATM    4  N1  UNL     1      25.989   2.074  51.918  1.00  0.00    -0.241 NA
HETATM    5  C5  UNL     1      26.079   0.979  52.685  1.00  0.00     0.236 A 
HETATM    6  N2  UNL     1      24.932   0.297  52.841  1.00  0.00    -0.224 NA
HETATM    7  C6  UNL     1      23.760   0.648  52.289  1.00  0.00     0.138 A 
HETATM    8  C7  UNL     1      23.669   1.763  51.501  1.00  0.00     0.051 A 
HETATM    9  C8  UNL     1      22.592   2.341  50.855  1.00  0.00     0.016 A 
HETATM   10  C9  UNL     1      22.695   3.503  50.141  1.00  0.00     0.112 A 
HETATM   11  C11 UNL     1      21.275   1.740  50.711  1.00  0.00     0.015 C 
HETATM   12  C12 UNL     1      20.125   1.339  50.311  1.00  0.00     0.001 C 
HETATM   13  C13 UNL     1      18.886   0.638  50.453  1.00  0.00    -0.004 C 
HETATM   14  C14 UNL     1      18.634  -0.072  51.591  1.00  0.00    -0.021 C 
HETATM   15  C15 UNL     1      19.096  -0.521  52.919  1.00  0.00     0.021 C 
HETATM   16  C16 UNL     1      20.221  -0.335  53.654  1.00  0.00     0.005 C 
HETATM   17  C17 UNL     1      21.251  -0.353  54.687  1.00  0.00     0.015 A 
HETATM   18  C18 UNL     1      21.964  -1.723  54.755  1.00  0.00     0.032 A 
HETATM   19  C19 UNL     1      22.663  -0.504  54.244  1.00  0.00     0.088 A 
HETATM   20  N3  UNL     1      22.833  -0.317  52.784  1.00  0.00    -0.369 N 
HETATM   21  H19 UNL     1      22.563  -0.596  51.830  1.00  0.00     0.161 HD
ENDROOT
BRANCH   1  22
HETATM   22  O1  UNL     1      23.834   5.329  49.259  1.00  0.00    -0.353 OA
HETATM   23  C1  UNL     1      25.014   6.025  48.920  1.00  0.00     0.210 C 
ENDBRANCH   1  22
BRANCH  10  24
HETATM   24  O2  UNL     1      21.453   3.835  49.628  1.00  0.00    -0.352 OA
HETATM   25  C10 UNL     1      20.721   4.961  50.096  1.00  0.00     0.210 C 
ENDBRANCH  10  24
TORSDOF 2
ENDMDL
MODEL 8
REMARK VINA RESULT:      -7.7      2.918      5.813
REMARK  2 active torsions:
REMARK  status: ('A' for Active; 'I' for Inactive)
REMARK    1  A    between atoms: O1_2  and  C2_3 
REMARK    2  A    between atoms: C9_12  and  O2_13 
ROOT
HETATM    1  C2  UNL     1      23.510   4.679  49.831  1.00  0.00     0.104 A 
HETATM    2  C3  UNL     1      22.158   4.575  49.954  1.00  0.00     0.072 A 
HETATM    3  C4  UNL     1      21.610   3.724  50.890  1.00  0.00     0.075 A 
HETATM    4  N1  UNL     1      20.271   3.739  50.839  1.00  0.00    -0.241 NA
HETATM    5  C5  UNL     1      19.528   2.963  51.640  1.00  0.00     0.236 A 
HETATM    6  N2  UNL     1      20.225   2.184  52.484  1.00  0.00    -0.224 NA
HETATM    7  C6  UNL     1      21.565   2.151  52.554  1.00  0.00     0.138 A 
HETATM    8  C7  UNL     1      22.323   2.947  51.739  1.00  0.00     0.051 A 
HETATM    9  C8  UNL     1      23.694   3.072  51.601  1.00  0.00     0.016 A 
HETATM   10  C9  UNL     1      24.270   3.903  50.680  1.00  0.00     0.112 A 
HETATM   11  C11 UNL     1      24.686   2.482  52.485  1.00  0.00     0.015 C 
HETATM   12  C12 UNL     1      25.707   2.221  53.215  1.00  0.00     0.001 C 
HETATM   13  C13 UNL     1      26.483   1.407  54.100  1.00  0.00    -0.004 C 
HETATM   14  C14 UNL     1      25.996   0.201  54.513  1.00  0.00    -0.021 C 
HETATM   15  C15 UNL     1      24.905  -0.792  54.477  1.00  0.00     0.021 C 
HETATM   16  C16 UNL     1      23.697  -0.864  53.864  1.00  0.00     0.005 C 
HETATM   17  C17 UNL     1      22.381  -1.269  53.383  1.00  0.00     0.015 A 
HETATM   18  C18 UNL     1      21.314  -1.179  54.498  1.00  0.00     0.032 A 
HETATM   19  C19 UNL     1      21.317  -0.230  53.343  1.00  0.00     0.088 A 
HETATM   20  N3  UNL     1      21.843   1.142  53.525  1.00  0.00    -0.369 N 
HETATM   21  H19 UNL     1      22.386   1.801  54.101  1.00  0.00     0.161 HD
ENDROOT
BRANCH   1  22
HETATM   22  O1  UNL     1      24.244   5.468  48.961  1.00  0.00    -0.353 OA
HETATM   23  C1  UNL     1      24.536   6.811  49.285  1.00  0.00     0.210 C 
ENDBRANCH   1  22
BRANCH  10  24
HETATM   24  O2  UNL     1      25.647   3.799  50.772  1.00  0.00    -0.352 OA
HETATM   25  C10 UNL     1      26.442   3.332  49.689  1.00  0.00     0.210 C 
ENDBRANCH  10  24
TORSDOF 2
ENDMDL
MODEL 9
REMARK VINA RESULT:      -7.2      3.410      5.588
REMARK  2 active torsions:
REMARK  status: ('A' for Active; 'I' for Inactive)
REMARK    1  A    between atoms: O1_2  and  C2_3 
REMARK    2  A    between atoms: C9_12  and  O2_13 
ROOT
HETATM    1  C2  UNL     1      22.550   5.284  51.511  1.00  0.00     0.104 A 
HETATM    2  C3  UNL     1      23.685   4.752  52.043  1.00  0.00     0.072 A 
HETATM    3  C4  UNL     1      23.730   3.419  52.390  1.00  0.00     0.075 A 
HETATM    4  N1  UNL     1      24.916   3.091  52.920  1.00  0.00    -0.241 NA
HETATM    5  C5  UNL     1      25.172   1.851  53.357  1.00  0.00     0.236 A 
HETATM    6  N2  UNL     1      24.160   0.979  53.222  1.00  0.00    -0.224 NA
HETATM    7  C6  UNL     1      22.963   1.282  52.695  1.00  0.00     0.138 A 
HETATM    8  C7  UNL     1      22.703   2.548  52.244  1.00  0.00     0.051 A 
HETATM    9  C8  UNL     1      21.562   3.107  51.698  1.00  0.00     0.016 A 
HETATM   10  C9  UNL     1      21.483   4.427  51.347  1.00  0.00     0.112 A 
HETATM   11  C11 UNL     1      20.378   2.371  51.284  1.00  0.00     0.015 C 
HETATM   12  C12 UNL     1      19.331   1.924  50.696  1.00  0.00     0.001 C 
HETATM   13  C13 UNL     1      18.231   1.023  50.534  1.00  0.00    -0.004 C 
HETATM   14  C14 UNL     1      18.071  -0.016  51.405  1.00  0.00    -0.021 C 
HETATM   15  C15 UNL     1      18.561  -0.748  52.588  1.00  0.00     0.021 C 
HETATM   16  C16 UNL     1      19.610  -0.605  53.436  1.00  0.00     0.005 C 
HETATM   17  C17 UNL     1      20.592  -0.756  54.504  1.00  0.00     0.015 A 
HETATM   18  C18 UNL     1      21.534  -1.955  54.247  1.00  0.00     0.032 A 
HETATM   19  C19 UNL     1      22.023  -0.545  54.154  1.00  0.00     0.088 A 
HETATM   20  N3  UNL     1      22.205   0.080  52.823  1.00  0.00    -0.369 N 
HETATM   21  H19 UNL     1      22.021   0.049  51.811  1.00  0.00     0.161 HD
ENDROOT
BRANCH   1  22
HETATM   22  O1  UNL     1      22.310   6.587  51.105  1.00  0.00    -0.353 OA
HETATM   23  C1  UNL     1      23.312   7.325  50.439  1.00  0.00     0.210 C 
ENDBRANCH   1  22
BRANCH  10  24
HETATM   24  O2  UNL     1      20.219   4.689  50.846  1.00  0.00    -0.352 OA
HETATM   25  C10 UNL     1      20.023   5.335  49.594  1.00  0.00     0.210 C 
ENDBRANCH  10  24
TORSDOF 2
ENDMDL
