MODEL 1
REMARK VINA RESULT:      -7.3      0.000      0.000
REMARK  7 active torsions:
REMARK  status: ('A' for Active; 'I' for Inactive)
REMARK    1  A    between atoms: C2_2  and  N1_3 
REMARK    2  A    between atoms: C2_2  and  C13_18 
REMARK    3  A    between atoms: N1_3  and  C3_4 
REMARK    4  A    between atoms: C6_10  and  C7_11 
REMARK    5  A    between atoms: C7_11  and  C8_12 
REMARK    6  A    between atoms: C8_12  and  C9_13 
REMARK    7  A    between atoms: C9_13  and  C10_14 
ROOT
HETATM    1  C3  UNL     1      27.529   1.040  52.627  1.00  0.00     0.105 C 
HETATM    2  N2  UNL     1      28.475   1.182  53.523  1.00  0.00    -0.229 NA
HETATM    3  C4  UNL     1      29.085  -0.002  54.012  1.00  0.00     0.235 C 
HETATM    4  N3  UNL     1      28.108  -0.211  54.872  1.00  0.00    -0.241 NA
HETATM    5  C5  UNL     1      27.014   0.732  54.916  1.00  0.00     0.335 C 
HETATM    6  N4  UNL     1      25.769   0.879  54.513  1.00  0.00    -0.271 NA
HETATM    7  C6  UNL     1      25.190  -0.189  53.773  1.00  0.00    -0.019 C 
HETATM    8  C11 UNL     1      25.732  -0.669  52.667  1.00  0.00    -0.001 C 
HETATM    9  C12 UNL     1      26.966  -0.202  52.037  1.00  0.00     0.106 C 
ENDROOT
BRANCH   1  10
HETATM   10  N1  UNL     1      26.992   2.316  52.216  1.00  0.00    -0.370 N 
HETATM   11  H5  UNL     1      27.299   3.170  52.767  1.00  0.00     0.161 HD
BRANCH  10  12
HETATM   12  C2  UNL     1      26.074   2.442  51.104  1.00  0.00     0.112 C 
HETATM   13  C1  UNL     1      26.594   3.528  50.188  1.00  0.00     0.037 C 
BRANCH  12  14
HETATM   14  C13 UNL     1      24.676   2.663  51.473  1.00  0.00    -0.036 A 
HETATM   15  C14 UNL     1      24.195   3.480  52.468  1.00  0.00     0.012 A 
HETATM   16  C15 UNL     1      22.841   3.615  52.731  1.00  0.00     0.043 A 
HETATM   17  C16 UNL     1      21.925   2.910  51.972  1.00  0.00     0.116 A 
HETATM   18  F2  UNL     1      20.595   3.013  52.193  1.00  0.00    -0.206 F 
HETATM   19  C17 UNL     1      22.336   2.078  50.964  1.00  0.00     0.043 A 
HETATM   20  C18 UNL     1      23.695   1.981  50.746  1.00  0.00     0.012 A 
ENDBRANCH  12  14
ENDBRANCH  10  12
ENDBRANCH   1  10
BRANCH   7  21
HETATM   21  C7  UNL     1      23.932  -0.774  54.277  1.00  0.00     0.068 C 
BRANCH  21  22
HETATM   22  C8  UNL     1      22.864  -0.793  53.256  1.00  0.00     0.079 C 
BRANCH  22  23
HETATM   23  C9  UNL     1      21.648  -0.422  53.630  1.00  0.00    -0.121 C 
BRANCH  23  24
HETATM   24  C10 UNL     1      20.551   0.167  54.073  1.00  0.00     0.239 C 
HETATM   25  F1  UNL     1      20.617   0.679  55.317  1.00  0.00    -0.211 F 
ENDBRANCH  23  24
ENDBRANCH  22  23
ENDBRANCH  21  22
ENDBRANCH   7  21
TORSDOF 7
ENDMDL
MODEL 2
REMARK VINA RESULT:      -7.1      3.062      5.184
REMARK  7 active torsions:
REMARK  status: ('A' for Active; 'I' for Inactive)
REMARK    1  A    between atoms: C2_2  and  N1_3 
REMARK    2  A    between atoms: C2_2  and  C13_18 
REMARK    3  A    between atoms: N1_3  and  C3_4 
REMARK    4  A    between atoms: C6_10  and  C7_11 
REMARK    5  A    between atoms: C7_11  and  C8_12 
REMARK    6  A    between atoms: C8_12  and  C9_13 
REMARK    7  A    between atoms: C9_13  and  C10_14 
ROOT
HETATM    1  C3  UNL     1      24.176   1.303  52.477  1.00  0.00     0.105 C 
HETATM    2  N2  UNL     1      23.847   0.048  52.661  1.00  0.00    -0.229 NA
HETATM    3  C4  UNL     1      23.870  -0.437  53.994  1.00  0.00     0.235 C 
HETATM    4  N3  UNL     1      25.172  -0.639  53.952  1.00  0.00    -0.241 NA
HETATM    5  C5  UNL     1      25.881  -0.316  52.735  1.00  0.00     0.335 C 
HETATM    6  N4  UNL     1      26.653   0.614  52.213  1.00  0.00    -0.271 NA
HETATM    7  C6  UNL     1      26.970   1.736  53.029  1.00  0.00    -0.019 C 
HETATM    8  C11 UNL     1      26.044   2.496  53.589  1.00  0.00    -0.001 C 
HETATM    9  C12 UNL     1      24.597   2.324  53.470  1.00  0.00     0.106 C 
ENDROOT
BRANCH   1  10
HETATM   10  N1  UNL     1      24.115   1.669  51.081  1.00  0.00    -0.370 N 
HETATM   11  H5  UNL     1      24.438   0.944  50.377  1.00  0.00     0.161 HD
BRANCH  10  12
HETATM   12  C2  UNL     1      23.637   2.964  50.645  1.00  0.00     0.112 C 
HETATM   13  C1  UNL     1      22.426   2.745  49.766  1.00  0.00     0.037 C 
BRANCH  12  14
HETATM   14  C13 UNL     1      24.636   3.810  49.994  1.00  0.00    -0.036 A 
HETATM   15  C14 UNL     1      24.455   5.070  49.479  1.00  0.00     0.012 A 
HETATM   16  C15 UNL     1      25.481   5.785  48.880  1.00  0.00     0.043 A 
HETATM   17  C16 UNL     1      26.742   5.224  48.791  1.00  0.00     0.116 A 
HETATM   18  F2  UNL     1      27.772   5.885  48.216  1.00  0.00    -0.206 F 
HETATM   19  C17 UNL     1      26.992   3.971  49.284  1.00  0.00     0.043 A 
HETATM   20  C18 UNL     1      25.935   3.304  49.869  1.00  0.00     0.012 A 
ENDBRANCH  12  14
ENDBRANCH  10  12
ENDBRANCH   1  10
BRANCH   7  21
HETATM   21  C7  UNL     1      28.395   2.049  53.248  1.00  0.00     0.068 C 
BRANCH  21  22
HETATM   22  C8  UNL     1      29.004   1.218  54.309  1.00  0.00     0.079 C 
BRANCH  22  23
HETATM   23  C9  UNL     1      29.536   0.058  53.952  1.00  0.00    -0.121 C 
BRANCH  23  24
HETATM   24  C10 UNL     1      29.824  -1.181  53.594  1.00  0.00     0.239 C 
HETATM   25  F1  UNL     1      28.818  -1.883  53.038  1.00  0.00    -0.211 F 
ENDBRANCH  23  24
ENDBRANCH  22  23
ENDBRANCH  21  22
ENDBRANCH   7  21
TORSDOF 7
ENDMDL
MODEL 3
REMARK VINA RESULT:      -6.9      2.297      4.956
REMARK  7 active torsions:
REMARK  status: ('A' for Active; 'I' for Inactive)
REMARK    1  A    between atoms: C2_2  and  N1_3 
REMARK    2  A    between atoms: C2_2  and  C13_18 
REMARK    3  A    between atoms: N1_3  and  C3_4 
REMARK    4  A    between atoms: C6_10  and  C7_11 
REMARK    5  A    between atoms: C7_11  and  C8_12 
REMARK    6  A    between atoms: C8_12  and  C9_13 
REMARK    7  A    between atoms: C9_13  and  C10_14 
ROOT
HETATM    1  C3  UNL     1      26.159   0.160  54.354  1.00  0.00     0.105 C 
HETATM    2  N2  UNL     1      27.214  -0.551  54.667  1.00  0.00    -0.229 NA
HETATM    3  C4  UNL     1      28.411   0.158  54.945  1.00  0.00     0.235 C 
HETATM    4  N3  UNL     1      28.699   0.277  53.664  1.00  0.00    -0.241 NA
HETATM    5  C5  UNL     1      27.787  -0.290  52.697  1.00  0.00     0.335 C 
HETATM    6  N4  UNL     1      26.832   0.058  51.860  1.00  0.00    -0.271 NA
HETATM    7  C6  UNL     1      26.490   1.438  51.794  1.00  0.00    -0.019 C 
HETATM    8  C11 UNL     1      26.127   2.136  52.856  1.00  0.00    -0.001 C 
HETATM    9  C12 UNL     1      26.017   1.633  54.225  1.00  0.00     0.106 C 
ENDROOT
BRANCH   1  10
HETATM   10  N1  UNL     1      25.012  -0.679  54.093  1.00  0.00    -0.370 N 
HETATM   11  H5  UNL     1      25.177  -1.561  53.526  1.00  0.00     0.161 HD
BRANCH  10  12
HETATM   12  C2  UNL     1      23.689  -0.345  54.576  1.00  0.00     0.112 C 
HETATM   13  C1  UNL     1      23.236  -1.450  55.503  1.00  0.00     0.037 C 
BRANCH  12  14
HETATM   14  C13 UNL     1      22.699  -0.067  53.536  1.00  0.00    -0.036 A 
HETATM   15  C14 UNL     1      22.923   0.479  52.295  1.00  0.00     0.012 A 
HETATM   16  C15 UNL     1      21.903   0.698  51.382  1.00  0.00     0.043 A 
HETATM   17  C16 UNL     1      20.605   0.360  51.715  1.00  0.00     0.116 A 
HETATM   18  F2  UNL     1      19.579   0.555  50.856  1.00  0.00    -0.206 F 
HETATM   19  C17 UNL     1      20.310  -0.188  52.936  1.00  0.00     0.043 A 
HETATM   20  C18 UNL     1      21.364  -0.384  53.806  1.00  0.00     0.012 A 
ENDBRANCH  12  14
ENDBRANCH  10  12
ENDBRANCH   1  10
BRANCH   7  21
HETATM   21  C7  UNL     1      26.548   2.100  50.476  1.00  0.00     0.068 C 
BRANCH  21  22
HETATM   22  C8  UNL     1      25.864   3.410  50.467  1.00  0.00     0.079 C 
BRANCH  22  23
HETATM   23  C9  UNL     1      26.347   4.351  49.669  1.00  0.00    -0.121 C 
BRANCH  23  24
HETATM   24  C10 UNL     1      27.016   5.119  48.827  1.00  0.00     0.239 C 
HETATM   25  F1  UNL     1      28.127   4.579  48.290  1.00  0.00    -0.211 F 
ENDBRANCH  23  24
ENDBRANCH  22  23
ENDBRANCH  21  22
ENDBRANCH   7  21
TORSDOF 7
ENDMDL
MODEL 4
REMARK VINA RESULT:      -6.9      3.628      6.973
REMARK  7 active torsions:
REMARK  status: ('A' for Active; 'I' for Inactive)
REMARK    1  A    between atoms: C2_2  and  N1_3 
REMARK    2  A    between atoms: C2_2  and  C13_18 
REMARK    3  A    between atoms: N1_3  and  C3_4 
REMARK    4  A    between atoms: C6_10  and  C7_11 
REMARK    5  A    between atoms: C7_11  and  C8_12 
REMARK    6  A    between atoms: C8_12  and  C9_13 
REMARK    7  A    between atoms: C9_13  and  C10_14 
ROOT
HETATM    1  C3  UNL     1      22.467   2.336  51.857  1.00  0.00     0.105 C 
HETATM    2  N2  UNL     1      21.448   3.021  52.316  1.00  0.00    -0.229 NA
HETATM    3  C4  UNL     1      20.602   3.640  51.360  1.00  0.00     0.235 C 
HETATM    4  N3  UNL     1      21.416   4.669  51.232  1.00  0.00    -0.241 NA
HETATM    5  C5  UNL     1      22.630   4.691  52.015  1.00  0.00     0.335 C 
HETATM    6  N4  UNL     1      23.924   4.470  51.909  1.00  0.00    -0.271 NA
HETATM    7  C6  UNL     1      24.417   4.068  50.636  1.00  0.00    -0.019 C 
HETATM    8  C11 UNL     1      23.952   3.012  49.990  1.00  0.00    -0.001 C 
HETATM    9  C12 UNL     1      22.898   2.111  50.453  1.00  0.00     0.106 C 
ENDROOT
BRANCH   1  10
HETATM   10  N1  UNL     1      23.246   1.761  52.928  1.00  0.00    -0.370 N 
HETATM   11  H5  UNL     1      23.322   2.322  53.826  1.00  0.00     0.161 HD
BRANCH  10  12
HETATM   12  C2  UNL     1      23.903   0.477  52.799  1.00  0.00     0.112 C 
HETATM   13  C1  UNL     1      23.281  -0.470  53.800  1.00  0.00     0.037 C 
BRANCH  12  14
HETATM   14  C13 UNL     1      25.360   0.509  52.912  1.00  0.00    -0.036 A 
HETATM   15  C14 UNL     1      26.223  -0.560  52.887  1.00  0.00     0.012 A 
HETATM   16  C15 UNL     1      27.597  -0.411  53.003  1.00  0.00     0.043 A 
HETATM   17  C16 UNL     1      28.137   0.854  53.148  1.00  0.00     0.116 A 
HETATM   18  F2  UNL     1      29.470   1.045  53.263  1.00  0.00    -0.206 F 
HETATM   19  C17 UNL     1      27.334   1.963  53.181  1.00  0.00     0.043 A 
HETATM   20  C18 UNL     1      25.974   1.757  53.062  1.00  0.00     0.012 A 
ENDBRANCH  12  14
ENDBRANCH  10  12
ENDBRANCH   1  10
BRANCH   7  21
HETATM   21  C7  UNL     1      25.492   4.876  50.027  1.00  0.00     0.068 C 
BRANCH  21  22
HETATM   22  C8  UNL     1      26.525   4.046  49.372  1.00  0.00     0.079 C 
BRANCH  22  23
HETATM   23  C9  UNL     1      27.519   4.672  48.759  1.00  0.00    -0.121 C 
BRANCH  23  24
HETATM   24  C10 UNL     1      28.447   5.494  48.299  1.00  0.00     0.239 C 
HETATM   25  F1  UNL     1      29.602   4.921  47.909  1.00  0.00    -0.211 F 
ENDBRANCH  23  24
ENDBRANCH  22  23
ENDBRANCH  21  22
ENDBRANCH   7  21
TORSDOF 7
ENDMDL
MODEL 5
REMARK VINA RESULT:      -6.8      2.920      5.726
REMARK  7 active torsions:
REMARK  status: ('A' for Active; 'I' for Inactive)
REMARK    1  A    between atoms: C2_2  and  N1_3 
REMARK    2  A    between atoms: C2_2  and  C13_18 
REMARK    3  A    between atoms: N1_3  and  C3_4 
REMARK    4  A    between atoms: C6_10  and  C7_11 
REMARK    5  A    between atoms: C7_11  and  C8_12 
REMARK    6  A    between atoms: C8_12  and  C9_13 
REMARK    7  A    between atoms: C9_13  and  C10_14 
ROOT
HETATM    1  C3  UNL     1      22.107   3.684  51.051  1.00  0.00     0.105 C 
HETATM    2  N2  UNL     1      21.880   4.933  51.375  1.00  0.00    -0.229 NA
HETATM    3  C4  UNL     1      22.678   5.920  50.741  1.00  0.00     0.235 C 
HETATM    4  N3  UNL     1      23.671   5.734  51.588  1.00  0.00    -0.241 NA
HETATM    5  C5  UNL     1      23.513   4.745  52.630  1.00  0.00     0.335 C 
HETATM    6  N4  UNL     1      23.865   3.515  52.939  1.00  0.00    -0.271 NA
HETATM    7  C6  UNL     1      24.681   2.814  52.007  1.00  0.00    -0.019 C 
HETATM    8  C11 UNL     1      24.336   2.642  50.742  1.00  0.00    -0.001 C 
HETATM    9  C12 UNL     1      23.107   3.119  50.109  1.00  0.00     0.106 C 
ENDROOT
BRANCH   1  10
HETATM   10  N1  UNL     1      21.233   2.783  51.765  1.00  0.00    -0.370 N 
HETATM   11  H5  UNL     1      20.560   3.215  52.464  1.00  0.00     0.161 HD
BRANCH  10  12
HETATM   12  C2  UNL     1      21.261   1.351  51.552  1.00  0.00     0.112 C 
HETATM   13  C1  UNL     1      19.920   0.935  50.989  1.00  0.00     0.037 C 
BRANCH  12  14
HETATM   14  C13 UNL     1      21.632   0.555  52.720  1.00  0.00    -0.036 A 
HETATM   15  C14 UNL     1      20.882   0.329  53.849  1.00  0.00     0.012 A 
HETATM   16  C15 UNL     1      21.336  -0.450  54.902  1.00  0.00     0.043 A 
HETATM   17  C16 UNL     1      22.589  -1.029  54.832  1.00  0.00     0.116 A 
HETATM   18  F2  UNL     1      23.072  -1.796  55.835  1.00  0.00    -0.206 F 
HETATM   19  C17 UNL     1      23.390  -0.845  53.736  1.00  0.00     0.043 A 
HETATM   20  C18 UNL     1      22.888  -0.061  52.717  1.00  0.00     0.012 A 
ENDBRANCH  12  14
ENDBRANCH  10  12
ENDBRANCH   1  10
BRANCH   7  21
HETATM   21  C7  UNL     1      25.962   2.264  52.491  1.00  0.00     0.068 C 
BRANCH  21  22
HETATM   22  C8  UNL     1      26.521   1.240  51.582  1.00  0.00     0.079 C 
BRANCH  22  23
HETATM   23  C9  UNL     1      26.648   0.007  52.050  1.00  0.00    -0.121 C 
BRANCH  23  24
HETATM   24  C10 UNL     1      26.935  -1.115  52.688  1.00  0.00     0.239 C 
HETATM   25  F1  UNL     1      26.587  -2.256  52.061  1.00  0.00    -0.211 F 
ENDBRANCH  23  24
ENDBRANCH  22  23
ENDBRANCH  21  22
ENDBRANCH   7  21
TORSDOF 7
ENDMDL
MODEL 6
REMARK VINA RESULT:      -6.8      3.423      6.702
REMARK  7 active torsions:
REMARK  status: ('A' for Active; 'I' for Inactive)
REMARK    1  A    between atoms: C2_2  and  N1_3 
REMARK    2  A    between atoms: C2_2  and  C13_18 
REMARK    3  A    between atoms: N1_3  and  C3_4 
REMARK    4  A    between atoms: C6_10  and  C7_11 
REMARK    5  A    between atoms: C7_11  and  C8_12 
REMARK    6  A    between atoms: C8_12  and  C9_13 
REMARK    7  A    between atoms: C9_13  and  C10_14 
ROOT
HETATM    1  C3  UNL     1      21.425   1.523  52.290  1.00  0.00     0.105 C 
HETATM    2  N2  UNL     1      20.487   2.329  52.725  1.00  0.00    -0.229 NA
HETATM    3  C4  UNL     1      19.524   2.770  51.782  1.00  0.00     0.235 C 
HETATM    4  N3  UNL     1      20.324   3.716  51.331  1.00  0.00    -0.241 NA
HETATM    5  C5  UNL     1      21.635   3.851  51.923  1.00  0.00     0.335 C 
HETATM    6  N4  UNL     1      22.899   3.561  51.695  1.00  0.00    -0.271 NA
HETATM    7  C6  UNL     1      23.206   2.884  50.481  1.00  0.00    -0.019 C 
HETATM    8  C11 UNL     1      22.644   1.736  50.141  1.00  0.00    -0.001 C 
HETATM    9  C12 UNL     1      21.654   0.995  50.920  1.00  0.00     0.106 C 
ENDROOT
BRANCH   1  10
HETATM   10  N1  UNL     1      22.338   1.152  53.345  1.00  0.00    -0.370 N 
HETATM   11  H5  UNL     1      22.338   1.755  54.218  1.00  0.00     0.161 HD
BRANCH  10  12
HETATM   12  C2  UNL     1      23.223   0.012  53.231  1.00  0.00     0.112 C 
HETATM   13  C1  UNL     1      22.882  -0.958  54.341  1.00  0.00     0.037 C 
BRANCH  12  14
HETATM   14  C13 UNL     1      24.650   0.332  53.206  1.00  0.00    -0.036 A 
HETATM   15  C14 UNL     1      25.231   1.567  53.363  1.00  0.00     0.012 A 
HETATM   16  C15 UNL     1      26.604   1.754  53.322  1.00  0.00     0.043 A 
HETATM   17  C16 UNL     1      27.436   0.669  53.118  1.00  0.00     0.116 A 
HETATM   18  F2  UNL     1      28.780   0.805  53.072  1.00  0.00    -0.206 F 
HETATM   19  C17 UNL     1      26.923  -0.591  52.954  1.00  0.00     0.043 A 
HETATM   20  C18 UNL     1      25.549  -0.720  53.003  1.00  0.00     0.012 A 
ENDBRANCH  12  14
ENDBRANCH  10  12
ENDBRANCH   1  10
BRANCH   7  21
HETATM   21  C7  UNL     1      24.196   3.503  49.578  1.00  0.00     0.068 C 
BRANCH  21  22
HETATM   22  C8  UNL     1      25.578   3.398  50.090  1.00  0.00     0.079 C 
BRANCH  22  23
HETATM   23  C9  UNL     1      26.545   3.941  49.366  1.00  0.00    -0.121 C 
BRANCH  23  24
HETATM   24  C10 UNL     1      27.465   4.692  48.785  1.00  0.00     0.239 C 
HETATM   25  F1  UNL     1      27.019   5.809  48.180  1.00  0.00    -0.211 F 
ENDBRANCH  23  24
ENDBRANCH  22  23
ENDBRANCH  21  22
ENDBRANCH   7  21
TORSDOF 7
ENDMDL
MODEL 7
REMARK VINA RESULT:      -6.6      3.700      5.864
REMARK  7 active torsions:
REMARK  status: ('A' for Active; 'I' for Inactive)
REMARK    1  A    between atoms: C2_2  and  N1_3 
REMARK    2  A    between atoms: C2_2  and  C13_18 
REMARK    3  A    between atoms: N1_3  and  C3_4 
REMARK    4  A    between atoms: C6_10  and  C7_11 
REMARK    5  A    between atoms: C7_11  and  C8_12 
REMARK    6  A    between atoms: C8_12  and  C9_13 
REMARK    7  A    between atoms: C9_13  and  C10_14 
ROOT
HETATM    1  C3  UNL     1      22.347   3.720  51.239  1.00  0.00     0.105 C 
HETATM    2  N2  UNL     1      21.190   3.106  51.182  1.00  0.00    -0.229 NA
HETATM    3  C4  UNL     1      20.511   2.893  52.409  1.00  0.00     0.235 C 
HETATM    4  N3  UNL     1      21.227   1.819  52.677  1.00  0.00    -0.241 NA
HETATM    5  C5  UNL     1      22.236   1.408  51.729  1.00  0.00     0.335 C 
HETATM    6  N4  UNL     1      23.538   1.446  51.535  1.00  0.00    -0.271 NA
HETATM    7  C6  UNL     1      24.330   2.081  52.533  1.00  0.00    -0.019 C 
HETATM    8  C11 UNL     1      24.122   3.326  52.925  1.00  0.00    -0.001 C 
HETATM    9  C12 UNL     1      23.089   4.229  52.421  1.00  0.00     0.106 C 
ENDROOT
BRANCH   1  10
HETATM   10  N1  UNL     1      22.932   3.872  49.928  1.00  0.00    -0.370 N 
HETATM   11  H5  UNL     1      23.024   2.996  49.335  1.00  0.00     0.161 HD
BRANCH  10  12
HETATM   12  C2  UNL     1      23.380   5.155  49.429  1.00  0.00     0.112 C 
HETATM   13  C1  UNL     1      22.539   5.508  48.223  1.00  0.00     0.037 C 
BRANCH  12  14
HETATM   14  C13 UNL     1      24.811   5.245  49.139  1.00  0.00    -0.036 A 
HETATM   15  C14 UNL     1      25.491   6.319  48.618  1.00  0.00     0.012 A 
HETATM   16  C15 UNL     1      26.858   6.293  48.384  1.00  0.00     0.043 A 
HETATM   17  C16 UNL     1      27.580   5.152  48.683  1.00  0.00     0.116 A 
HETATM   18  F2  UNL     1      28.913   5.084  48.472  1.00  0.00    -0.206 F 
HETATM   19  C17 UNL     1      26.965   4.045  49.205  1.00  0.00     0.043 A 
HETATM   20  C18 UNL     1      25.603   4.126  49.416  1.00  0.00     0.012 A 
ENDBRANCH  12  14
ENDBRANCH  10  12
ENDBRANCH   1  10
BRANCH   7  21
HETATM   21  C7  UNL     1      25.425   1.301  53.144  1.00  0.00     0.068 C 
BRANCH  21  22
HETATM   22  C8  UNL     1      26.376   0.776  52.142  1.00  0.00     0.079 C 
BRANCH  22  23
HETATM   23  C9  UNL     1      26.714  -0.503  52.227  1.00  0.00    -0.121 C 
BRANCH  23  24
HETATM   24  C10 UNL     1      27.075  -1.730  52.563  1.00  0.00     0.239 C 
HETATM   25  F1  UNL     1      26.596  -2.719  51.784  1.00  0.00    -0.211 F 
ENDBRANCH  23  24
ENDBRANCH  22  23
ENDBRANCH  21  22
ENDBRANCH   7  21
TORSDOF 7
ENDMDL
MODEL 8
REMARK VINA RESULT:      -6.5      3.091      5.588
REMARK  7 active torsions:
REMARK  status: ('A' for Active; 'I' for Inactive)
REMARK    1  A    between atoms: C2_2  and  N1_3 
REMARK    2  A    between atoms: C2_2  and  C13_18 
REMARK    3  A    between atoms: N1_3  and  C3_4 
REMARK    4  A    between atoms: C6_10  and  C7_11 
REMARK    5  A    between atoms: C7_11  and  C8_12 
REMARK    6  A    between atoms: C8_12  and  C9_13 
REMARK    7  A    between atoms: C9_13  and  C10_14 
ROOT
HETATM    1  C3  UNL     1      23.081   2.082  51.166  1.00  0.00     0.105 C 
HETATM    2  N2  UNL     1      22.798   2.059  49.887  1.00  0.00    -0.229 NA
HETATM    3  C4  UNL     1      21.657   2.788  49.463  1.00  0.00     0.235 C 
HETATM    4  N3  UNL     1      20.842   1.810  49.805  1.00  0.00    -0.241 NA
HETATM    5  C5  UNL     1      21.407   0.609  50.376  1.00  0.00     0.335 C 
HETATM    6  N4  UNL     1      21.583   0.008  51.534  1.00  0.00    -0.271 NA
HETATM    7  C6  UNL     1      21.092   0.668  52.696  1.00  0.00    -0.019 C 
HETATM    8  C11 UNL     1      21.446   1.900  53.022  1.00  0.00    -0.001 C 
HETATM    9  C12 UNL     1      22.366   2.759  52.279  1.00  0.00     0.106 C 
ENDROOT
BRANCH   1  10
HETATM   10  N1  UNL     1      24.259   1.302  51.464  1.00  0.00    -0.370 N 
HETATM   11  H5  UNL     1      24.201   0.256  51.296  1.00  0.00     0.161 HD
BRANCH  10  12
HETATM   12  C2  UNL     1      25.473   1.905  51.972  1.00  0.00     0.112 C 
HETATM   13  C1  UNL     1      26.016   2.834  50.908  1.00  0.00     0.037 C 
BRANCH  12  14
HETATM   14  C13 UNL     1      26.488   0.962  52.440  1.00  0.00    -0.036 A 
HETATM   15  C14 UNL     1      26.432  -0.410  52.404  1.00  0.00     0.012 A 
HETATM   16  C15 UNL     1      27.460  -1.211  52.878  1.00  0.00     0.043 A 
HETATM   17  C16 UNL     1      28.592  -0.623  53.410  1.00  0.00     0.116 A 
HETATM   18  F2  UNL     1      29.619  -1.365  53.883  1.00  0.00    -0.206 F 
HETATM   19  C17 UNL     1      28.714   0.739  53.477  1.00  0.00     0.043 A 
HETATM   20  C18 UNL     1      27.661   1.488  52.992  1.00  0.00     0.012 A 
ENDBRANCH  12  14
ENDBRANCH  10  12
ENDBRANCH   1  10
BRANCH   7  21
HETATM   21  C7  UNL     1      20.149  -0.069  53.560  1.00  0.00     0.068 C 
BRANCH  21  22
HETATM   22  C8  UNL     1      20.671  -1.387  53.977  1.00  0.00     0.079 C 
BRANCH  22  23
HETATM   23  C9  UNL     1      21.816  -1.413  54.643  1.00  0.00    -0.121 C 
BRANCH  23  24
HETATM   24  C10 UNL     1      22.999  -1.209  55.197  1.00  0.00     0.239 C 
HETATM   25  F1  UNL     1      23.883  -0.510  54.460  1.00  0.00    -0.211 F 
ENDBRANCH  23  24
ENDBRANCH  22  23
ENDBRANCH  21  22
ENDBRANCH   7  21
TORSDOF 7
ENDMDL
MODEL 9
REMARK VINA RESULT:      -6.5      3.890      6.296
REMARK  7 active torsions:
REMARK  status: ('A' for Active; 'I' for Inactive)
REMARK    1  A    between atoms: C2_2  and  N1_3 
REMARK    2  A    between atoms: C2_2  and  C13_18 
REMARK    3  A    between atoms: N1_3  and  C3_4 
REMARK    4  A    between atoms: C6_10  and  C7_11 
REMARK    5  A    between atoms: C7_11  and  C8_12 
REMARK    6  A    between atoms: C8_12  and  C9_13 
REMARK    7  A    between atoms: C9_13  and  C10_14 
ROOT
HETATM    1  C3  UNL     1      22.326   4.324  51.208  1.00  0.00     0.105 C 
HETATM    2  N2  UNL     1      21.142   3.863  50.886  1.00  0.00    -0.229 NA
HETATM    3  C4  UNL     1      20.359   3.310  51.932  1.00  0.00     0.235 C 
HETATM    4  N3  UNL     1      20.985   2.152  51.857  1.00  0.00    -0.241 NA
HETATM    5  C5  UNL     1      22.038   1.999  50.880  1.00  0.00     0.335 C 
HETATM    6  N4  UNL     1      23.350   1.990  50.778  1.00  0.00    -0.271 NA
HETATM    7  C6  UNL     1      24.101   2.187  51.972  1.00  0.00    -0.019 C 
HETATM    8  C11 UNL     1      23.939   3.243  52.751  1.00  0.00    -0.001 C 
HETATM    9  C12 UNL     1      23.004   4.346  52.530  1.00  0.00     0.106 C 
ENDROOT
BRANCH   1  10
HETATM   10  N1  UNL     1      23.019   4.856  50.058  1.00  0.00    -0.370 N 
HETATM   11  H5  UNL     1      22.761   4.454  49.110  1.00  0.00     0.161 HD
BRANCH  10  12
HETATM   12  C2  UNL     1      24.026   5.889  50.176  1.00  0.00     0.112 C 
HETATM   13  C1  UNL     1      23.474   7.153  49.554  1.00  0.00     0.037 C 
BRANCH  12  14
HETATM   14  C13 UNL     1      25.339   5.544  49.632  1.00  0.00    -0.036 A 
HETATM   15  C14 UNL     1      25.953   4.315  49.651  1.00  0.00     0.012 A 
HETATM   16  C15 UNL     1      27.208   4.100  49.101  1.00  0.00     0.043 A 
HETATM   17  C16 UNL     1      27.881   5.151  48.506  1.00  0.00     0.116 A 
HETATM   18  F2  UNL     1      29.105   4.987  47.957  1.00  0.00    -0.206 F 
HETATM   19  C17 UNL     1      27.327   6.403  48.452  1.00  0.00     0.043 A 
HETATM   20  C18 UNL     1      26.076   6.560  49.016  1.00  0.00     0.012 A 
ENDBRANCH  12  14
ENDBRANCH  10  12
ENDBRANCH   1  10
BRANCH   7  21
HETATM   21  C7  UNL     1      25.095   1.160  52.339  1.00  0.00     0.068 C 
BRANCH  21  22
HETATM   22  C8  UNL     1      26.403   1.376  51.686  1.00  0.00     0.079 C 
BRANCH  22  23
HETATM   23  C9  UNL     1      27.438   1.661  52.462  1.00  0.00    -0.121 C 
BRANCH  23  24
HETATM   24  C10 UNL     1      28.406   1.729  53.360  1.00  0.00     0.239 C 
HETATM   25  F1  UNL     1      28.842   2.966  53.666  1.00  0.00    -0.211 F 
ENDBRANCH  23  24
ENDBRANCH  22  23
ENDBRANCH  21  22
ENDBRANCH   7  21
TORSDOF 7
ENDMDL
