MODEL 1
REMARK VINA RESULT:      -7.6      0.000      0.000
REMARK  5 active torsions:
REMARK  status: ('A' for Active; 'I' for Inactive)
REMARK    1  A    between atoms: N1_1  and  C1_2 
REMARK    2  A    between atoms: C1_2  and  C2_3 
REMARK    3  A    between atoms: C2_3  and  N2_4 
REMARK    4  A    between atoms: N2_4  and  C3_5 
REMARK    5  A    between atoms: N5_18  and  N6_19 
ROOT
HETATM    1  C3  UNL     1      26.711   1.688  52.354  1.00  0.00     0.120 C 
HETATM    2  N3  UNL     1      25.652   0.997  52.577  1.00  0.00    -0.232 NA
HETATM    3  C4  UNL     1      25.006   0.328  53.640  1.00  0.00     0.088 C 
HETATM    4  C5  UNL     1      23.578   0.263  53.472  1.00  0.00     0.016 A 
HETATM    5  C6  UNL     1      23.026   1.056  52.489  1.00  0.00     0.015 A 
HETATM    6  C7  UNL     1      21.704   1.125  52.154  1.00  0.00     0.001 A 
HETATM    7  C8  UNL     1      20.797   0.350  52.831  1.00  0.00     0.002 A 
HETATM    8  C9  UNL     1      21.271  -0.468  53.826  1.00  0.00     0.025 A 
HETATM    9  C10 UNL     1      22.608  -0.475  54.094  1.00  0.00     0.046 A 
HETATM   10 CL1  UNL     1      23.066  -1.599  55.333  1.00  0.00    -0.083 Cl
HETATM   11  C11 UNL     1      25.658  -0.211  54.614  1.00  0.00     0.150 C 
HETATM   12  N4  UNL     1      26.982  -0.408  55.075  1.00  0.00    -0.253 NA
HETATM   13  C12 UNL     1      28.120   0.131  54.720  1.00  0.00     0.220 C 
HETATM   14  N5  UNL     1      28.597   1.085  53.799  1.00  0.00    -0.302 N 
HETATM   15  C13 UNL     1      27.836   2.139  53.174  1.00  0.00     0.221 C 
ENDROOT
BRANCH   1  16
HETATM   16  N2  UNL     1      26.781   2.103  50.968  1.00  0.00    -0.375 N 
HETATM   17  H7  UNL     1      27.584   1.747  50.407  1.00  0.00     0.160 HD
BRANCH  16  18
HETATM   18  C2  UNL     1      25.748   2.984  50.433  1.00  0.00     0.150 C 
BRANCH  18  19
HETATM   19  C1  UNL     1      26.447   4.064  49.613  1.00  0.00     0.286 C 
BRANCH  19  20
HETATM   20  N1  UNL     1      26.094   5.372  50.078  1.00  0.00     0.079 N 
HETATM   21  H1  UNL     1      26.675   6.079  49.581  1.00  0.00     0.312 HD
HETATM   22  H2  UNL     1      26.249   5.512  51.085  1.00  0.00     0.312 HD
ENDBRANCH  19  20
ENDBRANCH  18  19
ENDBRANCH  16  18
ENDBRANCH   1  16
BRANCH  14  23
HETATM   23  N6  UNL     1      29.977   0.929  53.506  1.00  0.00    -0.246 NA
HETATM   24  H14 UNL     1      30.396   0.173  54.100  1.00  0.00     0.143 HD
HETATM   25  H15 UNL     1      30.048   0.607  52.493  1.00  0.00     0.143 HD
ENDBRANCH  14  23
TORSDOF 5
ENDMDL
MODEL 2
REMARK VINA RESULT:      -7.6      1.742      4.171
REMARK  5 active torsions:
REMARK  status: ('A' for Active; 'I' for Inactive)
REMARK    1  A    between atoms: N1_1  and  C1_2 
REMARK    2  A    between atoms: C1_2  and  C2_3 
REMARK    3  A    between atoms: C2_3  and  N2_4 
REMARK    4  A    between atoms: N2_4  and  C3_5 
REMARK    5  A    between atoms: N5_18  and  N6_19 
ROOT
HETATM    1  C3  UNL     1      26.058   2.108  52.504  1.00  0.00     0.120 C 
HETATM    2  N3  UNL     1      24.906   1.649  52.834  1.00  0.00    -0.232 NA
HETATM    3  C4  UNL     1      23.707   1.211  52.228  1.00  0.00     0.088 C 
HETATM    4  C5  UNL     1      23.003   0.241  53.025  1.00  0.00     0.016 A 
HETATM    5  C6  UNL     1      23.684  -0.310  54.088  1.00  0.00     0.015 A 
HETATM    6  C7  UNL     1      23.193  -1.225  54.976  1.00  0.00     0.001 A 
HETATM    7  C8  UNL     1      21.904  -1.670  54.840  1.00  0.00     0.002 A 
HETATM    8  C9  UNL     1      21.160  -1.166  53.802  1.00  0.00     0.025 A 
HETATM    9  C10 UNL     1      21.729  -0.255  52.963  1.00  0.00     0.046 A 
HETATM   10 CL1  UNL     1      20.651   0.336  51.739  1.00  0.00    -0.083 Cl
HETATM   11  C11 UNL     1      23.283   1.692  51.109  1.00  0.00     0.150 C 
HETATM   12  N4  UNL     1      23.631   2.641  50.118  1.00  0.00    -0.253 NA
HETATM   13  C12 UNL     1      24.742   3.290  49.881  1.00  0.00     0.220 C 
HETATM   14  N5  UNL     1      26.043   3.391  50.415  1.00  0.00    -0.302 N 
HETATM   15  C13 UNL     1      26.719   2.415  51.235  1.00  0.00     0.221 C 
ENDROOT
BRANCH   1  16
HETATM   16  N2  UNL     1      26.870   2.371  53.674  1.00  0.00    -0.375 N 
HETATM   17  H7  UNL     1      26.367   2.521  54.575  1.00  0.00     0.160 HD
BRANCH  16  18
HETATM   18  C2  UNL     1      28.322   2.414  53.542  1.00  0.00     0.150 C 
BRANCH  18  19
HETATM   19  C1  UNL     1      28.856   1.032  53.906  1.00  0.00     0.286 C 
BRANCH  19  20
HETATM   20  N1  UNL     1      28.193   0.513  55.064  1.00  0.00     0.079 N 
HETATM   21  H1  UNL     1      28.904   0.128  55.721  1.00  0.00     0.312 HD
HETATM   22  H2  UNL     1      27.533  -0.248  54.860  1.00  0.00     0.312 HD
ENDBRANCH  19  20
ENDBRANCH  18  19
ENDBRANCH  16  18
ENDBRANCH   1  16
BRANCH  14  23
HETATM   23  N6  UNL     1      26.691   4.604  50.067  1.00  0.00    -0.246 NA
HETATM   24  H14 UNL     1      27.710   4.559  50.305  1.00  0.00     0.143 HD
HETATM   25  H15 UNL     1      26.620   4.704  49.008  1.00  0.00     0.143 HD
ENDBRANCH  14  23
TORSDOF 5
ENDMDL
MODEL 3
REMARK VINA RESULT:      -7.0      2.879      4.891
REMARK  5 active torsions:
REMARK  status: ('A' for Active; 'I' for Inactive)
REMARK    1  A    between atoms: N1_1  and  C1_2 
REMARK    2  A    between atoms: C1_2  and  C2_3 
REMARK    3  A    between atoms: C2_3  and  N2_4 
REMARK    4  A    between atoms: N2_4  and  C3_5 
REMARK    5  A    between atoms: N5_18  and  N6_19 
ROOT
HETATM    1  C3  UNL     1      25.256   0.018  53.244  1.00  0.00     0.120 C 
HETATM    2  N3  UNL     1      24.860   1.010  52.533  1.00  0.00    -0.232 NA
HETATM    3  C4  UNL     1      25.369   1.929  51.588  1.00  0.00     0.088 C 
HETATM    4  C5  UNL     1      24.361   2.405  50.676  1.00  0.00     0.016 A 
HETATM    5  C6  UNL     1      23.158   1.734  50.666  1.00  0.00     0.015 A 
HETATM    6  C7  UNL     1      22.071   2.036  49.897  1.00  0.00     0.001 A 
HETATM    7  C8  UNL     1      22.131   3.101  49.035  1.00  0.00     0.002 A 
HETATM    8  C9  UNL     1      23.299   3.820  48.988  1.00  0.00     0.025 A 
HETATM    9  C10 UNL     1      24.336   3.449  49.792  1.00  0.00     0.046 A 
HETATM   10 CL1  UNL     1      25.722   4.485  49.668  1.00  0.00    -0.083 Cl
HETATM   11  C11 UNL     1      26.595   2.329  51.605  1.00  0.00     0.150 C 
HETATM   12  N4  UNL     1      27.798   2.158  52.332  1.00  0.00    -0.253 NA
HETATM   13  C12 UNL     1      28.159   1.275  53.227  1.00  0.00     0.220 C 
HETATM   14  N5  UNL     1      27.620   0.147  53.879  1.00  0.00    -0.302 N 
HETATM   15  C13 UNL     1      26.531  -0.679  53.419  1.00  0.00     0.221 C 
ENDROOT
BRANCH   1  16
HETATM   16  N2  UNL     1      24.173  -0.515  54.045  1.00  0.00    -0.375 N 
HETATM   17  H7  UNL     1      24.417  -0.870  54.994  1.00  0.00     0.160 HD
BRANCH  16  18
HETATM   18  C2  UNL     1      22.820  -0.531  53.499  1.00  0.00     0.150 C 
BRANCH  18  19
HETATM   19  C1  UNL     1      21.895  -1.075  54.583  1.00  0.00     0.286 C 
BRANCH  19  20
HETATM   20  N1  UNL     1      20.798  -0.187  54.817  1.00  0.00     0.079 N 
HETATM   21  H1  UNL     1      20.248  -0.530  55.633  1.00  0.00     0.312 HD
HETATM   22  H2  UNL     1      20.144  -0.114  54.026  1.00  0.00     0.312 HD
ENDBRANCH  19  20
ENDBRANCH  18  19
ENDBRANCH  16  18
ENDBRANCH   1  16
BRANCH  14  23
HETATM   23  N6  UNL     1      28.268  -0.142  55.108  1.00  0.00    -0.246 NA
HETATM   24  H14 UNL     1      27.820   0.388  55.894  1.00  0.00     0.143 HD
HETATM   25  H15 UNL     1      28.119  -1.179  55.304  1.00  0.00     0.143 HD
ENDBRANCH  14  23
TORSDOF 5
ENDMDL
MODEL 4
REMARK VINA RESULT:      -7.0      2.847      5.814
REMARK  5 active torsions:
REMARK  status: ('A' for Active; 'I' for Inactive)
REMARK    1  A    between atoms: N1_1  and  C1_2 
REMARK    2  A    between atoms: C1_2  and  C2_3 
REMARK    3  A    between atoms: C2_3  and  N2_4 
REMARK    4  A    between atoms: N2_4  and  C3_5 
REMARK    5  A    between atoms: N5_18  and  N6_19 
ROOT
HETATM    1  C3  UNL     1      24.678  -0.356  53.760  1.00  0.00     0.120 C 
HETATM    2  N3  UNL     1      24.635   0.340  52.682  1.00  0.00    -0.232 NA
HETATM    3  C4  UNL     1      23.787   1.263  52.029  1.00  0.00     0.088 C 
HETATM    4  C5  UNL     1      24.508   2.175  51.180  1.00  0.00     0.016 A 
HETATM    5  C6  UNL     1      25.879   2.208  51.315  1.00  0.00     0.015 A 
HETATM    6  C7  UNL     1      26.743   2.981  50.594  1.00  0.00     0.001 A 
HETATM    7  C8  UNL     1      26.251   3.823  49.630  1.00  0.00     0.002 A 
HETATM    8  C9  UNL     1      24.892   3.846  49.435  1.00  0.00     0.025 A 
HETATM    9  C10 UNL     1      24.102   3.040  50.200  1.00  0.00     0.046 A 
HETATM   10 CL1  UNL     1      22.416   3.133  49.801  1.00  0.00    -0.083 Cl
HETATM   11  C11 UNL     1      22.504   1.229  52.152  1.00  0.00     0.150 C 
HETATM   12  N4  UNL     1      21.481   0.494  52.798  1.00  0.00    -0.253 NA
HETATM   13  C12 UNL     1      21.514  -0.388  53.764  1.00  0.00     0.220 C 
HETATM   14  N5  UNL     1      22.469  -1.014  54.592  1.00  0.00    -0.302 N 
HETATM   15  C13 UNL     1      23.789  -0.529  54.910  1.00  0.00     0.221 C 
ENDROOT
BRANCH   1  16
HETATM   16  N2  UNL     1      25.896  -1.138  53.828  1.00  0.00    -0.375 N 
HETATM   17  H7  UNL     1      26.159  -1.524  54.759  1.00  0.00     0.160 HD
BRANCH  16  18
HETATM   18  C2  UNL     1      26.681  -1.344  52.615  1.00  0.00     0.150 C 
BRANCH  18  19
HETATM   19  C1  UNL     1      28.108  -1.671  53.045  1.00  0.00     0.286 C 
BRANCH  19  20
HETATM   20  N1  UNL     1      28.328  -3.086  53.070  1.00  0.00     0.079 N 
HETATM   21  H1  UNL     1      28.912  -3.326  53.897  1.00  0.00     0.312 HD
HETATM   22  H2  UNL     1      28.820  -3.445  52.242  1.00  0.00     0.312 HD
ENDBRANCH  19  20
ENDBRANCH  18  19
ENDBRANCH  16  18
ENDBRANCH   1  16
BRANCH  14  23
HETATM   23  N6  UNL     1      22.008  -2.243  55.133  1.00  0.00    -0.246 NA
HETATM   24  H14 UNL     1      22.320  -2.347  56.128  1.00  0.00     0.143 HD
HETATM   25  H15 UNL     1      20.943  -2.203  55.139  1.00  0.00     0.143 HD
ENDBRANCH  14  23
TORSDOF 5
ENDMDL
MODEL 5
REMARK VINA RESULT:      -6.6      2.389      3.676
REMARK  5 active torsions:
REMARK  status: ('A' for Active; 'I' for Inactive)
REMARK    1  A    between atoms: N1_1  and  C1_2 
REMARK    2  A    between atoms: C1_2  and  C2_3 
REMARK    3  A    between atoms: C2_3  and  N2_4 
REMARK    4  A    between atoms: N2_4  and  C3_5 
REMARK    5  A    between atoms: N5_18  and  N6_19 
ROOT
HETATM    1  C3  UNL     1      23.910   2.637  50.485  1.00  0.00     0.120 C 
HETATM    2  N3  UNL     1      23.666   1.616  51.224  1.00  0.00    -0.232 NA
HETATM    3  C4  UNL     1      24.102   1.034  52.436  1.00  0.00     0.088 C 
HETATM    4  C5  UNL     1      23.075   0.256  53.080  1.00  0.00     0.016 A 
HETATM    5  C6  UNL     1      21.791   0.394  52.601  1.00  0.00     0.015 A 
HETATM    6  C7  UNL     1      20.685  -0.267  53.054  1.00  0.00     0.001 A 
HETATM    7  C8  UNL     1      20.811  -1.164  54.083  1.00  0.00     0.002 A 
HETATM    8  C9  UNL     1      22.062  -1.356  54.613  1.00  0.00     0.025 A 
HETATM    9  C10 UNL     1      23.112  -0.656  54.100  1.00  0.00     0.046 A 
HETATM   10 CL1  UNL     1      24.637  -1.047  54.829  1.00  0.00    -0.083 Cl
HETATM   11  C11 UNL     1      25.313   1.154  52.863  1.00  0.00     0.150 C 
HETATM   12  N4  UNL     1      26.551   1.742  52.509  1.00  0.00    -0.253 NA
HETATM   13  C12 UNL     1      26.867   2.639  51.610  1.00  0.00     0.220 C 
HETATM   14  N5  UNL     1      26.229   3.417  50.622  1.00  0.00    -0.302 N 
HETATM   15  C13 UNL     1      24.832   3.770  50.568  1.00  0.00     0.221 C 
ENDROOT
BRANCH   1  16
HETATM   16  N2  UNL     1      23.062   2.646  49.311  1.00  0.00    -0.375 N 
HETATM   17  H7  UNL     1      23.526   2.486  48.391  1.00  0.00     0.160 HD
BRANCH  16  18
HETATM   18  C2  UNL     1      21.629   2.874  49.465  1.00  0.00     0.150 C 
BRANCH  18  19
HETATM   19  C1  UNL     1      20.907   1.846  48.600  1.00  0.00     0.286 C 
BRANCH  19  20
HETATM   20  N1  UNL     1      19.871   1.188  49.337  1.00  0.00     0.079 N 
HETATM   21  H1  UNL     1      20.087   1.244  50.354  1.00  0.00     0.312 HD
HETATM   22  H2  UNL     1      19.765   0.191  49.108  1.00  0.00     0.312 HD
ENDBRANCH  19  20
ENDBRANCH  18  19
ENDBRANCH  16  18
ENDBRANCH   1  16
BRANCH  14  23
HETATM   23  N6  UNL     1      27.120   3.863  49.611  1.00  0.00    -0.246 NA
HETATM   24  H14 UNL     1      27.837   3.127  49.402  1.00  0.00     0.143 HD
HETATM   25  H15 UNL     1      26.544   4.001  48.725  1.00  0.00     0.143 HD
ENDBRANCH  14  23
TORSDOF 5
ENDMDL
MODEL 6
REMARK VINA RESULT:      -6.6      3.169      6.418
REMARK  5 active torsions:
REMARK  status: ('A' for Active; 'I' for Inactive)
REMARK    1  A    between atoms: N1_1  and  C1_2 
REMARK    2  A    between atoms: C1_2  and  C2_3 
REMARK    3  A    between atoms: C2_3  and  N2_4 
REMARK    4  A    between atoms: N2_4  and  C3_5 
REMARK    5  A    between atoms: N5_18  and  N6_19 
ROOT
HETATM    1  C3  UNL     1      22.886   0.110  53.507  1.00  0.00     0.120 C 
HETATM    2  N3  UNL     1      23.351   0.664  52.447  1.00  0.00    -0.232 NA
HETATM    3  C4  UNL     1      22.961   1.595  51.458  1.00  0.00     0.088 C 
HETATM    4  C5  UNL     1      24.080   2.295  50.881  1.00  0.00     0.016 A 
HETATM    5  C6  UNL     1      25.293   2.174  51.522  1.00  0.00     0.015 A 
HETATM    6  C7  UNL     1      26.474   2.735  51.129  1.00  0.00     0.001 A 
HETATM    7  C8  UNL     1      26.510   3.503  49.993  1.00  0.00     0.002 A 
HETATM    8  C9  UNL     1      25.338   3.670  49.298  1.00  0.00     0.025 A 
HETATM    9  C10 UNL     1      24.204   3.072  49.762  1.00  0.00     0.046 A 
HETATM   10 CL1  UNL     1      22.818   3.323  48.750  1.00  0.00    -0.083 Cl
HETATM   11  C11 UNL     1      21.734   1.737  51.089  1.00  0.00     0.150 C 
HETATM   12  N4  UNL     1      20.441   1.223  51.350  1.00  0.00    -0.253 NA
HETATM   13  C12 UNL     1      19.977   0.474  52.317  1.00  0.00     0.220 C 
HETATM   14  N5  UNL     1      20.450  -0.157  53.487  1.00  0.00    -0.302 N 
HETATM   15  C13 UNL     1      21.625   0.196  54.245  1.00  0.00     0.221 C 
ENDROOT
BRANCH   1  16
HETATM   16  N2  UNL     1      23.851  -0.802  54.086  1.00  0.00    -0.375 N 
HETATM   17  H7  UNL     1      23.492  -1.497  54.774  1.00  0.00     0.160 HD
BRANCH  16  18
HETATM   18  C2  UNL     1      25.252  -0.709  53.687  1.00  0.00     0.150 C 
BRANCH  18  19
HETATM   19  C1  UNL     1      26.009  -0.039  54.829  1.00  0.00     0.286 C 
BRANCH  19  20
HETATM   20  N1  UNL     1      27.408  -0.336  54.764  1.00  0.00     0.079 N 
HETATM   21  H1  UNL     1      27.680  -0.887  55.605  1.00  0.00     0.312 HD
HETATM   22  H2  UNL     1      28.010   0.497  54.744  1.00  0.00     0.312 HD
ENDBRANCH  19  20
ENDBRANCH  18  19
ENDBRANCH  16  18
ENDBRANCH   1  16
BRANCH  14  23
HETATM   23  N6  UNL     1      19.631  -1.240  53.899  1.00  0.00    -0.246 NA
HETATM   24  H14 UNL     1      19.399  -1.160  54.918  1.00  0.00     0.143 HD
HETATM   25  H15 UNL     1      18.714  -1.162  53.361  1.00  0.00     0.143 HD
ENDBRANCH  14  23
TORSDOF 5
ENDMDL
MODEL 7
REMARK VINA RESULT:      -6.6      3.267      5.786
REMARK  5 active torsions:
REMARK  status: ('A' for Active; 'I' for Inactive)
REMARK    1  A    between atoms: N1_1  and  C1_2 
REMARK    2  A    between atoms: C1_2  and  C2_3 
REMARK    3  A    between atoms: C2_3  and  N2_4 
REMARK    4  A    between atoms: N2_4  and  C3_5 
REMARK    5  A    between atoms: N5_18  and  N6_19 
ROOT
HETATM    1  C3  UNL     1      22.107   0.204  53.307  1.00  0.00     0.120 C 
HETATM    2  N3  UNL     1      22.740   1.134  52.689  1.00  0.00    -0.232 NA
HETATM    3  C4  UNL     1      24.022   1.394  52.155  1.00  0.00     0.088 C 
HETATM    4  C5  UNL     1      23.988   2.317  51.050  1.00  0.00     0.016 A 
HETATM    5  C6  UNL     1      22.753   2.602  50.509  1.00  0.00     0.015 A 
HETATM    6  C7  UNL     1      22.502   3.462  49.479  1.00  0.00     0.001 A 
HETATM    7  C8  UNL     1      23.544   4.132  48.891  1.00  0.00     0.002 A 
HETATM    8  C9  UNL     1      24.807   3.901  49.377  1.00  0.00     0.025 A 
HETATM    9  C10 UNL     1      24.968   3.026  50.410  1.00  0.00     0.046 A 
HETATM   10 CL1  UNL     1      26.608   2.882  50.954  1.00  0.00    -0.083 Cl
HETATM   11  C11 UNL     1      25.096   0.892  52.662  1.00  0.00     0.150 C 
HETATM   12  N4  UNL     1      25.525   0.050  53.717  1.00  0.00    -0.253 NA
HETATM   13  C12 UNL     1      24.871  -0.757  54.511  1.00  0.00     0.220 C 
HETATM   14  N5  UNL     1      23.544  -1.182  54.729  1.00  0.00    -0.302 N 
HETATM   15  C13 UNL     1      22.455  -1.135  53.784  1.00  0.00     0.221 C 
ENDROOT
BRANCH   1  16
HETATM   16  N2  UNL     1      20.740   0.595  53.580  1.00  0.00    -0.375 N 
HETATM   17  H7  UNL     1      20.458   0.667  54.581  1.00  0.00     0.160 HD
BRANCH  16  18
HETATM   18  C2  UNL     1      19.838   0.866  52.465  1.00  0.00     0.150 C 
BRANCH  18  19
HETATM   19  C1  UNL     1      18.828  -0.276  52.406  1.00  0.00     0.286 C 
BRANCH  19  20
HETATM   20  N1  UNL     1      18.747  -0.957  53.662  1.00  0.00     0.079 N 
HETATM   21  H1  UNL     1      17.836  -1.459  53.721  1.00  0.00     0.312 HD
HETATM   22  H2  UNL     1      18.797  -0.333  54.478  1.00  0.00     0.312 HD
ENDBRANCH  19  20
ENDBRANCH  18  19
ENDBRANCH  16  18
ENDBRANCH   1  16
BRANCH  14  23
HETATM   23  N6  UNL     1      23.337  -1.699  56.035  1.00  0.00    -0.246 NA
HETATM   24  H14 UNL     1      22.477  -2.297  56.062  1.00  0.00     0.143 HD
HETATM   25  H15 UNL     1      24.166  -2.331  56.257  1.00  0.00     0.143 HD
ENDBRANCH  14  23
TORSDOF 5
ENDMDL
MODEL 8
REMARK VINA RESULT:      -6.5      2.406      4.910
REMARK  5 active torsions:
REMARK  status: ('A' for Active; 'I' for Inactive)
REMARK    1  A    between atoms: N1_1  and  C1_2 
REMARK    2  A    between atoms: C1_2  and  C2_3 
REMARK    3  A    between atoms: C2_3  and  N2_4 
REMARK    4  A    between atoms: N2_4  and  C3_5 
REMARK    5  A    between atoms: N5_18  and  N6_19 
ROOT
HETATM    1  C3  UNL     1      24.361   2.803  51.012  1.00  0.00     0.120 C 
HETATM    2  N3  UNL     1      23.589   2.186  51.832  1.00  0.00    -0.232 NA
HETATM    3  C4  UNL     1      22.338   1.530  51.848  1.00  0.00     0.088 C 
HETATM    4  C5  UNL     1      22.259   0.506  52.857  1.00  0.00     0.016 A 
HETATM    5  C6  UNL     1      23.439   0.130  53.462  1.00  0.00     0.015 A 
HETATM    6  C7  UNL     1      23.578  -0.800  54.452  1.00  0.00     0.001 A 
HETATM    7  C8  UNL     1      22.468  -1.451  54.925  1.00  0.00     0.002 A 
HETATM    8  C9  UNL     1      21.254  -1.129  54.372  1.00  0.00     0.025 A 
HETATM    9  C10 UNL     1      21.206  -0.187  53.388  1.00  0.00     0.046 A 
HETATM   10 CL1  UNL     1      19.600   0.156  52.828  1.00  0.00    -0.083 Cl
HETATM   11  C11 UNL     1      21.367   1.875  51.072  1.00  0.00     0.150 C 
HETATM   12  N4  UNL     1      21.050   2.812  50.058  1.00  0.00    -0.253 NA
HETATM   13  C12 UNL     1      21.797   3.614  49.345  1.00  0.00     0.220 C 
HETATM   14  N5  UNL     1      23.160   3.949  49.208  1.00  0.00    -0.302 N 
HETATM   15  C13 UNL     1      24.291   3.139  49.589  1.00  0.00     0.221 C 
ENDROOT
BRANCH   1  16
HETATM   16  N2  UNL     1      25.568   3.255  51.671  1.00  0.00    -0.375 N 
HETATM   17  H7  UNL     1      25.515   4.158  52.189  1.00  0.00     0.160 HD
BRANCH  16  18
HETATM   18  C2  UNL     1      26.778   2.445  51.581  1.00  0.00     0.150 C 
BRANCH  18  19
HETATM   19  C1  UNL     1      27.095   1.940  52.985  1.00  0.00     0.286 C 
BRANCH  19  20
HETATM   20  N1  UNL     1      26.226   2.534  53.955  1.00  0.00     0.079 N 
HETATM   21  H1  UNL     1      26.675   3.393  54.337  1.00  0.00     0.312 HD
HETATM   22  H2  UNL     1      26.017   1.925  54.757  1.00  0.00     0.312 HD
ENDBRANCH  19  20
ENDBRANCH  18  19
ENDBRANCH  16  18
ENDBRANCH   1  16
BRANCH  14  23
HETATM   23  N6  UNL     1      23.358   5.229  48.628  1.00  0.00    -0.246 NA
HETATM   24  H14 UNL     1      24.043   5.786  49.192  1.00  0.00     0.143 HD
HETATM   25  H15 UNL     1      23.795   5.073  47.668  1.00  0.00     0.143 HD
ENDBRANCH  14  23
TORSDOF 5
ENDMDL
MODEL 9
REMARK VINA RESULT:      -6.4      2.658      5.251
REMARK  5 active torsions:
REMARK  status: ('A' for Active; 'I' for Inactive)
REMARK    1  A    between atoms: N1_1  and  C1_2 
REMARK    2  A    between atoms: C1_2  and  C2_3 
REMARK    3  A    between atoms: C2_3  and  N2_4 
REMARK    4  A    between atoms: N2_4  and  C3_5 
REMARK    5  A    between atoms: N5_18  and  N6_19 
ROOT
HETATM    1  C3  UNL     1      23.075   2.177  51.074  1.00  0.00     0.120 C 
HETATM    2  N3  UNL     1      23.890   1.909  52.029  1.00  0.00    -0.232 NA
HETATM    3  C4  UNL     1      24.219   0.846  52.899  1.00  0.00     0.088 C 
HETATM    4  C5  UNL     1      25.593   0.882  53.328  1.00  0.00     0.016 A 
HETATM    5  C6  UNL     1      26.436   1.742  52.658  1.00  0.00     0.015 A 
HETATM    6  C7  UNL     1      27.761   1.943  52.921  1.00  0.00     0.001 A 
HETATM    7  C8  UNL     1      28.358   1.246  53.941  1.00  0.00     0.002 A 
HETATM    8  C9  UNL     1      27.581   0.369  54.656  1.00  0.00     0.025 A 
HETATM    9  C10 UNL     1      26.266   0.231  54.326  1.00  0.00     0.046 A 
HETATM   10 CL1  UNL     1      25.399  -0.866  55.353  1.00  0.00    -0.083 Cl
HETATM   11  C11 UNL     1      23.345  -0.016  53.298  1.00  0.00     0.150 C 
HETATM   12  N4  UNL     1      21.972  -0.332  53.164  1.00  0.00    -0.253 NA
HETATM   13  C12 UNL     1      21.057   0.086  52.327  1.00  0.00     0.220 C 
HETATM   14  N5  UNL     1      20.947   0.970  51.234  1.00  0.00    -0.302 N 
HETATM   15  C13 UNL     1      22.017   1.435  50.386  1.00  0.00     0.221 C 
ENDROOT
BRANCH   1  16
HETATM   16  N2  UNL     1      23.269   3.525  50.584  1.00  0.00    -0.375 N 
HETATM   17  H7  UNL     1      22.696   3.818  49.764  1.00  0.00     0.160 HD
BRANCH  16  18
HETATM   18  C2  UNL     1      24.238   4.394  51.245  1.00  0.00     0.150 C 
BRANCH  18  19
HETATM   19  C1  UNL     1      23.536   5.713  51.551  1.00  0.00     0.286 C 
BRANCH  19  20
HETATM   20  N1  UNL     1      24.425   6.633  52.194  1.00  0.00     0.079 N 
HETATM   21  H1  UNL     1      23.897   7.491  52.457  1.00  0.00     0.312 HD
HETATM   22  H2  UNL     1      25.210   6.934  51.602  1.00  0.00     0.312 HD
ENDBRANCH  19  20
ENDBRANCH  18  19
ENDBRANCH  16  18
ENDBRANCH   1  16
BRANCH  14  23
HETATM   23  N6  UNL     1      19.615   1.404  51.008  1.00  0.00    -0.246 NA
HETATM   24  H14 UNL     1      19.450   2.337  51.456  1.00  0.00     0.143 HD
HETATM   25  H15 UNL     1      19.503   1.536  49.956  1.00  0.00     0.143 HD
ENDBRANCH  14  23
TORSDOF 5
ENDMDL
